data_str_m3_o10_o17_pcu_sym.168
_audit_creation_date              2020-01-03
_audit_creation_method            'Materials Studio'
_symmetry_space_group_name_H-M    'P1'
_symmetry_Int_Tables_number       1
_symmetry_cell_setting            triclinic
loop_
_symmetry_equiv_pos_as_xyz
  x,y,z
_cell_length_a                    23.4537
_cell_length_b                    25.9700
_cell_length_c                    29.8032
_cell_angle_alpha                 91.4814
_cell_angle_beta                  85.8311
_cell_angle_gamma                 93.2600
loop_
_atom_site_label
_atom_site_type_symbol
_atom_site_fract_x
_atom_site_fract_y
_atom_site_fract_z
_atom_site_U_iso_or_equiv
_atom_site_adp_type
_atom_site_occupancy
O1     O     0.12975   0.24619   0.25299   0.00000  Uiso   1.00
O2     O     0.20358   0.08714   0.24702   0.00000  Uiso   1.00
O3     O     0.22613   0.23721   0.24519   0.00000  Uiso   1.00
O4     O     0.10720   0.09613   0.25482   0.00000  Uiso   1.00
C5     C     0.18154   0.26450   0.24803   0.00000  Uiso   1.00
C6     C     0.15180   0.06876   0.25063   0.00000  Uiso   1.00
O7     O     0.11847   0.17117   0.31998   0.00000  Uiso   1.00
O8     O     0.21486   0.16216   0.18003   0.00000  Uiso   1.00
O9     O     0.21485   0.16219   0.31218   0.00000  Uiso   1.00
O10    O     0.11848   0.17115   0.18783   0.00000  Uiso   1.00
C11    C     0.16711   0.16556   0.33624   0.00000  Uiso   1.00
C12    C     0.16637   0.16869   0.16384   0.00000  Uiso   1.00
Zn13   Zn    0.10231   0.17266   0.25521   0.00000  Uiso   1.00
Zn14   Zn    0.23102   0.16067   0.24479   0.00000  Uiso   1.00
C15    C     0.13764   0.13009   0.09509   0.00000  Uiso   1.00
C16    C     0.19415   0.20536   0.40521   0.00000  Uiso   1.00
C17    C     0.16531   0.17135   0.11634   0.00000  Uiso   1.00
C18    C     0.16775   0.16347   0.38385   0.00000  Uiso   1.00
C19    C     0.19027   0.21412   0.09284   0.00000  Uiso   1.00
C20    C     0.13757   0.12338   0.40769   0.00000  Uiso   1.00
C21    C     0.18892   0.21346   0.04581   0.00000  Uiso   1.00
C22    C     0.13587   0.12545   0.45482   0.00000  Uiso   1.00
C23    C     0.16251   0.17018   0.02379   0.00000  Uiso   1.00
C24    C     0.16253   0.16860   0.47680   0.00000  Uiso   1.00
C25    C     0.13683   0.12813   0.04872   0.00000  Uiso   1.00
C26    C     0.19014   0.20968   0.45173   0.00000  Uiso   1.00
C27    C     0.21452   0.25442   0.02024   0.00000  Uiso   1.00
C28    C     0.11000   0.08461   0.48033   0.00000  Uiso   1.00
C29    C     0.21455   0.25341   0.47364   0.00000  Uiso   1.00
C30    C     0.11077   0.08518   0.02682   0.00000  Uiso   1.00
H31    H     0.11721   0.09939   0.11545   0.00000  Uiso   1.00
H32    H     0.21695   0.23491   0.38484   0.00000  Uiso   1.00
H33    H     0.23483   0.28790   0.03604   0.00000  Uiso   1.00
H34    H     0.09092   0.05056   0.46448   0.00000  Uiso   1.00
C35    C     0.18967   0.31843   0.24920   0.00000  Uiso   1.00
C36    C     0.14402   0.01477   0.24730   0.00000  Uiso   1.00
N37    N     0.31678   0.15265   0.23783   0.00000  Uiso   1.00
N38    N     0.01656   0.18068   0.26217   0.00000  Uiso   1.00
C39    C     0.21485   0.26004   0.11731   0.00000  Uiso   1.00
H40    H     0.20381   0.29847   0.10903   0.00000  Uiso   1.00
O41    O     0.24877   0.25553   0.14590   0.00000  Uiso   1.00
C42    C     0.10895   0.07945   0.38339   0.00000  Uiso   1.00
H43    H     0.06599   0.06525   0.39455   0.00000  Uiso   1.00
O44    O     0.13379   0.05805   0.35137   0.00000  Uiso   1.00
N45    N     0.23859   0.29756   0.44932   0.00000  Uiso   1.00
O46    O     0.28603   0.32086   0.46097   0.00000  Uiso   1.00
O47    O     0.20816   0.32002   0.42153   0.00000  Uiso   1.00
N48    N     0.08632   0.04106   0.05092   0.00000  Uiso   1.00
O49    O     0.03693   0.02025   0.04092   0.00000  Uiso   1.00
O50    O     0.11779   0.01585   0.07602   0.00000  Uiso   1.00
N51    N     0.24672   0.00520   0.25625   0.00000  Uiso   1.00
O52    O     0.28545   0.00630   0.22273   0.00000  Uiso   1.00
O53    O     0.26091   0.01772   0.29666   0.00000  Uiso   1.00
N54    N     0.08728   0.32795   0.23924   0.00000  Uiso   1.00
O55    O     0.04728   0.32795   0.27181   0.00000  Uiso   1.00
O56    O     0.07514   0.31234   0.19903   0.00000  Uiso   1.00
N57    N     0.00719   0.14195   0.19496   0.00000  Uiso   1.00
O58    O     0.00326   0.17460   0.16311   0.00000  Uiso   1.00
O59    O     0.02191   0.09543   0.18445   0.00000  Uiso   1.00
N60    N     0.32630   0.19106   0.30515   0.00000  Uiso   1.00
O61    O     0.33010   0.15798   0.33668   0.00000  Uiso   1.00
O62    O     0.31252   0.23774   0.31615   0.00000  Uiso   1.00
O63    O     0.46308   0.24619   0.25299   0.00000  Uiso   1.00
O64    O     0.53692   0.08714   0.24702   0.00000  Uiso   1.00
O65    O     0.55946   0.23721   0.24519   0.00000  Uiso   1.00
O66    O     0.44054   0.09613   0.25482   0.00000  Uiso   1.00
C67    C     0.51487   0.26450   0.24803   0.00000  Uiso   1.00
C68    C     0.48513   0.06876   0.25063   0.00000  Uiso   1.00
O69    O     0.45181   0.17117   0.31998   0.00000  Uiso   1.00
O70    O     0.54819   0.16216   0.18003   0.00000  Uiso   1.00
O71    O     0.54819   0.16219   0.31218   0.00000  Uiso   1.00
O72    O     0.45181   0.17115   0.18783   0.00000  Uiso   1.00
C73    C     0.50044   0.16556   0.33624   0.00000  Uiso   1.00
C74    C     0.49970   0.16869   0.16384   0.00000  Uiso   1.00
Zn75   Zn    0.43565   0.17266   0.25521   0.00000  Uiso   1.00
Zn76   Zn    0.56435   0.16067   0.24479   0.00000  Uiso   1.00
C77    C     0.47098   0.13009   0.09509   0.00000  Uiso   1.00
C78    C     0.52749   0.20536   0.40521   0.00000  Uiso   1.00
C79    C     0.49865   0.17135   0.11634   0.00000  Uiso   1.00
C80    C     0.50108   0.16347   0.38385   0.00000  Uiso   1.00
C81    C     0.52361   0.21412   0.09284   0.00000  Uiso   1.00
C82    C     0.47091   0.12338   0.40769   0.00000  Uiso   1.00
C83    C     0.52226   0.21346   0.04581   0.00000  Uiso   1.00
C84    C     0.46920   0.12545   0.45482   0.00000  Uiso   1.00
C85    C     0.49584   0.17018   0.02379   0.00000  Uiso   1.00
C86    C     0.49586   0.16860   0.47680   0.00000  Uiso   1.00
C87    C     0.47016   0.12813   0.04872   0.00000  Uiso   1.00
C88    C     0.52347   0.20968   0.45173   0.00000  Uiso   1.00
C89    C     0.54786   0.25442   0.02024   0.00000  Uiso   1.00
C90    C     0.44333   0.08461   0.48033   0.00000  Uiso   1.00
C91    C     0.54788   0.25341   0.47364   0.00000  Uiso   1.00
C92    C     0.44410   0.08518   0.02682   0.00000  Uiso   1.00
H93    H     0.45055   0.09939   0.11545   0.00000  Uiso   1.00
H94    H     0.55028   0.23491   0.38484   0.00000  Uiso   1.00
H95    H     0.56816   0.28790   0.03604   0.00000  Uiso   1.00
H96    H     0.42426   0.05056   0.46448   0.00000  Uiso   1.00
C97    C     0.52300   0.31843   0.24920   0.00000  Uiso   1.00
C98    C     0.47735   0.01477   0.24730   0.00000  Uiso   1.00
N99    N     0.65011   0.15265   0.23783   0.00000  Uiso   1.00
N100   N     0.34989   0.18068   0.26217   0.00000  Uiso   1.00
C101   C     0.54818   0.26004   0.11731   0.00000  Uiso   1.00
H102   H     0.53714   0.29847   0.10903   0.00000  Uiso   1.00
O103   O     0.58211   0.25553   0.14590   0.00000  Uiso   1.00
C104   C     0.44228   0.07945   0.38339   0.00000  Uiso   1.00
H105   H     0.39933   0.06525   0.39455   0.00000  Uiso   1.00
O106   O     0.46713   0.05805   0.35137   0.00000  Uiso   1.00
N107   N     0.57193   0.29756   0.44932   0.00000  Uiso   1.00
O108   O     0.61937   0.32086   0.46097   0.00000  Uiso   1.00
O109   O     0.54149   0.32002   0.42153   0.00000  Uiso   1.00
N110   N     0.41966   0.04106   0.05092   0.00000  Uiso   1.00
O111   O     0.37027   0.02025   0.04092   0.00000  Uiso   1.00
O112   O     0.45112   0.01585   0.07602   0.00000  Uiso   1.00
N113   N     0.58006   0.00520   0.25625   0.00000  Uiso   1.00
O114   O     0.61878   0.00630   0.22273   0.00000  Uiso   1.00
O115   O     0.59424   0.01772   0.29666   0.00000  Uiso   1.00
N116   N     0.42061   0.32795   0.23924   0.00000  Uiso   1.00
O117   O     0.38062   0.32795   0.27181   0.00000  Uiso   1.00
O118   O     0.40847   0.31234   0.19903   0.00000  Uiso   1.00
N119   N     0.34052   0.14195   0.19496   0.00000  Uiso   1.00
O120   O     0.33660   0.17460   0.16311   0.00000  Uiso   1.00
O121   O     0.35525   0.09543   0.18445   0.00000  Uiso   1.00
N122   N     0.65963   0.19106   0.30515   0.00000  Uiso   1.00
O123   O     0.66344   0.15798   0.33668   0.00000  Uiso   1.00
O124   O     0.64586   0.23774   0.31615   0.00000  Uiso   1.00
O125   O     0.79642   0.24619   0.25299   0.00000  Uiso   1.00
O126   O     0.87025   0.08714   0.24702   0.00000  Uiso   1.00
O127   O     0.89280   0.23721   0.24519   0.00000  Uiso   1.00
O128   O     0.77387   0.09613   0.25482   0.00000  Uiso   1.00
C129   C     0.84820   0.26450   0.24803   0.00000  Uiso   1.00
C130   C     0.81847   0.06876   0.25063   0.00000  Uiso   1.00
O131   O     0.78514   0.17117   0.31998   0.00000  Uiso   1.00
O132   O     0.88153   0.16216   0.18003   0.00000  Uiso   1.00
O133   O     0.88152   0.16219   0.31218   0.00000  Uiso   1.00
O134   O     0.78515   0.17115   0.18783   0.00000  Uiso   1.00
C135   C     0.83377   0.16556   0.33624   0.00000  Uiso   1.00
C136   C     0.83303   0.16869   0.16384   0.00000  Uiso   1.00
Zn137  Zn    0.76898   0.17266   0.25521   0.00000  Uiso   1.00
Zn138  Zn    0.89769   0.16067   0.24479   0.00000  Uiso   1.00
C139   C     0.80431   0.13009   0.09509   0.00000  Uiso   1.00
C140   C     0.86082   0.20536   0.40521   0.00000  Uiso   1.00
C141   C     0.83198   0.17135   0.11634   0.00000  Uiso   1.00
C142   C     0.83441   0.16347   0.38385   0.00000  Uiso   1.00
C143   C     0.85694   0.21412   0.09284   0.00000  Uiso   1.00
C144   C     0.80424   0.12338   0.40769   0.00000  Uiso   1.00
C145   C     0.85559   0.21346   0.04581   0.00000  Uiso   1.00
C146   C     0.80253   0.12545   0.45482   0.00000  Uiso   1.00
C147   C     0.82917   0.17018   0.02379   0.00000  Uiso   1.00
C148   C     0.82919   0.16860   0.47680   0.00000  Uiso   1.00
C149   C     0.80349   0.12813   0.04872   0.00000  Uiso   1.00
C150   C     0.85680   0.20968   0.45173   0.00000  Uiso   1.00
C151   C     0.88119   0.25442   0.02024   0.00000  Uiso   1.00
C152   C     0.77667   0.08461   0.48033   0.00000  Uiso   1.00
C153   C     0.88122   0.25341   0.47364   0.00000  Uiso   1.00
C154   C     0.77744   0.08518   0.02682   0.00000  Uiso   1.00
H155   H     0.78388   0.09939   0.11545   0.00000  Uiso   1.00
H156   H     0.88361   0.23491   0.38484   0.00000  Uiso   1.00
H157   H     0.90149   0.28790   0.03604   0.00000  Uiso   1.00
H158   H     0.75759   0.05056   0.46448   0.00000  Uiso   1.00
C159   C     0.85634   0.31843   0.24920   0.00000  Uiso   1.00
C160   C     0.81068   0.01477   0.24730   0.00000  Uiso   1.00
N161   N     0.98344   0.15265   0.23783   0.00000  Uiso   1.00
N162   N     0.68322   0.18068   0.26217   0.00000  Uiso   1.00
C163   C     0.88152   0.26004   0.11731   0.00000  Uiso   1.00
H164   H     0.87047   0.29847   0.10903   0.00000  Uiso   1.00
O165   O     0.91544   0.25553   0.14590   0.00000  Uiso   1.00
C166   C     0.77561   0.07945   0.38339   0.00000  Uiso   1.00
H167   H     0.73266   0.06525   0.39455   0.00000  Uiso   1.00
O168   O     0.80046   0.05805   0.35137   0.00000  Uiso   1.00
N169   N     0.90526   0.29756   0.44932   0.00000  Uiso   1.00
O170   O     0.95270   0.32086   0.46097   0.00000  Uiso   1.00
O171   O     0.87482   0.32002   0.42153   0.00000  Uiso   1.00
N172   N     0.75299   0.04106   0.05092   0.00000  Uiso   1.00
O173   O     0.70360   0.02025   0.04092   0.00000  Uiso   1.00
O174   O     0.78445   0.01585   0.07602   0.00000  Uiso   1.00
N175   N     0.91339   0.00520   0.25625   0.00000  Uiso   1.00
O176   O     0.95212   0.00630   0.22273   0.00000  Uiso   1.00
O177   O     0.92757   0.01772   0.29666   0.00000  Uiso   1.00
N178   N     0.75394   0.32795   0.23924   0.00000  Uiso   1.00
O179   O     0.71395   0.32795   0.27181   0.00000  Uiso   1.00
O180   O     0.74180   0.31234   0.19903   0.00000  Uiso   1.00
N181   N     0.67386   0.14195   0.19496   0.00000  Uiso   1.00
O182   O     0.66993   0.17460   0.16311   0.00000  Uiso   1.00
O183   O     0.68858   0.09543   0.18445   0.00000  Uiso   1.00
N184   N     0.99296   0.19106   0.30515   0.00000  Uiso   1.00
O185   O     0.99677   0.15798   0.33668   0.00000  Uiso   1.00
O186   O     0.97919   0.23774   0.31615   0.00000  Uiso   1.00
O187   O     0.12975   0.57952   0.25299   0.00000  Uiso   1.00
O188   O     0.20358   0.42048   0.24702   0.00000  Uiso   1.00
O189   O     0.22613   0.57054   0.24519   0.00000  Uiso   1.00
O190   O     0.10720   0.42946   0.25482   0.00000  Uiso   1.00
C191   C     0.18154   0.59783   0.24803   0.00000  Uiso   1.00
C192   C     0.15180   0.40209   0.25063   0.00000  Uiso   1.00
O193   O     0.11847   0.50450   0.31998   0.00000  Uiso   1.00
O194   O     0.21486   0.49550   0.18003   0.00000  Uiso   1.00
O195   O     0.21485   0.49552   0.31218   0.00000  Uiso   1.00
O196   O     0.11848   0.50448   0.18783   0.00000  Uiso   1.00
C197   C     0.16711   0.49890   0.33624   0.00000  Uiso   1.00
C198   C     0.16637   0.50203   0.16384   0.00000  Uiso   1.00
Zn199  Zn    0.10231   0.50600   0.25521   0.00000  Uiso   1.00
Zn200  Zn    0.23102   0.49400   0.24479   0.00000  Uiso   1.00
C201   C     0.13764   0.46343   0.09509   0.00000  Uiso   1.00
C202   C     0.19415   0.53870   0.40521   0.00000  Uiso   1.00
C203   C     0.16531   0.50468   0.11634   0.00000  Uiso   1.00
C204   C     0.16775   0.49680   0.38385   0.00000  Uiso   1.00
C205   C     0.19027   0.54745   0.09284   0.00000  Uiso   1.00
C206   C     0.13757   0.45672   0.40769   0.00000  Uiso   1.00
C207   C     0.18892   0.54679   0.04581   0.00000  Uiso   1.00
C208   C     0.13587   0.45879   0.45482   0.00000  Uiso   1.00
C209   C     0.16251   0.50351   0.02379   0.00000  Uiso   1.00
C210   C     0.16253   0.50193   0.47680   0.00000  Uiso   1.00
C211   C     0.13683   0.46146   0.04872   0.00000  Uiso   1.00
C212   C     0.19014   0.54301   0.45173   0.00000  Uiso   1.00
C213   C     0.21452   0.58775   0.02024   0.00000  Uiso   1.00
C214   C     0.11000   0.41794   0.48033   0.00000  Uiso   1.00
C215   C     0.21455   0.58674   0.47364   0.00000  Uiso   1.00
C216   C     0.11077   0.41851   0.02682   0.00000  Uiso   1.00
H217   H     0.11721   0.43272   0.11545   0.00000  Uiso   1.00
H218   H     0.21695   0.56825   0.38484   0.00000  Uiso   1.00
H219   H     0.23483   0.62124   0.03604   0.00000  Uiso   1.00
H220   H     0.09092   0.38389   0.46448   0.00000  Uiso   1.00
C221   C     0.18967   0.65177   0.24920   0.00000  Uiso   1.00
C222   C     0.14402   0.34811   0.24730   0.00000  Uiso   1.00
N223   N     0.31678   0.48598   0.23783   0.00000  Uiso   1.00
N224   N     0.01656   0.51402   0.26217   0.00000  Uiso   1.00
C225   C     0.21485   0.59338   0.11731   0.00000  Uiso   1.00
H226   H     0.20381   0.63180   0.10903   0.00000  Uiso   1.00
O227   O     0.24877   0.58887   0.14590   0.00000  Uiso   1.00
C228   C     0.10895   0.41278   0.38339   0.00000  Uiso   1.00
H229   H     0.06599   0.39858   0.39455   0.00000  Uiso   1.00
O230   O     0.13379   0.39138   0.35137   0.00000  Uiso   1.00
N231   N     0.23859   0.63090   0.44932   0.00000  Uiso   1.00
O232   O     0.28603   0.65420   0.46097   0.00000  Uiso   1.00
O233   O     0.20816   0.65335   0.42153   0.00000  Uiso   1.00
N234   N     0.08632   0.37439   0.05092   0.00000  Uiso   1.00
O235   O     0.03693   0.35359   0.04092   0.00000  Uiso   1.00
O236   O     0.11779   0.34919   0.07602   0.00000  Uiso   1.00
N237   N     0.24672   0.33853   0.25625   0.00000  Uiso   1.00
O238   O     0.28545   0.33964   0.22273   0.00000  Uiso   1.00
O239   O     0.26091   0.35106   0.29666   0.00000  Uiso   1.00
N240   N     0.08728   0.66129   0.23924   0.00000  Uiso   1.00
O241   O     0.04728   0.66129   0.27181   0.00000  Uiso   1.00
O242   O     0.07514   0.64567   0.19903   0.00000  Uiso   1.00
N243   N     0.00719   0.47529   0.19496   0.00000  Uiso   1.00
O244   O     0.00326   0.50793   0.16311   0.00000  Uiso   1.00
O245   O     0.02191   0.42876   0.18445   0.00000  Uiso   1.00
N246   N     0.32630   0.52439   0.30515   0.00000  Uiso   1.00
O247   O     0.33010   0.49131   0.33668   0.00000  Uiso   1.00
O248   O     0.31252   0.57107   0.31615   0.00000  Uiso   1.00
O249   O     0.46308   0.57952   0.25299   0.00000  Uiso   1.00
O250   O     0.53692   0.42048   0.24702   0.00000  Uiso   1.00
O251   O     0.55946   0.57054   0.24519   0.00000  Uiso   1.00
O252   O     0.44054   0.42946   0.25482   0.00000  Uiso   1.00
C253   C     0.51487   0.59783   0.24803   0.00000  Uiso   1.00
C254   C     0.48513   0.40209   0.25063   0.00000  Uiso   1.00
O255   O     0.45181   0.50450   0.31998   0.00000  Uiso   1.00
O256   O     0.54819   0.49550   0.18003   0.00000  Uiso   1.00
O257   O     0.54819   0.49552   0.31218   0.00000  Uiso   1.00
O258   O     0.45181   0.50448   0.18783   0.00000  Uiso   1.00
C259   C     0.50044   0.49890   0.33624   0.00000  Uiso   1.00
C260   C     0.49970   0.50203   0.16384   0.00000  Uiso   1.00
Zn261  Zn    0.43565   0.50600   0.25521   0.00000  Uiso   1.00
Zn262  Zn    0.56435   0.49400   0.24479   0.00000  Uiso   1.00
C263   C     0.47098   0.46343   0.09509   0.00000  Uiso   1.00
C264   C     0.52749   0.53870   0.40521   0.00000  Uiso   1.00
C265   C     0.49865   0.50468   0.11634   0.00000  Uiso   1.00
C266   C     0.50108   0.49680   0.38385   0.00000  Uiso   1.00
C267   C     0.52361   0.54745   0.09284   0.00000  Uiso   1.00
C268   C     0.47091   0.45672   0.40769   0.00000  Uiso   1.00
C269   C     0.52226   0.54679   0.04581   0.00000  Uiso   1.00
C270   C     0.46920   0.45879   0.45482   0.00000  Uiso   1.00
C271   C     0.49584   0.50351   0.02379   0.00000  Uiso   1.00
C272   C     0.49586   0.50193   0.47680   0.00000  Uiso   1.00
C273   C     0.47016   0.46146   0.04872   0.00000  Uiso   1.00
C274   C     0.52347   0.54301   0.45173   0.00000  Uiso   1.00
C275   C     0.54786   0.58775   0.02024   0.00000  Uiso   1.00
C276   C     0.44333   0.41794   0.48033   0.00000  Uiso   1.00
C277   C     0.54788   0.58674   0.47364   0.00000  Uiso   1.00
C278   C     0.44410   0.41851   0.02682   0.00000  Uiso   1.00
H279   H     0.45055   0.43272   0.11545   0.00000  Uiso   1.00
H280   H     0.55028   0.56825   0.38484   0.00000  Uiso   1.00
H281   H     0.56816   0.62124   0.03604   0.00000  Uiso   1.00
H282   H     0.42426   0.38389   0.46448   0.00000  Uiso   1.00
C283   C     0.52300   0.65177   0.24920   0.00000  Uiso   1.00
C284   C     0.47735   0.34811   0.24730   0.00000  Uiso   1.00
N285   N     0.65011   0.48598   0.23783   0.00000  Uiso   1.00
N286   N     0.34989   0.51402   0.26217   0.00000  Uiso   1.00
C287   C     0.54818   0.59338   0.11731   0.00000  Uiso   1.00
H288   H     0.53714   0.63180   0.10903   0.00000  Uiso   1.00
O289   O     0.58211   0.58887   0.14590   0.00000  Uiso   1.00
C290   C     0.44228   0.41278   0.38339   0.00000  Uiso   1.00
H291   H     0.39933   0.39858   0.39455   0.00000  Uiso   1.00
O292   O     0.46713   0.39138   0.35137   0.00000  Uiso   1.00
N293   N     0.57193   0.63090   0.44932   0.00000  Uiso   1.00
O294   O     0.61937   0.65420   0.46097   0.00000  Uiso   1.00
O295   O     0.54149   0.65335   0.42153   0.00000  Uiso   1.00
N296   N     0.41966   0.37439   0.05092   0.00000  Uiso   1.00
O297   O     0.37027   0.35359   0.04092   0.00000  Uiso   1.00
O298   O     0.45112   0.34919   0.07602   0.00000  Uiso   1.00
N299   N     0.58006   0.33853   0.25625   0.00000  Uiso   1.00
O300   O     0.61878   0.33964   0.22273   0.00000  Uiso   1.00
O301   O     0.59424   0.35106   0.29666   0.00000  Uiso   1.00
N302   N     0.42061   0.66129   0.23924   0.00000  Uiso   1.00
O303   O     0.38062   0.66129   0.27181   0.00000  Uiso   1.00
O304   O     0.40847   0.64567   0.19903   0.00000  Uiso   1.00
N305   N     0.34052   0.47529   0.19496   0.00000  Uiso   1.00
O306   O     0.33660   0.50793   0.16311   0.00000  Uiso   1.00
O307   O     0.35525   0.42876   0.18445   0.00000  Uiso   1.00
N308   N     0.65963   0.52439   0.30515   0.00000  Uiso   1.00
O309   O     0.66344   0.49131   0.33668   0.00000  Uiso   1.00
O310   O     0.64586   0.57107   0.31615   0.00000  Uiso   1.00
O311   O     0.79642   0.57952   0.25299   0.00000  Uiso   1.00
O312   O     0.87025   0.42048   0.24702   0.00000  Uiso   1.00
O313   O     0.89280   0.57054   0.24519   0.00000  Uiso   1.00
O314   O     0.77387   0.42946   0.25482   0.00000  Uiso   1.00
C315   C     0.84820   0.59783   0.24803   0.00000  Uiso   1.00
C316   C     0.81847   0.40209   0.25063   0.00000  Uiso   1.00
O317   O     0.78514   0.50450   0.31998   0.00000  Uiso   1.00
O318   O     0.88153   0.49550   0.18003   0.00000  Uiso   1.00
O319   O     0.88152   0.49552   0.31218   0.00000  Uiso   1.00
O320   O     0.78515   0.50448   0.18783   0.00000  Uiso   1.00
C321   C     0.83377   0.49890   0.33624   0.00000  Uiso   1.00
C322   C     0.83303   0.50203   0.16384   0.00000  Uiso   1.00
Zn323  Zn    0.76898   0.50600   0.25521   0.00000  Uiso   1.00
Zn324  Zn    0.89769   0.49400   0.24479   0.00000  Uiso   1.00
C325   C     0.80431   0.46343   0.09509   0.00000  Uiso   1.00
C326   C     0.86082   0.53870   0.40521   0.00000  Uiso   1.00
C327   C     0.83198   0.50468   0.11634   0.00000  Uiso   1.00
C328   C     0.83441   0.49680   0.38385   0.00000  Uiso   1.00
C329   C     0.85694   0.54745   0.09284   0.00000  Uiso   1.00
C330   C     0.80424   0.45672   0.40769   0.00000  Uiso   1.00
C331   C     0.85559   0.54679   0.04581   0.00000  Uiso   1.00
C332   C     0.80253   0.45879   0.45482   0.00000  Uiso   1.00
C333   C     0.82917   0.50351   0.02379   0.00000  Uiso   1.00
C334   C     0.82919   0.50193   0.47680   0.00000  Uiso   1.00
C335   C     0.80349   0.46146   0.04872   0.00000  Uiso   1.00
C336   C     0.85680   0.54301   0.45173   0.00000  Uiso   1.00
C337   C     0.88119   0.58775   0.02024   0.00000  Uiso   1.00
C338   C     0.77667   0.41794   0.48033   0.00000  Uiso   1.00
C339   C     0.88122   0.58674   0.47364   0.00000  Uiso   1.00
C340   C     0.77744   0.41851   0.02682   0.00000  Uiso   1.00
H341   H     0.78388   0.43272   0.11545   0.00000  Uiso   1.00
H342   H     0.88361   0.56825   0.38484   0.00000  Uiso   1.00
H343   H     0.90149   0.62124   0.03604   0.00000  Uiso   1.00
H344   H     0.75759   0.38389   0.46448   0.00000  Uiso   1.00
C345   C     0.85634   0.65177   0.24920   0.00000  Uiso   1.00
C346   C     0.81068   0.34811   0.24730   0.00000  Uiso   1.00
N347   N     0.98344   0.48598   0.23783   0.00000  Uiso   1.00
N348   N     0.68322   0.51402   0.26217   0.00000  Uiso   1.00
C349   C     0.88152   0.59338   0.11731   0.00000  Uiso   1.00
H350   H     0.87047   0.63180   0.10903   0.00000  Uiso   1.00
O351   O     0.91544   0.58887   0.14590   0.00000  Uiso   1.00
C352   C     0.77561   0.41278   0.38339   0.00000  Uiso   1.00
H353   H     0.73266   0.39858   0.39455   0.00000  Uiso   1.00
O354   O     0.80046   0.39138   0.35137   0.00000  Uiso   1.00
N355   N     0.90526   0.63090   0.44932   0.00000  Uiso   1.00
O356   O     0.95270   0.65420   0.46097   0.00000  Uiso   1.00
O357   O     0.87482   0.65335   0.42153   0.00000  Uiso   1.00
N358   N     0.75299   0.37439   0.05092   0.00000  Uiso   1.00
O359   O     0.70360   0.35359   0.04092   0.00000  Uiso   1.00
O360   O     0.78445   0.34919   0.07602   0.00000  Uiso   1.00
N361   N     0.91339   0.33853   0.25625   0.00000  Uiso   1.00
O362   O     0.95212   0.33964   0.22273   0.00000  Uiso   1.00
O363   O     0.92757   0.35106   0.29666   0.00000  Uiso   1.00
N364   N     0.75394   0.66129   0.23924   0.00000  Uiso   1.00
O365   O     0.71395   0.66129   0.27181   0.00000  Uiso   1.00
O366   O     0.74180   0.64567   0.19903   0.00000  Uiso   1.00
N367   N     0.67386   0.47529   0.19496   0.00000  Uiso   1.00
O368   O     0.66993   0.50793   0.16311   0.00000  Uiso   1.00
O369   O     0.68858   0.42876   0.18445   0.00000  Uiso   1.00
N370   N     0.99296   0.52439   0.30515   0.00000  Uiso   1.00
O371   O     0.99677   0.49131   0.33668   0.00000  Uiso   1.00
O372   O     0.97919   0.57107   0.31615   0.00000  Uiso   1.00
O373   O     0.12975   0.91286   0.25299   0.00000  Uiso   1.00
O374   O     0.20358   0.75381   0.24702   0.00000  Uiso   1.00
O375   O     0.22613   0.90387   0.24519   0.00000  Uiso   1.00
O376   O     0.10720   0.76279   0.25482   0.00000  Uiso   1.00
C377   C     0.18154   0.93116   0.24803   0.00000  Uiso   1.00
C378   C     0.15180   0.73543   0.25063   0.00000  Uiso   1.00
O379   O     0.11847   0.83784   0.31998   0.00000  Uiso   1.00
O380   O     0.21486   0.82883   0.18003   0.00000  Uiso   1.00
O381   O     0.21485   0.82885   0.31218   0.00000  Uiso   1.00
O382   O     0.11848   0.83781   0.18783   0.00000  Uiso   1.00
C383   C     0.16711   0.83223   0.33624   0.00000  Uiso   1.00
C384   C     0.16637   0.83536   0.16384   0.00000  Uiso   1.00
Zn385  Zn    0.10231   0.83933   0.25521   0.00000  Uiso   1.00
Zn386  Zn    0.23102   0.82734   0.24479   0.00000  Uiso   1.00
C387   C     0.13764   0.79676   0.09509   0.00000  Uiso   1.00
C388   C     0.19415   0.87203   0.40521   0.00000  Uiso   1.00
C389   C     0.16531   0.83802   0.11634   0.00000  Uiso   1.00
C390   C     0.16775   0.83014   0.38385   0.00000  Uiso   1.00
C391   C     0.19027   0.88078   0.09284   0.00000  Uiso   1.00
C392   C     0.13757   0.79005   0.40769   0.00000  Uiso   1.00
C393   C     0.18892   0.88013   0.04581   0.00000  Uiso   1.00
C394   C     0.13587   0.79212   0.45482   0.00000  Uiso   1.00
C395   C     0.16251   0.83685   0.02379   0.00000  Uiso   1.00
C396   C     0.16253   0.83526   0.47680   0.00000  Uiso   1.00
C397   C     0.13683   0.79480   0.04872   0.00000  Uiso   1.00
C398   C     0.19014   0.87635   0.45173   0.00000  Uiso   1.00
C399   C     0.21452   0.92108   0.02024   0.00000  Uiso   1.00
C400   C     0.11000   0.75127   0.48033   0.00000  Uiso   1.00
C401   C     0.21455   0.92008   0.47364   0.00000  Uiso   1.00
C402   C     0.11077   0.75185   0.02682   0.00000  Uiso   1.00
H403   H     0.11721   0.76606   0.11545   0.00000  Uiso   1.00
H404   H     0.21695   0.90158   0.38484   0.00000  Uiso   1.00
H405   H     0.23483   0.95457   0.03604   0.00000  Uiso   1.00
H406   H     0.09092   0.71723   0.46448   0.00000  Uiso   1.00
C407   C     0.18967   0.98510   0.24920   0.00000  Uiso   1.00
C408   C     0.14402   0.68144   0.24730   0.00000  Uiso   1.00
N409   N     0.31678   0.81932   0.23783   0.00000  Uiso   1.00
N410   N     0.01656   0.84735   0.26217   0.00000  Uiso   1.00
C411   C     0.21485   0.92671   0.11731   0.00000  Uiso   1.00
H412   H     0.20381   0.96513   0.10903   0.00000  Uiso   1.00
O413   O     0.24877   0.92220   0.14590   0.00000  Uiso   1.00
C414   C     0.10895   0.74612   0.38339   0.00000  Uiso   1.00
H415   H     0.06599   0.73192   0.39455   0.00000  Uiso   1.00
O416   O     0.13379   0.72471   0.35137   0.00000  Uiso   1.00
N417   N     0.23859   0.96423   0.44932   0.00000  Uiso   1.00
O418   O     0.28603   0.98753   0.46097   0.00000  Uiso   1.00
O419   O     0.20816   0.98669   0.42153   0.00000  Uiso   1.00
N420   N     0.08632   0.70772   0.05092   0.00000  Uiso   1.00
O421   O     0.03693   0.68692   0.04092   0.00000  Uiso   1.00
O422   O     0.11779   0.68252   0.07602   0.00000  Uiso   1.00
N423   N     0.24672   0.67186   0.25625   0.00000  Uiso   1.00
O424   O     0.28545   0.67297   0.22273   0.00000  Uiso   1.00
O425   O     0.26091   0.68439   0.29666   0.00000  Uiso   1.00
N426   N     0.08728   0.99462   0.23924   0.00000  Uiso   1.00
O427   O     0.04728   0.99462   0.27181   0.00000  Uiso   1.00
O428   O     0.07514   0.97900   0.19903   0.00000  Uiso   1.00
N429   N     0.00719   0.80862   0.19496   0.00000  Uiso   1.00
O430   O     0.00326   0.84127   0.16311   0.00000  Uiso   1.00
O431   O     0.02191   0.76209   0.18445   0.00000  Uiso   1.00
N432   N     0.32630   0.85773   0.30515   0.00000  Uiso   1.00
O433   O     0.33010   0.82465   0.33668   0.00000  Uiso   1.00
O434   O     0.31252   0.90440   0.31615   0.00000  Uiso   1.00
O435   O     0.46308   0.91286   0.25299   0.00000  Uiso   1.00
O436   O     0.53692   0.75381   0.24702   0.00000  Uiso   1.00
O437   O     0.55946   0.90387   0.24519   0.00000  Uiso   1.00
O438   O     0.44054   0.76279   0.25482   0.00000  Uiso   1.00
C439   C     0.51487   0.93116   0.24803   0.00000  Uiso   1.00
C440   C     0.48513   0.73543   0.25063   0.00000  Uiso   1.00
O441   O     0.45181   0.83784   0.31998   0.00000  Uiso   1.00
O442   O     0.54819   0.82883   0.18003   0.00000  Uiso   1.00
O443   O     0.54819   0.82885   0.31218   0.00000  Uiso   1.00
O444   O     0.45181   0.83781   0.18783   0.00000  Uiso   1.00
C445   C     0.50044   0.83223   0.33624   0.00000  Uiso   1.00
C446   C     0.49970   0.83536   0.16384   0.00000  Uiso   1.00
Zn447  Zn    0.43565   0.83933   0.25521   0.00000  Uiso   1.00
Zn448  Zn    0.56435   0.82734   0.24479   0.00000  Uiso   1.00
C449   C     0.47098   0.79676   0.09509   0.00000  Uiso   1.00
C450   C     0.52749   0.87203   0.40521   0.00000  Uiso   1.00
C451   C     0.49865   0.83802   0.11634   0.00000  Uiso   1.00
C452   C     0.50108   0.83014   0.38385   0.00000  Uiso   1.00
C453   C     0.52361   0.88078   0.09284   0.00000  Uiso   1.00
C454   C     0.47091   0.79005   0.40769   0.00000  Uiso   1.00
C455   C     0.52226   0.88013   0.04581   0.00000  Uiso   1.00
C456   C     0.46920   0.79212   0.45482   0.00000  Uiso   1.00
C457   C     0.49584   0.83685   0.02379   0.00000  Uiso   1.00
C458   C     0.49586   0.83526   0.47680   0.00000  Uiso   1.00
C459   C     0.47016   0.79480   0.04872   0.00000  Uiso   1.00
C460   C     0.52347   0.87635   0.45173   0.00000  Uiso   1.00
C461   C     0.54786   0.92108   0.02024   0.00000  Uiso   1.00
C462   C     0.44333   0.75127   0.48033   0.00000  Uiso   1.00
C463   C     0.54788   0.92008   0.47364   0.00000  Uiso   1.00
C464   C     0.44410   0.75185   0.02682   0.00000  Uiso   1.00
H465   H     0.45055   0.76606   0.11545   0.00000  Uiso   1.00
H466   H     0.55028   0.90158   0.38484   0.00000  Uiso   1.00
H467   H     0.56816   0.95457   0.03604   0.00000  Uiso   1.00
H468   H     0.42426   0.71723   0.46448   0.00000  Uiso   1.00
C469   C     0.52300   0.98510   0.24920   0.00000  Uiso   1.00
C470   C     0.47735   0.68144   0.24730   0.00000  Uiso   1.00
N471   N     0.65011   0.81932   0.23783   0.00000  Uiso   1.00
N472   N     0.34989   0.84735   0.26217   0.00000  Uiso   1.00
C473   C     0.54818   0.92671   0.11731   0.00000  Uiso   1.00
H474   H     0.53714   0.96513   0.10903   0.00000  Uiso   1.00
O475   O     0.58211   0.92220   0.14590   0.00000  Uiso   1.00
C476   C     0.44228   0.74612   0.38339   0.00000  Uiso   1.00
H477   H     0.39933   0.73192   0.39455   0.00000  Uiso   1.00
O478   O     0.46713   0.72471   0.35137   0.00000  Uiso   1.00
N479   N     0.57193   0.96423   0.44932   0.00000  Uiso   1.00
O480   O     0.61937   0.98753   0.46097   0.00000  Uiso   1.00
O481   O     0.54149   0.98669   0.42153   0.00000  Uiso   1.00
N482   N     0.41966   0.70772   0.05092   0.00000  Uiso   1.00
O483   O     0.37027   0.68692   0.04092   0.00000  Uiso   1.00
O484   O     0.45112   0.68252   0.07602   0.00000  Uiso   1.00
N485   N     0.58006   0.67186   0.25625   0.00000  Uiso   1.00
O486   O     0.61878   0.67297   0.22273   0.00000  Uiso   1.00
O487   O     0.59424   0.68439   0.29666   0.00000  Uiso   1.00
N488   N     0.42061   0.99462   0.23924   0.00000  Uiso   1.00
O489   O     0.38062   0.99462   0.27181   0.00000  Uiso   1.00
O490   O     0.40847   0.97900   0.19903   0.00000  Uiso   1.00
N491   N     0.34052   0.80862   0.19496   0.00000  Uiso   1.00
O492   O     0.33660   0.84127   0.16311   0.00000  Uiso   1.00
O493   O     0.35525   0.76209   0.18445   0.00000  Uiso   1.00
N494   N     0.65963   0.85773   0.30515   0.00000  Uiso   1.00
O495   O     0.66344   0.82465   0.33668   0.00000  Uiso   1.00
O496   O     0.64586   0.90440   0.31615   0.00000  Uiso   1.00
O497   O     0.79642   0.91286   0.25299   0.00000  Uiso   1.00
O498   O     0.87025   0.75381   0.24702   0.00000  Uiso   1.00
O499   O     0.89280   0.90387   0.24519   0.00000  Uiso   1.00
O500   O     0.77387   0.76279   0.25482   0.00000  Uiso   1.00
C501   C     0.84820   0.93116   0.24803   0.00000  Uiso   1.00
C502   C     0.81847   0.73543   0.25063   0.00000  Uiso   1.00
O503   O     0.78514   0.83784   0.31998   0.00000  Uiso   1.00
O504   O     0.88153   0.82883   0.18003   0.00000  Uiso   1.00
O505   O     0.88152   0.82885   0.31218   0.00000  Uiso   1.00
O506   O     0.78515   0.83781   0.18783   0.00000  Uiso   1.00
C507   C     0.83377   0.83223   0.33624   0.00000  Uiso   1.00
C508   C     0.83303   0.83536   0.16384   0.00000  Uiso   1.00
Zn509  Zn    0.76898   0.83933   0.25521   0.00000  Uiso   1.00
Zn510  Zn    0.89769   0.82734   0.24479   0.00000  Uiso   1.00
C511   C     0.80431   0.79676   0.09509   0.00000  Uiso   1.00
C512   C     0.86082   0.87203   0.40521   0.00000  Uiso   1.00
C513   C     0.83198   0.83802   0.11634   0.00000  Uiso   1.00
C514   C     0.83441   0.83014   0.38385   0.00000  Uiso   1.00
C515   C     0.85694   0.88078   0.09284   0.00000  Uiso   1.00
C516   C     0.80424   0.79005   0.40769   0.00000  Uiso   1.00
C517   C     0.85559   0.88013   0.04581   0.00000  Uiso   1.00
C518   C     0.80253   0.79212   0.45482   0.00000  Uiso   1.00
C519   C     0.82917   0.83685   0.02379   0.00000  Uiso   1.00
C520   C     0.82919   0.83526   0.47680   0.00000  Uiso   1.00
C521   C     0.80349   0.79480   0.04872   0.00000  Uiso   1.00
C522   C     0.85680   0.87635   0.45173   0.00000  Uiso   1.00
C523   C     0.88119   0.92108   0.02024   0.00000  Uiso   1.00
C524   C     0.77667   0.75127   0.48033   0.00000  Uiso   1.00
C525   C     0.88122   0.92008   0.47364   0.00000  Uiso   1.00
C526   C     0.77744   0.75185   0.02682   0.00000  Uiso   1.00
H527   H     0.78388   0.76606   0.11545   0.00000  Uiso   1.00
H528   H     0.88361   0.90158   0.38484   0.00000  Uiso   1.00
H529   H     0.90149   0.95457   0.03604   0.00000  Uiso   1.00
H530   H     0.75759   0.71723   0.46448   0.00000  Uiso   1.00
C531   C     0.85634   0.98510   0.24920   0.00000  Uiso   1.00
C532   C     0.81068   0.68144   0.24730   0.00000  Uiso   1.00
N533   N     0.98344   0.81932   0.23783   0.00000  Uiso   1.00
N534   N     0.68322   0.84735   0.26217   0.00000  Uiso   1.00
C535   C     0.88152   0.92671   0.11731   0.00000  Uiso   1.00
H536   H     0.87047   0.96513   0.10903   0.00000  Uiso   1.00
O537   O     0.91544   0.92220   0.14590   0.00000  Uiso   1.00
C538   C     0.77561   0.74612   0.38339   0.00000  Uiso   1.00
H539   H     0.73266   0.73192   0.39455   0.00000  Uiso   1.00
O540   O     0.80046   0.72471   0.35137   0.00000  Uiso   1.00
N541   N     0.90526   0.96423   0.44932   0.00000  Uiso   1.00
O542   O     0.95270   0.98753   0.46097   0.00000  Uiso   1.00
O543   O     0.87482   0.98669   0.42153   0.00000  Uiso   1.00
N544   N     0.75299   0.70772   0.05092   0.00000  Uiso   1.00
O545   O     0.70360   0.68692   0.04092   0.00000  Uiso   1.00
O546   O     0.78445   0.68252   0.07602   0.00000  Uiso   1.00
N547   N     0.91339   0.67186   0.25625   0.00000  Uiso   1.00
O548   O     0.95212   0.67297   0.22273   0.00000  Uiso   1.00
O549   O     0.92757   0.68439   0.29666   0.00000  Uiso   1.00
N550   N     0.75394   0.99462   0.23924   0.00000  Uiso   1.00
O551   O     0.71395   0.99462   0.27181   0.00000  Uiso   1.00
O552   O     0.74180   0.97900   0.19903   0.00000  Uiso   1.00
N553   N     0.67386   0.80862   0.19496   0.00000  Uiso   1.00
O554   O     0.66993   0.84127   0.16311   0.00000  Uiso   1.00
O555   O     0.68858   0.76209   0.18445   0.00000  Uiso   1.00
N556   N     0.99296   0.85773   0.30515   0.00000  Uiso   1.00
O557   O     0.99677   0.82465   0.33668   0.00000  Uiso   1.00
O558   O     0.97919   0.90440   0.31615   0.00000  Uiso   1.00
O559   O     0.12975   0.24619   0.75299   0.00000  Uiso   1.00
O560   O     0.20358   0.08714   0.74702   0.00000  Uiso   1.00
O561   O     0.22613   0.23721   0.74519   0.00000  Uiso   1.00
O562   O     0.10720   0.09613   0.75482   0.00000  Uiso   1.00
C563   C     0.18154   0.26450   0.74803   0.00000  Uiso   1.00
C564   C     0.15180   0.06876   0.75063   0.00000  Uiso   1.00
O565   O     0.11847   0.17117   0.81998   0.00000  Uiso   1.00
O566   O     0.21486   0.16216   0.68003   0.00000  Uiso   1.00
O567   O     0.21485   0.16219   0.81218   0.00000  Uiso   1.00
O568   O     0.11848   0.17115   0.68783   0.00000  Uiso   1.00
C569   C     0.16711   0.16556   0.83624   0.00000  Uiso   1.00
C570   C     0.16637   0.16869   0.66384   0.00000  Uiso   1.00
Zn571  Zn    0.10231   0.17266   0.75521   0.00000  Uiso   1.00
Zn572  Zn    0.23102   0.16067   0.74479   0.00000  Uiso   1.00
C573   C     0.13764   0.13009   0.59509   0.00000  Uiso   1.00
C574   C     0.19415   0.20536   0.90521   0.00000  Uiso   1.00
C575   C     0.16531   0.17135   0.61634   0.00000  Uiso   1.00
C576   C     0.16775   0.16347   0.88385   0.00000  Uiso   1.00
C577   C     0.19027   0.21412   0.59284   0.00000  Uiso   1.00
C578   C     0.13757   0.12338   0.90769   0.00000  Uiso   1.00
C579   C     0.18892   0.21346   0.54581   0.00000  Uiso   1.00
C580   C     0.13587   0.12545   0.95482   0.00000  Uiso   1.00
C581   C     0.16251   0.17018   0.52379   0.00000  Uiso   1.00
C582   C     0.16253   0.16860   0.97680   0.00000  Uiso   1.00
C583   C     0.13683   0.12813   0.54872   0.00000  Uiso   1.00
C584   C     0.19014   0.20968   0.95173   0.00000  Uiso   1.00
C585   C     0.21452   0.25442   0.52024   0.00000  Uiso   1.00
C586   C     0.11000   0.08461   0.98033   0.00000  Uiso   1.00
C587   C     0.21455   0.25341   0.97364   0.00000  Uiso   1.00
C588   C     0.11077   0.08518   0.52682   0.00000  Uiso   1.00
H589   H     0.11721   0.09939   0.61545   0.00000  Uiso   1.00
H590   H     0.21695   0.23491   0.88484   0.00000  Uiso   1.00
H591   H     0.23483   0.28790   0.53604   0.00000  Uiso   1.00
H592   H     0.09092   0.05056   0.96448   0.00000  Uiso   1.00
C593   C     0.18967   0.31843   0.74920   0.00000  Uiso   1.00
C594   C     0.14402   0.01477   0.74730   0.00000  Uiso   1.00
N595   N     0.31678   0.15265   0.73783   0.00000  Uiso   1.00
N596   N     0.01656   0.18068   0.76217   0.00000  Uiso   1.00
C597   C     0.21485   0.26004   0.61731   0.00000  Uiso   1.00
H598   H     0.20381   0.29847   0.60903   0.00000  Uiso   1.00
O599   O     0.24877   0.25553   0.64590   0.00000  Uiso   1.00
C600   C     0.10895   0.07945   0.88339   0.00000  Uiso   1.00
H601   H     0.06599   0.06525   0.89455   0.00000  Uiso   1.00
O602   O     0.13379   0.05805   0.85137   0.00000  Uiso   1.00
N603   N     0.23859   0.29756   0.94932   0.00000  Uiso   1.00
O604   O     0.28603   0.32086   0.96097   0.00000  Uiso   1.00
O605   O     0.20816   0.32002   0.92153   0.00000  Uiso   1.00
N606   N     0.08632   0.04106   0.55092   0.00000  Uiso   1.00
O607   O     0.03693   0.02025   0.54092   0.00000  Uiso   1.00
O608   O     0.11779   0.01585   0.57602   0.00000  Uiso   1.00
N609   N     0.24672   0.00520   0.75625   0.00000  Uiso   1.00
O610   O     0.28545   0.00630   0.72273   0.00000  Uiso   1.00
O611   O     0.26091   0.01772   0.79666   0.00000  Uiso   1.00
N612   N     0.08728   0.32795   0.73924   0.00000  Uiso   1.00
O613   O     0.04728   0.32795   0.77181   0.00000  Uiso   1.00
O614   O     0.07514   0.31234   0.69903   0.00000  Uiso   1.00
N615   N     0.00719   0.14195   0.69496   0.00000  Uiso   1.00
O616   O     0.00326   0.17460   0.66311   0.00000  Uiso   1.00
O617   O     0.02191   0.09543   0.68445   0.00000  Uiso   1.00
N618   N     0.32630   0.19106   0.80515   0.00000  Uiso   1.00
O619   O     0.33010   0.15798   0.83668   0.00000  Uiso   1.00
O620   O     0.31252   0.23774   0.81615   0.00000  Uiso   1.00
O621   O     0.46308   0.24619   0.75299   0.00000  Uiso   1.00
O622   O     0.53692   0.08714   0.74702   0.00000  Uiso   1.00
O623   O     0.55946   0.23721   0.74519   0.00000  Uiso   1.00
O624   O     0.44054   0.09613   0.75482   0.00000  Uiso   1.00
C625   C     0.51487   0.26450   0.74803   0.00000  Uiso   1.00
C626   C     0.48513   0.06876   0.75063   0.00000  Uiso   1.00
O627   O     0.45181   0.17117   0.81998   0.00000  Uiso   1.00
O628   O     0.54819   0.16216   0.68003   0.00000  Uiso   1.00
O629   O     0.54819   0.16219   0.81218   0.00000  Uiso   1.00
O630   O     0.45181   0.17115   0.68783   0.00000  Uiso   1.00
C631   C     0.50044   0.16556   0.83624   0.00000  Uiso   1.00
C632   C     0.49970   0.16869   0.66384   0.00000  Uiso   1.00
Zn633  Zn    0.43565   0.17266   0.75521   0.00000  Uiso   1.00
Zn634  Zn    0.56435   0.16067   0.74479   0.00000  Uiso   1.00
C635   C     0.47098   0.13009   0.59509   0.00000  Uiso   1.00
C636   C     0.52749   0.20536   0.90521   0.00000  Uiso   1.00
C637   C     0.49865   0.17135   0.61634   0.00000  Uiso   1.00
C638   C     0.50108   0.16347   0.88385   0.00000  Uiso   1.00
C639   C     0.52361   0.21412   0.59284   0.00000  Uiso   1.00
C640   C     0.47091   0.12338   0.90769   0.00000  Uiso   1.00
C641   C     0.52226   0.21346   0.54581   0.00000  Uiso   1.00
C642   C     0.46920   0.12545   0.95482   0.00000  Uiso   1.00
C643   C     0.49584   0.17018   0.52379   0.00000  Uiso   1.00
C644   C     0.49586   0.16860   0.97680   0.00000  Uiso   1.00
C645   C     0.47016   0.12813   0.54872   0.00000  Uiso   1.00
C646   C     0.52347   0.20968   0.95173   0.00000  Uiso   1.00
C647   C     0.54786   0.25442   0.52024   0.00000  Uiso   1.00
C648   C     0.44333   0.08461   0.98033   0.00000  Uiso   1.00
C649   C     0.54788   0.25341   0.97364   0.00000  Uiso   1.00
C650   C     0.44410   0.08518   0.52682   0.00000  Uiso   1.00
H651   H     0.45055   0.09939   0.61545   0.00000  Uiso   1.00
H652   H     0.55028   0.23491   0.88484   0.00000  Uiso   1.00
H653   H     0.56816   0.28790   0.53604   0.00000  Uiso   1.00
H654   H     0.42426   0.05056   0.96448   0.00000  Uiso   1.00
C655   C     0.52300   0.31843   0.74920   0.00000  Uiso   1.00
C656   C     0.47735   0.01477   0.74730   0.00000  Uiso   1.00
N657   N     0.65011   0.15265   0.73783   0.00000  Uiso   1.00
N658   N     0.34989   0.18068   0.76217   0.00000  Uiso   1.00
C659   C     0.54818   0.26004   0.61731   0.00000  Uiso   1.00
H660   H     0.53714   0.29847   0.60903   0.00000  Uiso   1.00
O661   O     0.58211   0.25553   0.64590   0.00000  Uiso   1.00
C662   C     0.44228   0.07945   0.88339   0.00000  Uiso   1.00
H663   H     0.39933   0.06525   0.89455   0.00000  Uiso   1.00
O664   O     0.46713   0.05805   0.85137   0.00000  Uiso   1.00
N665   N     0.57193   0.29756   0.94932   0.00000  Uiso   1.00
O666   O     0.61937   0.32086   0.96097   0.00000  Uiso   1.00
O667   O     0.54149   0.32002   0.92153   0.00000  Uiso   1.00
N668   N     0.41966   0.04106   0.55092   0.00000  Uiso   1.00
O669   O     0.37027   0.02025   0.54092   0.00000  Uiso   1.00
O670   O     0.45112   0.01585   0.57602   0.00000  Uiso   1.00
N671   N     0.58006   0.00520   0.75625   0.00000  Uiso   1.00
O672   O     0.61878   0.00630   0.72273   0.00000  Uiso   1.00
O673   O     0.59424   0.01772   0.79666   0.00000  Uiso   1.00
N674   N     0.42061   0.32795   0.73924   0.00000  Uiso   1.00
O675   O     0.38062   0.32795   0.77181   0.00000  Uiso   1.00
O676   O     0.40847   0.31234   0.69903   0.00000  Uiso   1.00
N677   N     0.34052   0.14195   0.69496   0.00000  Uiso   1.00
O678   O     0.33660   0.17460   0.66311   0.00000  Uiso   1.00
O679   O     0.35525   0.09543   0.68445   0.00000  Uiso   1.00
N680   N     0.65963   0.19106   0.80515   0.00000  Uiso   1.00
O681   O     0.66344   0.15798   0.83668   0.00000  Uiso   1.00
O682   O     0.64586   0.23774   0.81615   0.00000  Uiso   1.00
O683   O     0.79642   0.24619   0.75299   0.00000  Uiso   1.00
O684   O     0.87025   0.08714   0.74702   0.00000  Uiso   1.00
O685   O     0.89280   0.23721   0.74519   0.00000  Uiso   1.00
O686   O     0.77387   0.09613   0.75482   0.00000  Uiso   1.00
C687   C     0.84820   0.26450   0.74803   0.00000  Uiso   1.00
C688   C     0.81847   0.06876   0.75063   0.00000  Uiso   1.00
O689   O     0.78514   0.17117   0.81998   0.00000  Uiso   1.00
O690   O     0.88153   0.16216   0.68003   0.00000  Uiso   1.00
O691   O     0.88152   0.16219   0.81218   0.00000  Uiso   1.00
O692   O     0.78515   0.17115   0.68783   0.00000  Uiso   1.00
C693   C     0.83377   0.16556   0.83624   0.00000  Uiso   1.00
C694   C     0.83303   0.16869   0.66384   0.00000  Uiso   1.00
Zn695  Zn    0.76898   0.17266   0.75521   0.00000  Uiso   1.00
Zn696  Zn    0.89769   0.16067   0.74479   0.00000  Uiso   1.00
C697   C     0.80431   0.13009   0.59509   0.00000  Uiso   1.00
C698   C     0.86082   0.20536   0.90521   0.00000  Uiso   1.00
C699   C     0.83198   0.17135   0.61634   0.00000  Uiso   1.00
C700   C     0.83441   0.16347   0.88385   0.00000  Uiso   1.00
C701   C     0.85694   0.21412   0.59284   0.00000  Uiso   1.00
C702   C     0.80424   0.12338   0.90769   0.00000  Uiso   1.00
C703   C     0.85559   0.21346   0.54581   0.00000  Uiso   1.00
C704   C     0.80253   0.12545   0.95482   0.00000  Uiso   1.00
C705   C     0.82917   0.17018   0.52379   0.00000  Uiso   1.00
C706   C     0.82919   0.16860   0.97680   0.00000  Uiso   1.00
C707   C     0.80349   0.12813   0.54872   0.00000  Uiso   1.00
C708   C     0.85680   0.20968   0.95173   0.00000  Uiso   1.00
C709   C     0.88119   0.25442   0.52024   0.00000  Uiso   1.00
C710   C     0.77667   0.08461   0.98033   0.00000  Uiso   1.00
C711   C     0.88122   0.25341   0.97364   0.00000  Uiso   1.00
C712   C     0.77744   0.08518   0.52682   0.00000  Uiso   1.00
H713   H     0.78388   0.09939   0.61545   0.00000  Uiso   1.00
H714   H     0.88361   0.23491   0.88484   0.00000  Uiso   1.00
H715   H     0.90149   0.28790   0.53604   0.00000  Uiso   1.00
H716   H     0.75759   0.05056   0.96448   0.00000  Uiso   1.00
C717   C     0.85634   0.31843   0.74920   0.00000  Uiso   1.00
C718   C     0.81068   0.01477   0.74730   0.00000  Uiso   1.00
N719   N     0.98344   0.15265   0.73783   0.00000  Uiso   1.00
N720   N     0.68322   0.18068   0.76217   0.00000  Uiso   1.00
C721   C     0.88152   0.26004   0.61731   0.00000  Uiso   1.00
H722   H     0.87047   0.29847   0.60903   0.00000  Uiso   1.00
O723   O     0.91544   0.25553   0.64590   0.00000  Uiso   1.00
C724   C     0.77561   0.07945   0.88339   0.00000  Uiso   1.00
H725   H     0.73266   0.06525   0.89455   0.00000  Uiso   1.00
O726   O     0.80046   0.05805   0.85137   0.00000  Uiso   1.00
N727   N     0.90526   0.29756   0.94932   0.00000  Uiso   1.00
O728   O     0.95270   0.32086   0.96097   0.00000  Uiso   1.00
O729   O     0.87482   0.32002   0.92153   0.00000  Uiso   1.00
N730   N     0.75299   0.04106   0.55092   0.00000  Uiso   1.00
O731   O     0.70360   0.02025   0.54092   0.00000  Uiso   1.00
O732   O     0.78445   0.01585   0.57602   0.00000  Uiso   1.00
N733   N     0.91339   0.00520   0.75625   0.00000  Uiso   1.00
O734   O     0.95212   0.00630   0.72273   0.00000  Uiso   1.00
O735   O     0.92757   0.01772   0.79666   0.00000  Uiso   1.00
N736   N     0.75394   0.32795   0.73924   0.00000  Uiso   1.00
O737   O     0.71395   0.32795   0.77181   0.00000  Uiso   1.00
O738   O     0.74180   0.31234   0.69903   0.00000  Uiso   1.00
N739   N     0.67386   0.14195   0.69496   0.00000  Uiso   1.00
O740   O     0.66993   0.17460   0.66311   0.00000  Uiso   1.00
O741   O     0.68858   0.09543   0.68445   0.00000  Uiso   1.00
N742   N     0.99296   0.19106   0.80515   0.00000  Uiso   1.00
O743   O     0.99677   0.15798   0.83668   0.00000  Uiso   1.00
O744   O     0.97919   0.23774   0.81615   0.00000  Uiso   1.00
O745   O     0.12975   0.57952   0.75299   0.00000  Uiso   1.00
O746   O     0.20358   0.42048   0.74702   0.00000  Uiso   1.00
O747   O     0.22613   0.57054   0.74519   0.00000  Uiso   1.00
O748   O     0.10720   0.42946   0.75482   0.00000  Uiso   1.00
C749   C     0.18154   0.59783   0.74803   0.00000  Uiso   1.00
C750   C     0.15180   0.40209   0.75063   0.00000  Uiso   1.00
O751   O     0.11847   0.50450   0.81998   0.00000  Uiso   1.00
O752   O     0.21486   0.49550   0.68003   0.00000  Uiso   1.00
O753   O     0.21485   0.49552   0.81218   0.00000  Uiso   1.00
O754   O     0.11848   0.50448   0.68783   0.00000  Uiso   1.00
C755   C     0.16711   0.49890   0.83624   0.00000  Uiso   1.00
C756   C     0.16637   0.50203   0.66384   0.00000  Uiso   1.00
Zn757  Zn    0.10231   0.50600   0.75521   0.00000  Uiso   1.00
Zn758  Zn    0.23102   0.49400   0.74479   0.00000  Uiso   1.00
C759   C     0.13764   0.46343   0.59509   0.00000  Uiso   1.00
C760   C     0.19415   0.53870   0.90521   0.00000  Uiso   1.00
C761   C     0.16531   0.50468   0.61634   0.00000  Uiso   1.00
C762   C     0.16775   0.49680   0.88385   0.00000  Uiso   1.00
C763   C     0.19027   0.54745   0.59284   0.00000  Uiso   1.00
C764   C     0.13757   0.45672   0.90769   0.00000  Uiso   1.00
C765   C     0.18892   0.54679   0.54581   0.00000  Uiso   1.00
C766   C     0.13587   0.45879   0.95482   0.00000  Uiso   1.00
C767   C     0.16251   0.50351   0.52379   0.00000  Uiso   1.00
C768   C     0.16253   0.50193   0.97680   0.00000  Uiso   1.00
C769   C     0.13683   0.46146   0.54872   0.00000  Uiso   1.00
C770   C     0.19014   0.54301   0.95173   0.00000  Uiso   1.00
C771   C     0.21452   0.58775   0.52024   0.00000  Uiso   1.00
C772   C     0.11000   0.41794   0.98033   0.00000  Uiso   1.00
C773   C     0.21455   0.58674   0.97364   0.00000  Uiso   1.00
C774   C     0.11077   0.41851   0.52682   0.00000  Uiso   1.00
H775   H     0.11721   0.43272   0.61545   0.00000  Uiso   1.00
H776   H     0.21695   0.56825   0.88484   0.00000  Uiso   1.00
H777   H     0.23483   0.62124   0.53604   0.00000  Uiso   1.00
H778   H     0.09092   0.38389   0.96448   0.00000  Uiso   1.00
C779   C     0.18967   0.65177   0.74920   0.00000  Uiso   1.00
C780   C     0.14402   0.34811   0.74730   0.00000  Uiso   1.00
N781   N     0.31678   0.48598   0.73783   0.00000  Uiso   1.00
N782   N     0.01656   0.51402   0.76217   0.00000  Uiso   1.00
C783   C     0.21485   0.59338   0.61731   0.00000  Uiso   1.00
H784   H     0.20381   0.63180   0.60903   0.00000  Uiso   1.00
O785   O     0.24877   0.58887   0.64590   0.00000  Uiso   1.00
C786   C     0.10895   0.41278   0.88339   0.00000  Uiso   1.00
H787   H     0.06599   0.39858   0.89455   0.00000  Uiso   1.00
O788   O     0.13379   0.39138   0.85137   0.00000  Uiso   1.00
N789   N     0.23859   0.63090   0.94932   0.00000  Uiso   1.00
O790   O     0.28603   0.65420   0.96097   0.00000  Uiso   1.00
O791   O     0.20816   0.65335   0.92153   0.00000  Uiso   1.00
N792   N     0.08632   0.37439   0.55092   0.00000  Uiso   1.00
O793   O     0.03693   0.35359   0.54092   0.00000  Uiso   1.00
O794   O     0.11779   0.34919   0.57602   0.00000  Uiso   1.00
N795   N     0.24672   0.33853   0.75625   0.00000  Uiso   1.00
O796   O     0.28545   0.33964   0.72273   0.00000  Uiso   1.00
O797   O     0.26091   0.35106   0.79666   0.00000  Uiso   1.00
N798   N     0.08728   0.66129   0.73924   0.00000  Uiso   1.00
O799   O     0.04728   0.66129   0.77181   0.00000  Uiso   1.00
O800   O     0.07514   0.64567   0.69903   0.00000  Uiso   1.00
N801   N     0.00719   0.47529   0.69496   0.00000  Uiso   1.00
O802   O     0.00326   0.50793   0.66311   0.00000  Uiso   1.00
O803   O     0.02191   0.42876   0.68445   0.00000  Uiso   1.00
N804   N     0.32630   0.52439   0.80515   0.00000  Uiso   1.00
O805   O     0.33010   0.49131   0.83668   0.00000  Uiso   1.00
O806   O     0.31252   0.57107   0.81615   0.00000  Uiso   1.00
O807   O     0.46308   0.57952   0.75299   0.00000  Uiso   1.00
O808   O     0.53692   0.42048   0.74702   0.00000  Uiso   1.00
O809   O     0.55946   0.57054   0.74519   0.00000  Uiso   1.00
O810   O     0.44054   0.42946   0.75482   0.00000  Uiso   1.00
C811   C     0.51487   0.59783   0.74803   0.00000  Uiso   1.00
C812   C     0.48513   0.40209   0.75063   0.00000  Uiso   1.00
O813   O     0.45181   0.50450   0.81998   0.00000  Uiso   1.00
O814   O     0.54819   0.49550   0.68003   0.00000  Uiso   1.00
O815   O     0.54819   0.49552   0.81218   0.00000  Uiso   1.00
O816   O     0.45181   0.50448   0.68783   0.00000  Uiso   1.00
C817   C     0.50044   0.49890   0.83624   0.00000  Uiso   1.00
C818   C     0.49970   0.50203   0.66384   0.00000  Uiso   1.00
Zn819  Zn    0.43565   0.50600   0.75521   0.00000  Uiso   1.00
Zn820  Zn    0.56435   0.49400   0.74479   0.00000  Uiso   1.00
C821   C     0.47098   0.46343   0.59509   0.00000  Uiso   1.00
C822   C     0.52749   0.53870   0.90521   0.00000  Uiso   1.00
C823   C     0.49865   0.50468   0.61634   0.00000  Uiso   1.00
C824   C     0.50108   0.49680   0.88385   0.00000  Uiso   1.00
C825   C     0.52361   0.54745   0.59284   0.00000  Uiso   1.00
C826   C     0.47091   0.45672   0.90769   0.00000  Uiso   1.00
C827   C     0.52226   0.54679   0.54581   0.00000  Uiso   1.00
C828   C     0.46920   0.45879   0.95482   0.00000  Uiso   1.00
C829   C     0.49584   0.50351   0.52379   0.00000  Uiso   1.00
C830   C     0.49586   0.50193   0.97680   0.00000  Uiso   1.00
C831   C     0.47016   0.46146   0.54872   0.00000  Uiso   1.00
C832   C     0.52347   0.54301   0.95173   0.00000  Uiso   1.00
C833   C     0.54786   0.58775   0.52024   0.00000  Uiso   1.00
C834   C     0.44333   0.41794   0.98033   0.00000  Uiso   1.00
C835   C     0.54788   0.58674   0.97364   0.00000  Uiso   1.00
C836   C     0.44410   0.41851   0.52682   0.00000  Uiso   1.00
H837   H     0.45055   0.43272   0.61545   0.00000  Uiso   1.00
H838   H     0.55028   0.56825   0.88484   0.00000  Uiso   1.00
H839   H     0.56816   0.62124   0.53604   0.00000  Uiso   1.00
H840   H     0.42426   0.38389   0.96448   0.00000  Uiso   1.00
C841   C     0.52300   0.65177   0.74920   0.00000  Uiso   1.00
C842   C     0.47735   0.34811   0.74730   0.00000  Uiso   1.00
N843   N     0.65011   0.48598   0.73783   0.00000  Uiso   1.00
N844   N     0.34989   0.51402   0.76217   0.00000  Uiso   1.00
C845   C     0.54818   0.59338   0.61731   0.00000  Uiso   1.00
H846   H     0.53714   0.63180   0.60903   0.00000  Uiso   1.00
O847   O     0.58211   0.58887   0.64590   0.00000  Uiso   1.00
C848   C     0.44228   0.41278   0.88339   0.00000  Uiso   1.00
H849   H     0.39933   0.39858   0.89455   0.00000  Uiso   1.00
O850   O     0.46713   0.39138   0.85137   0.00000  Uiso   1.00
N851   N     0.57193   0.63090   0.94932   0.00000  Uiso   1.00
O852   O     0.61937   0.65420   0.96097   0.00000  Uiso   1.00
O853   O     0.54149   0.65335   0.92153   0.00000  Uiso   1.00
N854   N     0.41966   0.37439   0.55092   0.00000  Uiso   1.00
O855   O     0.37027   0.35359   0.54092   0.00000  Uiso   1.00
O856   O     0.45112   0.34919   0.57602   0.00000  Uiso   1.00
N857   N     0.58006   0.33853   0.75625   0.00000  Uiso   1.00
O858   O     0.61878   0.33964   0.72273   0.00000  Uiso   1.00
O859   O     0.59424   0.35106   0.79666   0.00000  Uiso   1.00
N860   N     0.42061   0.66129   0.73924   0.00000  Uiso   1.00
O861   O     0.38062   0.66129   0.77181   0.00000  Uiso   1.00
O862   O     0.40847   0.64567   0.69903   0.00000  Uiso   1.00
N863   N     0.34052   0.47529   0.69496   0.00000  Uiso   1.00
O864   O     0.33660   0.50793   0.66311   0.00000  Uiso   1.00
O865   O     0.35525   0.42876   0.68445   0.00000  Uiso   1.00
N866   N     0.65963   0.52439   0.80515   0.00000  Uiso   1.00
O867   O     0.66344   0.49131   0.83668   0.00000  Uiso   1.00
O868   O     0.64586   0.57107   0.81615   0.00000  Uiso   1.00
O869   O     0.79642   0.57952   0.75299   0.00000  Uiso   1.00
O870   O     0.87025   0.42048   0.74702   0.00000  Uiso   1.00
O871   O     0.89280   0.57054   0.74519   0.00000  Uiso   1.00
O872   O     0.77387   0.42946   0.75482   0.00000  Uiso   1.00
C873   C     0.84820   0.59783   0.74803   0.00000  Uiso   1.00
C874   C     0.81847   0.40209   0.75063   0.00000  Uiso   1.00
O875   O     0.78514   0.50450   0.81998   0.00000  Uiso   1.00
O876   O     0.88153   0.49550   0.68003   0.00000  Uiso   1.00
O877   O     0.88152   0.49552   0.81218   0.00000  Uiso   1.00
O878   O     0.78515   0.50448   0.68783   0.00000  Uiso   1.00
C879   C     0.83377   0.49890   0.83624   0.00000  Uiso   1.00
C880   C     0.83303   0.50203   0.66384   0.00000  Uiso   1.00
Zn881  Zn    0.76898   0.50600   0.75521   0.00000  Uiso   1.00
Zn882  Zn    0.89769   0.49400   0.74479   0.00000  Uiso   1.00
C883   C     0.80431   0.46343   0.59509   0.00000  Uiso   1.00
C884   C     0.86082   0.53870   0.90521   0.00000  Uiso   1.00
C885   C     0.83198   0.50468   0.61634   0.00000  Uiso   1.00
C886   C     0.83441   0.49680   0.88385   0.00000  Uiso   1.00
C887   C     0.85694   0.54745   0.59284   0.00000  Uiso   1.00
C888   C     0.80424   0.45672   0.90769   0.00000  Uiso   1.00
C889   C     0.85559   0.54679   0.54581   0.00000  Uiso   1.00
C890   C     0.80253   0.45879   0.95482   0.00000  Uiso   1.00
C891   C     0.82917   0.50351   0.52379   0.00000  Uiso   1.00
C892   C     0.82919   0.50193   0.97680   0.00000  Uiso   1.00
C893   C     0.80349   0.46146   0.54872   0.00000  Uiso   1.00
C894   C     0.85680   0.54301   0.95173   0.00000  Uiso   1.00
C895   C     0.88119   0.58775   0.52024   0.00000  Uiso   1.00
C896   C     0.77667   0.41794   0.98033   0.00000  Uiso   1.00
C897   C     0.88122   0.58674   0.97364   0.00000  Uiso   1.00
C898   C     0.77744   0.41851   0.52682   0.00000  Uiso   1.00
H899   H     0.78388   0.43272   0.61545   0.00000  Uiso   1.00
H900   H     0.88361   0.56825   0.88484   0.00000  Uiso   1.00
H901   H     0.90149   0.62124   0.53604   0.00000  Uiso   1.00
H902   H     0.75759   0.38389   0.96448   0.00000  Uiso   1.00
C903   C     0.85634   0.65177   0.74920   0.00000  Uiso   1.00
C904   C     0.81068   0.34811   0.74730   0.00000  Uiso   1.00
N905   N     0.98344   0.48598   0.73783   0.00000  Uiso   1.00
N906   N     0.68322   0.51402   0.76217   0.00000  Uiso   1.00
C907   C     0.88152   0.59338   0.61731   0.00000  Uiso   1.00
H908   H     0.87047   0.63180   0.60903   0.00000  Uiso   1.00
O909   O     0.91544   0.58887   0.64590   0.00000  Uiso   1.00
C910   C     0.77561   0.41278   0.88339   0.00000  Uiso   1.00
H911   H     0.73266   0.39858   0.89455   0.00000  Uiso   1.00
O912   O     0.80046   0.39138   0.85137   0.00000  Uiso   1.00
N913   N     0.90526   0.63090   0.94932   0.00000  Uiso   1.00
O914   O     0.95270   0.65420   0.96097   0.00000  Uiso   1.00
O915   O     0.87482   0.65335   0.92153   0.00000  Uiso   1.00
N916   N     0.75299   0.37439   0.55092   0.00000  Uiso   1.00
O917   O     0.70360   0.35359   0.54092   0.00000  Uiso   1.00
O918   O     0.78445   0.34919   0.57602   0.00000  Uiso   1.00
N919   N     0.91339   0.33853   0.75625   0.00000  Uiso   1.00
O920   O     0.95212   0.33964   0.72273   0.00000  Uiso   1.00
O921   O     0.92757   0.35106   0.79666   0.00000  Uiso   1.00
N922   N     0.75394   0.66129   0.73924   0.00000  Uiso   1.00
O923   O     0.71395   0.66129   0.77181   0.00000  Uiso   1.00
O924   O     0.74180   0.64567   0.69903   0.00000  Uiso   1.00
N925   N     0.67386   0.47529   0.69496   0.00000  Uiso   1.00
O926   O     0.66993   0.50793   0.66311   0.00000  Uiso   1.00
O927   O     0.68858   0.42876   0.68445   0.00000  Uiso   1.00
N928   N     0.99296   0.52439   0.80515   0.00000  Uiso   1.00
O929   O     0.99677   0.49131   0.83668   0.00000  Uiso   1.00
O930   O     0.97919   0.57107   0.81615   0.00000  Uiso   1.00
O931   O     0.12975   0.91286   0.75299   0.00000  Uiso   1.00
O932   O     0.20358   0.75381   0.74702   0.00000  Uiso   1.00
O933   O     0.22613   0.90387   0.74519   0.00000  Uiso   1.00
O934   O     0.10720   0.76279   0.75482   0.00000  Uiso   1.00
C935   C     0.18154   0.93116   0.74803   0.00000  Uiso   1.00
C936   C     0.15180   0.73543   0.75063   0.00000  Uiso   1.00
O937   O     0.11847   0.83784   0.81998   0.00000  Uiso   1.00
O938   O     0.21486   0.82883   0.68003   0.00000  Uiso   1.00
O939   O     0.21485   0.82885   0.81218   0.00000  Uiso   1.00
O940   O     0.11848   0.83781   0.68783   0.00000  Uiso   1.00
C941   C     0.16711   0.83223   0.83624   0.00000  Uiso   1.00
C942   C     0.16637   0.83536   0.66384   0.00000  Uiso   1.00
Zn943  Zn    0.10231   0.83933   0.75521   0.00000  Uiso   1.00
Zn944  Zn    0.23102   0.82734   0.74479   0.00000  Uiso   1.00
C945   C     0.13764   0.79676   0.59509   0.00000  Uiso   1.00
C946   C     0.19415   0.87203   0.90521   0.00000  Uiso   1.00
C947   C     0.16531   0.83802   0.61634   0.00000  Uiso   1.00
C948   C     0.16775   0.83014   0.88385   0.00000  Uiso   1.00
C949   C     0.19027   0.88078   0.59284   0.00000  Uiso   1.00
C950   C     0.13757   0.79005   0.90769   0.00000  Uiso   1.00
C951   C     0.18892   0.88013   0.54581   0.00000  Uiso   1.00
C952   C     0.13587   0.79212   0.95482   0.00000  Uiso   1.00
C953   C     0.16251   0.83685   0.52379   0.00000  Uiso   1.00
C954   C     0.16253   0.83526   0.97680   0.00000  Uiso   1.00
C955   C     0.13683   0.79480   0.54872   0.00000  Uiso   1.00
C956   C     0.19014   0.87635   0.95173   0.00000  Uiso   1.00
C957   C     0.21452   0.92108   0.52024   0.00000  Uiso   1.00
C958   C     0.11000   0.75127   0.98033   0.00000  Uiso   1.00
C959   C     0.21455   0.92008   0.97364   0.00000  Uiso   1.00
C960   C     0.11077   0.75185   0.52682   0.00000  Uiso   1.00
H961   H     0.11721   0.76606   0.61545   0.00000  Uiso   1.00
H962   H     0.21695   0.90158   0.88484   0.00000  Uiso   1.00
H963   H     0.23483   0.95457   0.53604   0.00000  Uiso   1.00
H964   H     0.09092   0.71723   0.96448   0.00000  Uiso   1.00
C965   C     0.18967   0.98510   0.74920   0.00000  Uiso   1.00
C966   C     0.14402   0.68144   0.74730   0.00000  Uiso   1.00
N967   N     0.31678   0.81932   0.73783   0.00000  Uiso   1.00
N968   N     0.01656   0.84735   0.76217   0.00000  Uiso   1.00
C969   C     0.21485   0.92671   0.61731   0.00000  Uiso   1.00
H970   H     0.20381   0.96513   0.60903   0.00000  Uiso   1.00
O971   O     0.24877   0.92220   0.64590   0.00000  Uiso   1.00
C972   C     0.10895   0.74612   0.88339   0.00000  Uiso   1.00
H973   H     0.06599   0.73192   0.89455   0.00000  Uiso   1.00
O974   O     0.13379   0.72471   0.85137   0.00000  Uiso   1.00
N975   N     0.23859   0.96423   0.94932   0.00000  Uiso   1.00
O976   O     0.28603   0.98753   0.96097   0.00000  Uiso   1.00
O977   O     0.20816   0.98669   0.92153   0.00000  Uiso   1.00
N978   N     0.08632   0.70772   0.55092   0.00000  Uiso   1.00
O979   O     0.03693   0.68692   0.54092   0.00000  Uiso   1.00
O980   O     0.11779   0.68252   0.57602   0.00000  Uiso   1.00
N981   N     0.24672   0.67186   0.75625   0.00000  Uiso   1.00
O982   O     0.28545   0.67297   0.72273   0.00000  Uiso   1.00
O983   O     0.26091   0.68439   0.79666   0.00000  Uiso   1.00
N984   N     0.08728   0.99462   0.73924   0.00000  Uiso   1.00
O985   O     0.04728   0.99462   0.77181   0.00000  Uiso   1.00
O986   O     0.07514   0.97900   0.69903   0.00000  Uiso   1.00
N987   N     0.00719   0.80862   0.69496   0.00000  Uiso   1.00
O988   O     0.00326   0.84127   0.66311   0.00000  Uiso   1.00
O989   O     0.02191   0.76209   0.68445   0.00000  Uiso   1.00
N990   N     0.32630   0.85773   0.80515   0.00000  Uiso   1.00
O991   O     0.33010   0.82465   0.83668   0.00000  Uiso   1.00
O992   O     0.31252   0.90440   0.81615   0.00000  Uiso   1.00
O993   O     0.46308   0.91286   0.75299   0.00000  Uiso   1.00
O994   O     0.53692   0.75381   0.74702   0.00000  Uiso   1.00
O995   O     0.55946   0.90387   0.74519   0.00000  Uiso   1.00
O996   O     0.44054   0.76279   0.75482   0.00000  Uiso   1.00
C997   C     0.51487   0.93116   0.74803   0.00000  Uiso   1.00
C998   C     0.48513   0.73543   0.75063   0.00000  Uiso   1.00
O999   O     0.45181   0.83784   0.81998   0.00000  Uiso   1.00
O1000  O     0.54819   0.82883   0.68003   0.00000  Uiso   1.00
O1001  O     0.54819   0.82885   0.81218   0.00000  Uiso   1.00
O1002  O     0.45181   0.83781   0.68783   0.00000  Uiso   1.00
C1003  C     0.50044   0.83223   0.83624   0.00000  Uiso   1.00
C1004  C     0.49970   0.83536   0.66384   0.00000  Uiso   1.00
Zn1005 Zn    0.43565   0.83933   0.75521   0.00000  Uiso   1.00
Zn1006 Zn    0.56435   0.82734   0.74479   0.00000  Uiso   1.00
C1007  C     0.47098   0.79676   0.59509   0.00000  Uiso   1.00
C1008  C     0.52749   0.87203   0.90521   0.00000  Uiso   1.00
C1009  C     0.49865   0.83802   0.61634   0.00000  Uiso   1.00
C1010  C     0.50108   0.83014   0.88385   0.00000  Uiso   1.00
C1011  C     0.52361   0.88078   0.59284   0.00000  Uiso   1.00
C1012  C     0.47091   0.79005   0.90769   0.00000  Uiso   1.00
C1013  C     0.52226   0.88013   0.54581   0.00000  Uiso   1.00
C1014  C     0.46920   0.79212   0.95482   0.00000  Uiso   1.00
C1015  C     0.49584   0.83685   0.52379   0.00000  Uiso   1.00
C1016  C     0.49586   0.83526   0.97680   0.00000  Uiso   1.00
C1017  C     0.47016   0.79480   0.54872   0.00000  Uiso   1.00
C1018  C     0.52347   0.87635   0.95173   0.00000  Uiso   1.00
C1019  C     0.54786   0.92108   0.52024   0.00000  Uiso   1.00
C1020  C     0.44333   0.75127   0.98033   0.00000  Uiso   1.00
C1021  C     0.54788   0.92008   0.97364   0.00000  Uiso   1.00
C1022  C     0.44410   0.75185   0.52682   0.00000  Uiso   1.00
H1023  H     0.45055   0.76606   0.61545   0.00000  Uiso   1.00
H1024  H     0.55028   0.90158   0.88484   0.00000  Uiso   1.00
H1025  H     0.56816   0.95457   0.53604   0.00000  Uiso   1.00
H1026  H     0.42426   0.71723   0.96448   0.00000  Uiso   1.00
C1027  C     0.52300   0.98510   0.74920   0.00000  Uiso   1.00
C1028  C     0.47735   0.68144   0.74730   0.00000  Uiso   1.00
N1029  N     0.65011   0.81932   0.73783   0.00000  Uiso   1.00
N1030  N     0.34989   0.84735   0.76217   0.00000  Uiso   1.00
C1031  C     0.54818   0.92671   0.61731   0.00000  Uiso   1.00
H1032  H     0.53714   0.96513   0.60903   0.00000  Uiso   1.00
O1033  O     0.58211   0.92220   0.64590   0.00000  Uiso   1.00
C1034  C     0.44228   0.74612   0.88339   0.00000  Uiso   1.00
H1035  H     0.39933   0.73192   0.89455   0.00000  Uiso   1.00
O1036  O     0.46713   0.72471   0.85137   0.00000  Uiso   1.00
N1037  N     0.57193   0.96423   0.94932   0.00000  Uiso   1.00
O1038  O     0.61937   0.98753   0.96097   0.00000  Uiso   1.00
O1039  O     0.54149   0.98669   0.92153   0.00000  Uiso   1.00
N1040  N     0.41966   0.70772   0.55092   0.00000  Uiso   1.00
O1041  O     0.37027   0.68692   0.54092   0.00000  Uiso   1.00
O1042  O     0.45112   0.68252   0.57602   0.00000  Uiso   1.00
N1043  N     0.58006   0.67186   0.75625   0.00000  Uiso   1.00
O1044  O     0.61878   0.67297   0.72273   0.00000  Uiso   1.00
O1045  O     0.59424   0.68439   0.79666   0.00000  Uiso   1.00
N1046  N     0.42061   0.99462   0.73924   0.00000  Uiso   1.00
O1047  O     0.38062   0.99462   0.77181   0.00000  Uiso   1.00
O1048  O     0.40847   0.97900   0.69903   0.00000  Uiso   1.00
N1049  N     0.34052   0.80862   0.69496   0.00000  Uiso   1.00
O1050  O     0.33660   0.84127   0.66311   0.00000  Uiso   1.00
O1051  O     0.35525   0.76209   0.68445   0.00000  Uiso   1.00
N1052  N     0.65963   0.85773   0.80515   0.00000  Uiso   1.00
O1053  O     0.66344   0.82465   0.83668   0.00000  Uiso   1.00
O1054  O     0.64586   0.90440   0.81615   0.00000  Uiso   1.00
O1055  O     0.79642   0.91286   0.75299   0.00000  Uiso   1.00
O1056  O     0.87025   0.75381   0.74702   0.00000  Uiso   1.00
O1057  O     0.89280   0.90387   0.74519   0.00000  Uiso   1.00
O1058  O     0.77387   0.76279   0.75482   0.00000  Uiso   1.00
C1059  C     0.84820   0.93116   0.74803   0.00000  Uiso   1.00
C1060  C     0.81847   0.73543   0.75063   0.00000  Uiso   1.00
O1061  O     0.78514   0.83784   0.81998   0.00000  Uiso   1.00
O1062  O     0.88153   0.82883   0.68003   0.00000  Uiso   1.00
O1063  O     0.88152   0.82885   0.81218   0.00000  Uiso   1.00
O1064  O     0.78515   0.83781   0.68783   0.00000  Uiso   1.00
C1065  C     0.83377   0.83223   0.83624   0.00000  Uiso   1.00
C1066  C     0.83303   0.83536   0.66384   0.00000  Uiso   1.00
Zn1067 Zn    0.76898   0.83933   0.75521   0.00000  Uiso   1.00
Zn1068 Zn    0.89769   0.82734   0.74479   0.00000  Uiso   1.00
C1069  C     0.80431   0.79676   0.59509   0.00000  Uiso   1.00
C1070  C     0.86082   0.87203   0.90521   0.00000  Uiso   1.00
C1071  C     0.83198   0.83802   0.61634   0.00000  Uiso   1.00
C1072  C     0.83441   0.83014   0.88385   0.00000  Uiso   1.00
C1073  C     0.85694   0.88078   0.59284   0.00000  Uiso   1.00
C1074  C     0.80424   0.79005   0.90769   0.00000  Uiso   1.00
C1075  C     0.85559   0.88013   0.54581   0.00000  Uiso   1.00
C1076  C     0.80253   0.79212   0.95482   0.00000  Uiso   1.00
C1077  C     0.82917   0.83685   0.52379   0.00000  Uiso   1.00
C1078  C     0.82919   0.83526   0.97680   0.00000  Uiso   1.00
C1079  C     0.80349   0.79480   0.54872   0.00000  Uiso   1.00
C1080  C     0.85680   0.87635   0.95173   0.00000  Uiso   1.00
C1081  C     0.88119   0.92108   0.52024   0.00000  Uiso   1.00
C1082  C     0.77667   0.75127   0.98033   0.00000  Uiso   1.00
C1083  C     0.88122   0.92008   0.97364   0.00000  Uiso   1.00
C1084  C     0.77744   0.75185   0.52682   0.00000  Uiso   1.00
H1085  H     0.78388   0.76606   0.61545   0.00000  Uiso   1.00
H1086  H     0.88361   0.90158   0.88484   0.00000  Uiso   1.00
H1087  H     0.90149   0.95457   0.53604   0.00000  Uiso   1.00
H1088  H     0.75759   0.71723   0.96448   0.00000  Uiso   1.00
C1089  C     0.85634   0.98510   0.74920   0.00000  Uiso   1.00
C1090  C     0.81068   0.68144   0.74730   0.00000  Uiso   1.00
N1091  N     0.98344   0.81932   0.73783   0.00000  Uiso   1.00
N1092  N     0.68322   0.84735   0.76217   0.00000  Uiso   1.00
C1093  C     0.88152   0.92671   0.61731   0.00000  Uiso   1.00
H1094  H     0.87047   0.96513   0.60903   0.00000  Uiso   1.00
O1095  O     0.91544   0.92220   0.64590   0.00000  Uiso   1.00
C1096  C     0.77561   0.74612   0.88339   0.00000  Uiso   1.00
H1097  H     0.73266   0.73192   0.89455   0.00000  Uiso   1.00
O1098  O     0.80046   0.72471   0.85137   0.00000  Uiso   1.00
N1099  N     0.90526   0.96423   0.94932   0.00000  Uiso   1.00
O1100  O     0.95270   0.98753   0.96097   0.00000  Uiso   1.00
O1101  O     0.87482   0.98669   0.92153   0.00000  Uiso   1.00
N1102  N     0.75299   0.70772   0.55092   0.00000  Uiso   1.00
O1103  O     0.70360   0.68692   0.54092   0.00000  Uiso   1.00
O1104  O     0.78445   0.68252   0.57602   0.00000  Uiso   1.00
N1105  N     0.91339   0.67186   0.75625   0.00000  Uiso   1.00
O1106  O     0.95212   0.67297   0.72273   0.00000  Uiso   1.00
O1107  O     0.92757   0.68439   0.79666   0.00000  Uiso   1.00
N1108  N     0.75394   0.99462   0.73924   0.00000  Uiso   1.00
O1109  O     0.71395   0.99462   0.77181   0.00000  Uiso   1.00
O1110  O     0.74180   0.97900   0.69903   0.00000  Uiso   1.00
N1111  N     0.67386   0.80862   0.69496   0.00000  Uiso   1.00
O1112  O     0.66993   0.84127   0.66311   0.00000  Uiso   1.00
O1113  O     0.68858   0.76209   0.68445   0.00000  Uiso   1.00
N1114  N     0.99296   0.85773   0.80515   0.00000  Uiso   1.00
O1115  O     0.99677   0.82465   0.83668   0.00000  Uiso   1.00
O1116  O     0.97919   0.90440   0.81615   0.00000  Uiso   1.00
loop_
_geom_bond_atom_site_label_1
_geom_bond_atom_site_label_2
_geom_bond_distance
_geom_bond_site_symmetry_2
_ccdc_geom_bond_type
O1     C5      1.279   .     A
O1     Zn13    1.981   .     S
O2     C6      1.278   .     A
O2     Zn14    1.981   .     S
O3     C5      1.293   .     A
O3     Zn14    1.997   .     S
O4     C6      1.294   .     A
O4     Zn13    1.997   .     S
C5     C35     1.403   .     S
C6     C36     1.405   .     S
O7     Zn13    1.996   .     S
O7     C11     1.288   .     A
O8     C12     1.289   .     A
O8     Zn14    1.996   .     S
O9     Zn14    2.016   .     S
O9     C11     1.291   .     A
O10    C12     1.291   .     A
O10    Zn13    2.016   .     S
C11    C18     1.423   .     S
C12    C17     1.421   .     S
Zn13   N38     2.029   .     S
Zn14   N37     2.029   .     S
C15    H31     1.083   .     S
C15    C25     1.383   .     A
C15    C17     1.384   .     A
C16    H32     1.083   .     S
C16    C18     1.385   .     A
C16    C26     1.385   .     A
C17    C19     1.405   .     A
C18    C20     1.404   .     A
C19    C39     1.491   .     S
C19    C21     1.404   .     A
C20    C42     1.489   .     S
C20    C22     1.402   .     A
C21    C27     1.405   .     A
C21    C23     1.421   .     A
C22    C28     1.405   .     A
C22    C24     1.420   .     A
C23    C25     1.417   .     A
C23    C582    1.400   1_554 S
C24    C26     1.417   .     A
C24    C581    1.400   .     S
C25    C30     1.409   .     A
C26    C29     1.409   .     A
C27    H33     1.081   .     S
C27    C587    1.388   1_554 S
C28    H34     1.081   .     S
C28    C588    1.387   .     S
C29    N45     1.438   .     S
C29    C585    1.388   .     S
C30    N48     1.437   .     S
C30    C586    1.387   1_554 S
C35    C222    1.360   .     S
C35    N237    1.436   .     S
C36    C407    1.360   1_545 S
C36    N426    1.436   1_545 S
N37    N100    1.284   .     S
N37    N119    1.384   .     S
N38    N161    1.284   1_455 S
N38    N184    1.384   1_455 S
C39    O41     1.220   .     D
C39    H40     1.084   .     S
C42    O44     1.220   .     D
C42    H43     1.085   .     S
N45    O46     1.301   .     A
N45    O47     1.302   .     A
N48    O50     1.301   .     A
N48    O49     1.301   .     A
N51    O52     1.300   .     A
N51    O53     1.301   .     A
N51    C407    1.436   1_545 S
N54    O56     1.301   .     A
N54    O55     1.300   .     A
N54    C222    1.436   .     S
N57    O59     1.300   .     A
N57    O58     1.301   .     A
N57    N161    1.384   1_455 S
N60    O62     1.300   .     A
N60    O61     1.301   .     A
N60    N100    1.384   .     S
O63    C67     1.279   .     A
O63    Zn75    1.981   .     S
O64    C68     1.278   .     A
O64    Zn76    1.981   .     S
O65    C67     1.293   .     A
O65    Zn76    1.997   .     S
O66    C68     1.294   .     A
O66    Zn75    1.997   .     S
C67    C97     1.403   .     S
C68    C98     1.405   .     S
O69    Zn75    1.996   .     S
O69    C73     1.288   .     A
O70    C74     1.289   .     A
O70    Zn76    1.996   .     S
O71    Zn76    2.016   .     S
O71    C73     1.291   .     A
O72    C74     1.291   .     A
O72    Zn75    2.016   .     S
C73    C80     1.423   .     S
C74    C79     1.421   .     S
Zn75   N100    2.029   .     S
Zn76   N99     2.029   .     S
C77    H93     1.083   .     S
C77    C87     1.383   .     A
C77    C79     1.384   .     A
C78    H94     1.083   .     S
C78    C80     1.385   .     A
C78    C88     1.385   .     A
C79    C81     1.405   .     A
C80    C82     1.404   .     A
C81    C101    1.491   .     S
C81    C83     1.404   .     A
C82    C104    1.489   .     S
C82    C84     1.402   .     A
C83    C89     1.405   .     A
C83    C85     1.421   .     A
C84    C90     1.405   .     A
C84    C86     1.420   .     A
C85    C87     1.417   .     A
C85    C644    1.400   1_554 S
C86    C88     1.417   .     A
C86    C643    1.400   .     S
C87    C92     1.409   .     A
C88    C91     1.409   .     A
C89    H95     1.081   .     S
C89    C649    1.388   1_554 S
C90    H96     1.081   .     S
C90    C650    1.387   .     S
C91    N107    1.438   .     S
C91    C647    1.388   .     S
C92    N110    1.437   .     S
C92    C648    1.387   1_554 S
C97    C284    1.360   .     S
C97    N299    1.436   .     S
C98    C469    1.360   1_545 S
C98    N488    1.436   1_545 S
N99    N162    1.284   .     S
N99    N181    1.384   .     S
C101   O103    1.220   .     D
C101   H102    1.084   .     S
C104   O106    1.220   .     D
C104   H105    1.085   .     S
N107   O108    1.301   .     A
N107   O109    1.302   .     A
N110   O112    1.301   .     A
N110   O111    1.301   .     A
N113   O114    1.300   .     A
N113   O115    1.301   .     A
N113   C469    1.436   1_545 S
N116   O118    1.301   .     A
N116   O117    1.300   .     A
N116   C284    1.436   .     S
N119   O121    1.300   .     A
N119   O120    1.301   .     A
N122   O124    1.300   .     A
N122   O123    1.301   .     A
N122   N162    1.384   .     S
O125   C129    1.279   .     A
O125   Zn137   1.981   .     S
O126   C130    1.278   .     A
O126   Zn138   1.981   .     S
O127   C129    1.293   .     A
O127   Zn138   1.997   .     S
O128   C130    1.294   .     A
O128   Zn137   1.997   .     S
C129   C159    1.403   .     S
C130   C160    1.405   .     S
O131   Zn137   1.996   .     S
O131   C135    1.288   .     A
O132   C136    1.289   .     A
O132   Zn138   1.996   .     S
O133   Zn138   2.016   .     S
O133   C135    1.291   .     A
O134   C136    1.291   .     A
O134   Zn137   2.016   .     S
C135   C142    1.423   .     S
C136   C141    1.421   .     S
Zn137  N162    2.029   .     S
Zn138  N161    2.029   .     S
C139   H155    1.083   .     S
C139   C149    1.383   .     A
C139   C141    1.384   .     A
C140   H156    1.083   .     S
C140   C142    1.385   .     A
C140   C150    1.385   .     A
C141   C143    1.405   .     A
C142   C144    1.404   .     A
C143   C163    1.491   .     S
C143   C145    1.404   .     A
C144   C166    1.489   .     S
C144   C146    1.402   .     A
C145   C151    1.405   .     A
C145   C147    1.421   .     A
C146   C152    1.405   .     A
C146   C148    1.420   .     A
C147   C149    1.417   .     A
C147   C706    1.400   1_554 S
C148   C150    1.417   .     A
C148   C705    1.400   .     S
C149   C154    1.409   .     A
C150   C153    1.409   .     A
C151   H157    1.081   .     S
C151   C711    1.388   1_554 S
C152   H158    1.081   .     S
C152   C712    1.387   .     S
C153   N169    1.438   .     S
C153   C709    1.388   .     S
C154   N172    1.437   .     S
C154   C710    1.387   1_554 S
C159   C346    1.360   .     S
C159   N361    1.436   .     S
C160   C531    1.360   1_545 S
C160   N550    1.436   1_545 S
N161   N38     1.284   1_655 S
N161   N57     1.384   1_655 S
C163   O165    1.220   .     D
C163   H164    1.084   .     S
C166   O168    1.220   .     D
C166   H167    1.085   .     S
N169   O170    1.301   .     A
N169   O171    1.302   .     A
N172   O174    1.301   .     A
N172   O173    1.301   .     A
N175   O176    1.300   .     A
N175   O177    1.301   .     A
N175   C531    1.436   1_545 S
N178   O180    1.301   .     A
N178   O179    1.300   .     A
N178   C346    1.436   .     S
N181   O183    1.300   .     A
N181   O182    1.301   .     A
N184   O186    1.300   .     A
N184   O185    1.301   .     A
N184   N38     1.384   1_655 S
O187   C191    1.279   .     A
O187   Zn199   1.981   .     S
O188   C192    1.278   .     A
O188   Zn200   1.981   .     S
O189   C191    1.293   .     A
O189   Zn200   1.997   .     S
O190   C192    1.294   .     A
O190   Zn199   1.997   .     S
C191   C221    1.403   .     S
C192   C222    1.405   .     S
O193   Zn199   1.996   .     S
O193   C197    1.288   .     A
O194   C198    1.289   .     A
O194   Zn200   1.996   .     S
O195   Zn200   2.016   .     S
O195   C197    1.291   .     A
O196   C198    1.291   .     A
O196   Zn199   2.016   .     S
C197   C204    1.423   .     S
C198   C203    1.421   .     S
Zn199  N224    2.029   .     S
Zn200  N223    2.029   .     S
C201   H217    1.083   .     S
C201   C211    1.383   .     A
C201   C203    1.384   .     A
C202   H218    1.083   .     S
C202   C204    1.385   .     A
C202   C212    1.385   .     A
C203   C205    1.405   .     A
C204   C206    1.404   .     A
C205   C225    1.491   .     S
C205   C207    1.404   .     A
C206   C228    1.489   .     S
C206   C208    1.402   .     A
C207   C213    1.405   .     A
C207   C209    1.421   .     A
C208   C214    1.405   .     A
C208   C210    1.420   .     A
C209   C211    1.417   .     A
C209   C768    1.400   1_554 S
C210   C212    1.417   .     A
C210   C767    1.400   .     S
C211   C216    1.409   .     A
C212   C215    1.409   .     A
C213   H219    1.081   .     S
C213   C773    1.388   1_554 S
C214   H220    1.081   .     S
C214   C774    1.387   .     S
C215   N231    1.438   .     S
C215   C771    1.388   .     S
C216   N234    1.437   .     S
C216   C772    1.387   1_554 S
C221   C408    1.360   .     S
C221   N423    1.436   .     S
N223   N286    1.284   .     S
N223   N305    1.384   .     S
N224   N347    1.284   1_455 S
N224   N370    1.384   1_455 S
C225   O227    1.220   .     D
C225   H226    1.084   .     S
C228   O230    1.220   .     D
C228   H229    1.085   .     S
N231   O232    1.301   .     A
N231   O233    1.302   .     A
N234   O236    1.301   .     A
N234   O235    1.301   .     A
N237   O238    1.300   .     A
N237   O239    1.301   .     A
N240   O242    1.301   .     A
N240   O241    1.300   .     A
N240   C408    1.436   .     S
N243   O245    1.300   .     A
N243   O244    1.301   .     A
N243   N347    1.384   1_455 S
N246   O248    1.300   .     A
N246   O247    1.301   .     A
N246   N286    1.384   .     S
O249   C253    1.279   .     A
O249   Zn261   1.981   .     S
O250   C254    1.278   .     A
O250   Zn262   1.981   .     S
O251   C253    1.293   .     A
O251   Zn262   1.997   .     S
O252   C254    1.294   .     A
O252   Zn261   1.997   .     S
C253   C283    1.403   .     S
C254   C284    1.405   .     S
O255   Zn261   1.996   .     S
O255   C259    1.288   .     A
O256   C260    1.289   .     A
O256   Zn262   1.996   .     S
O257   Zn262   2.016   .     S
O257   C259    1.291   .     A
O258   C260    1.291   .     A
O258   Zn261   2.016   .     S
C259   C266    1.423   .     S
C260   C265    1.421   .     S
Zn261  N286    2.029   .     S
Zn262  N285    2.029   .     S
C263   H279    1.083   .     S
C263   C273    1.383   .     A
C263   C265    1.384   .     A
C264   H280    1.083   .     S
C264   C266    1.385   .     A
C264   C274    1.385   .     A
C265   C267    1.405   .     A
C266   C268    1.404   .     A
C267   C287    1.491   .     S
C267   C269    1.404   .     A
C268   C290    1.489   .     S
C268   C270    1.402   .     A
C269   C275    1.405   .     A
C269   C271    1.421   .     A
C270   C276    1.405   .     A
C270   C272    1.420   .     A
C271   C273    1.417   .     A
C271   C830    1.400   1_554 S
C272   C274    1.417   .     A
C272   C829    1.400   .     S
C273   C278    1.409   .     A
C274   C277    1.409   .     A
C275   H281    1.081   .     S
C275   C835    1.388   1_554 S
C276   H282    1.081   .     S
C276   C836    1.387   .     S
C277   N293    1.438   .     S
C277   C833    1.388   .     S
C278   N296    1.437   .     S
C278   C834    1.387   1_554 S
C283   C470    1.360   .     S
C283   N485    1.436   .     S
N285   N348    1.284   .     S
N285   N367    1.384   .     S
C287   O289    1.220   .     D
C287   H288    1.084   .     S
C290   O292    1.220   .     D
C290   H291    1.085   .     S
N293   O294    1.301   .     A
N293   O295    1.302   .     A
N296   O298    1.301   .     A
N296   O297    1.301   .     A
N299   O300    1.300   .     A
N299   O301    1.301   .     A
N302   O304    1.301   .     A
N302   O303    1.300   .     A
N302   C470    1.436   .     S
N305   O307    1.300   .     A
N305   O306    1.301   .     A
N308   O310    1.300   .     A
N308   O309    1.301   .     A
N308   N348    1.384   .     S
O311   C315    1.279   .     A
O311   Zn323   1.981   .     S
O312   C316    1.278   .     A
O312   Zn324   1.981   .     S
O313   C315    1.293   .     A
O313   Zn324   1.997   .     S
O314   C316    1.294   .     A
O314   Zn323   1.997   .     S
C315   C345    1.403   .     S
C316   C346    1.405   .     S
O317   Zn323   1.996   .     S
O317   C321    1.288   .     A
O318   C322    1.289   .     A
O318   Zn324   1.996   .     S
O319   Zn324   2.016   .     S
O319   C321    1.291   .     A
O320   C322    1.291   .     A
O320   Zn323   2.016   .     S
C321   C328    1.423   .     S
C322   C327    1.421   .     S
Zn323  N348    2.029   .     S
Zn324  N347    2.029   .     S
C325   H341    1.083   .     S
C325   C335    1.383   .     A
C325   C327    1.384   .     A
C326   H342    1.083   .     S
C326   C328    1.385   .     A
C326   C336    1.385   .     A
C327   C329    1.405   .     A
C328   C330    1.404   .     A
C329   C349    1.491   .     S
C329   C331    1.404   .     A
C330   C352    1.489   .     S
C330   C332    1.402   .     A
C331   C337    1.405   .     A
C331   C333    1.421   .     A
C332   C338    1.405   .     A
C332   C334    1.420   .     A
C333   C335    1.417   .     A
C333   C892    1.400   1_554 S
C334   C336    1.417   .     A
C334   C891    1.400   .     S
C335   C340    1.409   .     A
C336   C339    1.409   .     A
C337   H343    1.081   .     S
C337   C897    1.388   1_554 S
C338   H344    1.081   .     S
C338   C898    1.387   .     S
C339   N355    1.438   .     S
C339   C895    1.388   .     S
C340   N358    1.437   .     S
C340   C896    1.387   1_554 S
C345   C532    1.360   .     S
C345   N547    1.436   .     S
N347   N224    1.284   1_655 S
N347   N243    1.384   1_655 S
C349   O351    1.220   .     D
C349   H350    1.084   .     S
C352   O354    1.220   .     D
C352   H353    1.085   .     S
N355   O356    1.301   .     A
N355   O357    1.302   .     A
N358   O360    1.301   .     A
N358   O359    1.301   .     A
N361   O362    1.300   .     A
N361   O363    1.301   .     A
N364   O366    1.301   .     A
N364   O365    1.300   .     A
N364   C532    1.436   .     S
N367   O369    1.300   .     A
N367   O368    1.301   .     A
N370   O372    1.300   .     A
N370   O371    1.301   .     A
N370   N224    1.384   1_655 S
O373   C377    1.279   .     A
O373   Zn385   1.981   .     S
O374   C378    1.278   .     A
O374   Zn386   1.981   .     S
O375   C377    1.293   .     A
O375   Zn386   1.997   .     S
O376   C378    1.294   .     A
O376   Zn385   1.997   .     S
C377   C407    1.403   .     S
C378   C408    1.405   .     S
O379   Zn385   1.996   .     S
O379   C383    1.288   .     A
O380   C384    1.289   .     A
O380   Zn386   1.996   .     S
O381   Zn386   2.016   .     S
O381   C383    1.291   .     A
O382   C384    1.291   .     A
O382   Zn385   2.016   .     S
C383   C390    1.423   .     S
C384   C389    1.421   .     S
Zn385  N410    2.029   .     S
Zn386  N409    2.029   .     S
C387   H403    1.083   .     S
C387   C397    1.383   .     A
C387   C389    1.384   .     A
C388   H404    1.083   .     S
C388   C390    1.385   .     A
C388   C398    1.385   .     A
C389   C391    1.405   .     A
C390   C392    1.404   .     A
C391   C411    1.491   .     S
C391   C393    1.404   .     A
C392   C414    1.489   .     S
C392   C394    1.402   .     A
C393   C399    1.405   .     A
C393   C395    1.421   .     A
C394   C400    1.405   .     A
C394   C396    1.420   .     A
C395   C397    1.417   .     A
C395   C954    1.400   1_554 S
C396   C398    1.417   .     A
C396   C953    1.400   .     S
C397   C402    1.409   .     A
C398   C401    1.409   .     A
C399   H405    1.081   .     S
C399   C959    1.388   1_554 S
C400   H406    1.081   .     S
C400   C960    1.387   .     S
C401   N417    1.438   .     S
C401   C957    1.388   .     S
C402   N420    1.437   .     S
C402   C958    1.387   1_554 S
C407   C36     1.360   1_565 S
C407   N51     1.436   1_565 S
N409   N472    1.284   .     S
N409   N491    1.384   .     S
N410   N533    1.284   1_455 S
N410   N556    1.384   1_455 S
C411   O413    1.220   .     D
C411   H412    1.084   .     S
C414   O416    1.220   .     D
C414   H415    1.085   .     S
N417   O418    1.301   .     A
N417   O419    1.302   .     A
N420   O422    1.301   .     A
N420   O421    1.301   .     A
N423   O424    1.300   .     A
N423   O425    1.301   .     A
N426   O428    1.301   .     A
N426   O427    1.300   .     A
N426   C36     1.436   1_565 S
N429   O431    1.300   .     A
N429   O430    1.301   .     A
N429   N533    1.384   1_455 S
N432   O434    1.300   .     A
N432   O433    1.301   .     A
N432   N472    1.384   .     S
O435   C439    1.279   .     A
O435   Zn447   1.981   .     S
O436   C440    1.278   .     A
O436   Zn448   1.981   .     S
O437   C439    1.293   .     A
O437   Zn448   1.997   .     S
O438   C440    1.294   .     A
O438   Zn447   1.997   .     S
C439   C469    1.403   .     S
C440   C470    1.405   .     S
O441   Zn447   1.996   .     S
O441   C445    1.288   .     A
O442   C446    1.289   .     A
O442   Zn448   1.996   .     S
O443   Zn448   2.016   .     S
O443   C445    1.291   .     A
O444   C446    1.291   .     A
O444   Zn447   2.016   .     S
C445   C452    1.423   .     S
C446   C451    1.421   .     S
Zn447  N472    2.029   .     S
Zn448  N471    2.029   .     S
C449   H465    1.083   .     S
C449   C459    1.383   .     A
C449   C451    1.384   .     A
C450   H466    1.083   .     S
C450   C452    1.385   .     A
C450   C460    1.385   .     A
C451   C453    1.405   .     A
C452   C454    1.404   .     A
C453   C473    1.491   .     S
C453   C455    1.404   .     A
C454   C476    1.489   .     S
C454   C456    1.402   .     A
C455   C461    1.405   .     A
C455   C457    1.421   .     A
C456   C462    1.405   .     A
C456   C458    1.420   .     A
C457   C459    1.417   .     A
C457   C1016   1.400   1_554 S
C458   C460    1.417   .     A
C458   C1015   1.400   .     S
C459   C464    1.409   .     A
C460   C463    1.409   .     A
C461   H467    1.081   .     S
C461   C1021   1.388   1_554 S
C462   H468    1.081   .     S
C462   C1022   1.387   .     S
C463   N479    1.438   .     S
C463   C1019   1.388   .     S
C464   N482    1.437   .     S
C464   C1020   1.387   1_554 S
C469   C98     1.360   1_565 S
C469   N113    1.436   1_565 S
N471   N534    1.284   .     S
N471   N553    1.384   .     S
C473   O475    1.220   .     D
C473   H474    1.084   .     S
C476   O478    1.220   .     D
C476   H477    1.085   .     S
N479   O480    1.301   .     A
N479   O481    1.302   .     A
N482   O484    1.301   .     A
N482   O483    1.301   .     A
N485   O486    1.300   .     A
N485   O487    1.301   .     A
N488   O490    1.301   .     A
N488   O489    1.300   .     A
N488   C98     1.436   1_565 S
N491   O493    1.300   .     A
N491   O492    1.301   .     A
N494   O496    1.300   .     A
N494   O495    1.301   .     A
N494   N534    1.384   .     S
O497   C501    1.279   .     A
O497   Zn509   1.981   .     S
O498   C502    1.278   .     A
O498   Zn510   1.981   .     S
O499   C501    1.293   .     A
O499   Zn510   1.997   .     S
O500   C502    1.294   .     A
O500   Zn509   1.997   .     S
C501   C531    1.403   .     S
C502   C532    1.405   .     S
O503   Zn509   1.996   .     S
O503   C507    1.288   .     A
O504   C508    1.289   .     A
O504   Zn510   1.996   .     S
O505   Zn510   2.016   .     S
O505   C507    1.291   .     A
O506   C508    1.291   .     A
O506   Zn509   2.016   .     S
C507   C514    1.423   .     S
C508   C513    1.421   .     S
Zn509  N534    2.029   .     S
Zn510  N533    2.029   .     S
C511   H527    1.083   .     S
C511   C521    1.383   .     A
C511   C513    1.384   .     A
C512   H528    1.083   .     S
C512   C514    1.385   .     A
C512   C522    1.385   .     A
C513   C515    1.405   .     A
C514   C516    1.404   .     A
C515   C535    1.491   .     S
C515   C517    1.404   .     A
C516   C538    1.489   .     S
C516   C518    1.402   .     A
C517   C523    1.405   .     A
C517   C519    1.421   .     A
C518   C524    1.405   .     A
C518   C520    1.420   .     A
C519   C521    1.417   .     A
C519   C1078   1.400   1_554 S
C520   C522    1.417   .     A
C520   C1077   1.400   .     S
C521   C526    1.409   .     A
C522   C525    1.409   .     A
C523   H529    1.081   .     S
C523   C1083   1.388   1_554 S
C524   H530    1.081   .     S
C524   C1084   1.387   .     S
C525   N541    1.438   .     S
C525   C1081   1.388   .     S
C526   N544    1.437   .     S
C526   C1082   1.387   1_554 S
C531   C160    1.360   1_565 S
C531   N175    1.436   1_565 S
N533   N410    1.284   1_655 S
N533   N429    1.384   1_655 S
C535   O537    1.220   .     D
C535   H536    1.084   .     S
C538   O540    1.220   .     D
C538   H539    1.085   .     S
N541   O542    1.301   .     A
N541   O543    1.302   .     A
N544   O546    1.301   .     A
N544   O545    1.301   .     A
N547   O548    1.300   .     A
N547   O549    1.301   .     A
N550   O552    1.301   .     A
N550   O551    1.300   .     A
N550   C160    1.436   1_565 S
N553   O555    1.300   .     A
N553   O554    1.301   .     A
N556   O558    1.300   .     A
N556   O557    1.301   .     A
N556   N410    1.384   1_655 S
O559   C563    1.279   .     A
O559   Zn571   1.981   .     S
O560   C564    1.278   .     A
O560   Zn572   1.981   .     S
O561   C563    1.293   .     A
O561   Zn572   1.997   .     S
O562   C564    1.294   .     A
O562   Zn571   1.997   .     S
C563   C593    1.403   .     S
C564   C594    1.405   .     S
O565   Zn571   1.996   .     S
O565   C569    1.288   .     A
O566   C570    1.289   .     A
O566   Zn572   1.996   .     S
O567   Zn572   2.016   .     S
O567   C569    1.291   .     A
O568   C570    1.291   .     A
O568   Zn571   2.016   .     S
C569   C576    1.423   .     S
C570   C575    1.421   .     S
Zn571  N596    2.029   .     S
Zn572  N595    2.029   .     S
C573   H589    1.083   .     S
C573   C583    1.383   .     A
C573   C575    1.384   .     A
C574   H590    1.083   .     S
C574   C576    1.385   .     A
C574   C584    1.385   .     A
C575   C577    1.405   .     A
C576   C578    1.404   .     A
C577   C597    1.491   .     S
C577   C579    1.404   .     A
C578   C600    1.489   .     S
C578   C580    1.402   .     A
C579   C585    1.405   .     A
C579   C581    1.421   .     A
C580   C586    1.405   .     A
C580   C582    1.420   .     A
C581   C583    1.417   .     A
C582   C584    1.417   .     A
C582   C23     1.400   1_556 S
C583   C588    1.409   .     A
C584   C587    1.409   .     A
C585   H591    1.081   .     S
C586   H592    1.081   .     S
C586   C30     1.387   1_556 S
C587   N603    1.438   .     S
C587   C27     1.388   1_556 S
C588   N606    1.437   .     S
C593   C780    1.360   .     S
C593   N795    1.436   .     S
C594   C965    1.360   1_545 S
C594   N984    1.436   1_545 S
N595   N658    1.284   .     S
N595   N677    1.384   .     S
N596   N719    1.284   1_455 S
N596   N742    1.384   1_455 S
C597   O599    1.220   .     D
C597   H598    1.084   .     S
C600   O602    1.220   .     D
C600   H601    1.085   .     S
N603   O604    1.301   .     A
N603   O605    1.302   .     A
N606   O608    1.301   .     A
N606   O607    1.301   .     A
N609   O610    1.300   .     A
N609   O611    1.301   .     A
N609   C965    1.436   1_545 S
N612   O614    1.301   .     A
N612   O613    1.300   .     A
N612   C780    1.436   .     S
N615   O617    1.300   .     A
N615   O616    1.301   .     A
N615   N719    1.384   1_455 S
N618   O620    1.300   .     A
N618   O619    1.301   .     A
N618   N658    1.384   .     S
O621   C625    1.279   .     A
O621   Zn633   1.981   .     S
O622   C626    1.278   .     A
O622   Zn634   1.981   .     S
O623   C625    1.293   .     A
O623   Zn634   1.997   .     S
O624   C626    1.294   .     A
O624   Zn633   1.997   .     S
C625   C655    1.403   .     S
C626   C656    1.405   .     S
O627   Zn633   1.996   .     S
O627   C631    1.288   .     A
O628   C632    1.289   .     A
O628   Zn634   1.996   .     S
O629   Zn634   2.016   .     S
O629   C631    1.291   .     A
O630   C632    1.291   .     A
O630   Zn633   2.016   .     S
C631   C638    1.423   .     S
C632   C637    1.421   .     S
Zn633  N658    2.029   .     S
Zn634  N657    2.029   .     S
C635   H651    1.083   .     S
C635   C645    1.383   .     A
C635   C637    1.384   .     A
C636   H652    1.083   .     S
C636   C638    1.385   .     A
C636   C646    1.385   .     A
C637   C639    1.405   .     A
C638   C640    1.404   .     A
C639   C659    1.491   .     S
C639   C641    1.404   .     A
C640   C662    1.489   .     S
C640   C642    1.402   .     A
C641   C647    1.405   .     A
C641   C643    1.421   .     A
C642   C648    1.405   .     A
C642   C644    1.420   .     A
C643   C645    1.417   .     A
C644   C646    1.417   .     A
C644   C85     1.400   1_556 S
C645   C650    1.409   .     A
C646   C649    1.409   .     A
C647   H653    1.081   .     S
C648   H654    1.081   .     S
C648   C92     1.387   1_556 S
C649   N665    1.438   .     S
C649   C89     1.388   1_556 S
C650   N668    1.437   .     S
C655   C842    1.360   .     S
C655   N857    1.436   .     S
C656   C1027   1.360   1_545 S
C656   N1046   1.436   1_545 S
N657   N720    1.284   .     S
N657   N739    1.384   .     S
C659   O661    1.220   .     D
C659   H660    1.084   .     S
C662   O664    1.220   .     D
C662   H663    1.085   .     S
N665   O666    1.301   .     A
N665   O667    1.302   .     A
N668   O670    1.301   .     A
N668   O669    1.301   .     A
N671   O672    1.300   .     A
N671   O673    1.301   .     A
N671   C1027   1.436   1_545 S
N674   O676    1.301   .     A
N674   O675    1.300   .     A
N674   C842    1.436   .     S
N677   O679    1.300   .     A
N677   O678    1.301   .     A
N680   O682    1.300   .     A
N680   O681    1.301   .     A
N680   N720    1.384   .     S
O683   C687    1.279   .     A
O683   Zn695   1.981   .     S
O684   C688    1.278   .     A
O684   Zn696   1.981   .     S
O685   C687    1.293   .     A
O685   Zn696   1.997   .     S
O686   C688    1.294   .     A
O686   Zn695   1.997   .     S
C687   C717    1.403   .     S
C688   C718    1.405   .     S
O689   Zn695   1.996   .     S
O689   C693    1.288   .     A
O690   C694    1.289   .     A
O690   Zn696   1.996   .     S
O691   Zn696   2.016   .     S
O691   C693    1.291   .     A
O692   C694    1.291   .     A
O692   Zn695   2.016   .     S
C693   C700    1.423   .     S
C694   C699    1.421   .     S
Zn695  N720    2.029   .     S
Zn696  N719    2.029   .     S
C697   H713    1.083   .     S
C697   C707    1.383   .     A
C697   C699    1.384   .     A
C698   H714    1.083   .     S
C698   C700    1.385   .     A
C698   C708    1.385   .     A
C699   C701    1.405   .     A
C700   C702    1.404   .     A
C701   C721    1.491   .     S
C701   C703    1.404   .     A
C702   C724    1.489   .     S
C702   C704    1.402   .     A
C703   C709    1.405   .     A
C703   C705    1.421   .     A
C704   C710    1.405   .     A
C704   C706    1.420   .     A
C705   C707    1.417   .     A
C706   C708    1.417   .     A
C706   C147    1.400   1_556 S
C707   C712    1.409   .     A
C708   C711    1.409   .     A
C709   H715    1.081   .     S
C710   H716    1.081   .     S
C710   C154    1.387   1_556 S
C711   N727    1.438   .     S
C711   C151    1.388   1_556 S
C712   N730    1.437   .     S
C717   C904    1.360   .     S
C717   N919    1.436   .     S
C718   C1089   1.360   1_545 S
C718   N1108   1.436   1_545 S
N719   N596    1.284   1_655 S
N719   N615    1.384   1_655 S
C721   O723    1.220   .     D
C721   H722    1.084   .     S
C724   O726    1.220   .     D
C724   H725    1.085   .     S
N727   O728    1.301   .     A
N727   O729    1.302   .     A
N730   O732    1.301   .     A
N730   O731    1.301   .     A
N733   O734    1.300   .     A
N733   O735    1.301   .     A
N733   C1089   1.436   1_545 S
N736   O738    1.301   .     A
N736   O737    1.300   .     A
N736   C904    1.436   .     S
N739   O741    1.300   .     A
N739   O740    1.301   .     A
N742   O744    1.300   .     A
N742   O743    1.301   .     A
N742   N596    1.384   1_655 S
O745   C749    1.279   .     A
O745   Zn757   1.981   .     S
O746   C750    1.278   .     A
O746   Zn758   1.981   .     S
O747   C749    1.293   .     A
O747   Zn758   1.997   .     S
O748   C750    1.294   .     A
O748   Zn757   1.997   .     S
C749   C779    1.403   .     S
C750   C780    1.405   .     S
O751   Zn757   1.996   .     S
O751   C755    1.288   .     A
O752   C756    1.289   .     A
O752   Zn758   1.996   .     S
O753   Zn758   2.016   .     S
O753   C755    1.291   .     A
O754   C756    1.291   .     A
O754   Zn757   2.016   .     S
C755   C762    1.423   .     S
C756   C761    1.421   .     S
Zn757  N782    2.029   .     S
Zn758  N781    2.029   .     S
C759   H775    1.083   .     S
C759   C769    1.383   .     A
C759   C761    1.384   .     A
C760   H776    1.083   .     S
C760   C762    1.385   .     A
C760   C770    1.385   .     A
C761   C763    1.405   .     A
C762   C764    1.404   .     A
C763   C783    1.491   .     S
C763   C765    1.404   .     A
C764   C786    1.489   .     S
C764   C766    1.402   .     A
C765   C771    1.405   .     A
C765   C767    1.421   .     A
C766   C772    1.405   .     A
C766   C768    1.420   .     A
C767   C769    1.417   .     A
C768   C770    1.417   .     A
C768   C209    1.400   1_556 S
C769   C774    1.409   .     A
C770   C773    1.409   .     A
C771   H777    1.081   .     S
C772   H778    1.081   .     S
C772   C216    1.387   1_556 S
C773   N789    1.438   .     S
C773   C213    1.388   1_556 S
C774   N792    1.437   .     S
C779   C966    1.360   .     S
C779   N981    1.436   .     S
N781   N844    1.284   .     S
N781   N863    1.384   .     S
N782   N905    1.284   1_455 S
N782   N928    1.384   1_455 S
C783   O785    1.220   .     D
C783   H784    1.084   .     S
C786   O788    1.220   .     D
C786   H787    1.085   .     S
N789   O790    1.301   .     A
N789   O791    1.302   .     A
N792   O794    1.301   .     A
N792   O793    1.301   .     A
N795   O796    1.300   .     A
N795   O797    1.301   .     A
N798   O800    1.301   .     A
N798   O799    1.300   .     A
N798   C966    1.436   .     S
N801   O803    1.300   .     A
N801   O802    1.301   .     A
N801   N905    1.384   1_455 S
N804   O806    1.300   .     A
N804   O805    1.301   .     A
N804   N844    1.384   .     S
O807   C811    1.279   .     A
O807   Zn819   1.981   .     S
O808   C812    1.278   .     A
O808   Zn820   1.981   .     S
O809   C811    1.293   .     A
O809   Zn820   1.997   .     S
O810   C812    1.294   .     A
O810   Zn819   1.997   .     S
C811   C841    1.403   .     S
C812   C842    1.405   .     S
O813   Zn819   1.996   .     S
O813   C817    1.288   .     A
O814   C818    1.289   .     A
O814   Zn820   1.996   .     S
O815   Zn820   2.016   .     S
O815   C817    1.291   .     A
O816   C818    1.291   .     A
O816   Zn819   2.016   .     S
C817   C824    1.423   .     S
C818   C823    1.421   .     S
Zn819  N844    2.029   .     S
Zn820  N843    2.029   .     S
C821   H837    1.083   .     S
C821   C831    1.383   .     A
C821   C823    1.384   .     A
C822   H838    1.083   .     S
C822   C824    1.385   .     A
C822   C832    1.385   .     A
C823   C825    1.405   .     A
C824   C826    1.404   .     A
C825   C845    1.491   .     S
C825   C827    1.404   .     A
C826   C848    1.489   .     S
C826   C828    1.402   .     A
C827   C833    1.405   .     A
C827   C829    1.421   .     A
C828   C834    1.405   .     A
C828   C830    1.420   .     A
C829   C831    1.417   .     A
C830   C832    1.417   .     A
C830   C271    1.400   1_556 S
C831   C836    1.409   .     A
C832   C835    1.409   .     A
C833   H839    1.081   .     S
C834   H840    1.081   .     S
C834   C278    1.387   1_556 S
C835   N851    1.438   .     S
C835   C275    1.388   1_556 S
C836   N854    1.437   .     S
C841   C1028   1.360   .     S
C841   N1043   1.436   .     S
N843   N906    1.284   .     S
N843   N925    1.384   .     S
C845   O847    1.220   .     D
C845   H846    1.084   .     S
C848   O850    1.220   .     D
C848   H849    1.085   .     S
N851   O852    1.301   .     A
N851   O853    1.302   .     A
N854   O856    1.301   .     A
N854   O855    1.301   .     A
N857   O858    1.300   .     A
N857   O859    1.301   .     A
N860   O862    1.301   .     A
N860   O861    1.300   .     A
N860   C1028   1.436   .     S
N863   O865    1.300   .     A
N863   O864    1.301   .     A
N866   O868    1.300   .     A
N866   O867    1.301   .     A
N866   N906    1.384   .     S
O869   C873    1.279   .     A
O869   Zn881   1.981   .     S
O870   C874    1.278   .     A
O870   Zn882   1.981   .     S
O871   C873    1.293   .     A
O871   Zn882   1.997   .     S
O872   C874    1.294   .     A
O872   Zn881   1.997   .     S
C873   C903    1.403   .     S
C874   C904    1.405   .     S
O875   Zn881   1.996   .     S
O875   C879    1.288   .     A
O876   C880    1.289   .     A
O876   Zn882   1.996   .     S
O877   Zn882   2.016   .     S
O877   C879    1.291   .     A
O878   C880    1.291   .     A
O878   Zn881   2.016   .     S
C879   C886    1.423   .     S
C880   C885    1.421   .     S
Zn881  N906    2.029   .     S
Zn882  N905    2.029   .     S
C883   H899    1.083   .     S
C883   C893    1.383   .     A
C883   C885    1.384   .     A
C884   H900    1.083   .     S
C884   C886    1.385   .     A
C884   C894    1.385   .     A
C885   C887    1.405   .     A
C886   C888    1.404   .     A
C887   C907    1.491   .     S
C887   C889    1.404   .     A
C888   C910    1.489   .     S
C888   C890    1.402   .     A
C889   C895    1.405   .     A
C889   C891    1.421   .     A
C890   C896    1.405   .     A
C890   C892    1.420   .     A
C891   C893    1.417   .     A
C892   C894    1.417   .     A
C892   C333    1.400   1_556 S
C893   C898    1.409   .     A
C894   C897    1.409   .     A
C895   H901    1.081   .     S
C896   H902    1.081   .     S
C896   C340    1.387   1_556 S
C897   N913    1.438   .     S
C897   C337    1.388   1_556 S
C898   N916    1.437   .     S
C903   C1090   1.360   .     S
C903   N1105   1.436   .     S
N905   N782    1.284   1_655 S
N905   N801    1.384   1_655 S
C907   O909    1.220   .     D
C907   H908    1.084   .     S
C910   O912    1.220   .     D
C910   H911    1.085   .     S
N913   O914    1.301   .     A
N913   O915    1.302   .     A
N916   O918    1.301   .     A
N916   O917    1.301   .     A
N919   O920    1.300   .     A
N919   O921    1.301   .     A
N922   O924    1.301   .     A
N922   O923    1.300   .     A
N922   C1090   1.436   .     S
N925   O927    1.300   .     A
N925   O926    1.301   .     A
N928   O930    1.300   .     A
N928   O929    1.301   .     A
N928   N782    1.384   1_655 S
O931   C935    1.279   .     A
O931   Zn943   1.981   .     S
O932   C936    1.278   .     A
O932   Zn944   1.981   .     S
O933   C935    1.293   .     A
O933   Zn944   1.997   .     S
O934   C936    1.294   .     A
O934   Zn943   1.997   .     S
C935   C965    1.403   .     S
C936   C966    1.405   .     S
O937   Zn943   1.996   .     S
O937   C941    1.288   .     A
O938   C942    1.289   .     A
O938   Zn944   1.996   .     S
O939   Zn944   2.016   .     S
O939   C941    1.291   .     A
O940   C942    1.291   .     A
O940   Zn943   2.016   .     S
C941   C948    1.423   .     S
C942   C947    1.421   .     S
Zn943  N968    2.029   .     S
Zn944  N967    2.029   .     S
C945   H961    1.083   .     S
C945   C955    1.383   .     A
C945   C947    1.384   .     A
C946   H962    1.083   .     S
C946   C948    1.385   .     A
C946   C956    1.385   .     A
C947   C949    1.405   .     A
C948   C950    1.404   .     A
C949   C969    1.491   .     S
C949   C951    1.404   .     A
C950   C972    1.489   .     S
C950   C952    1.402   .     A
C951   C957    1.405   .     A
C951   C953    1.421   .     A
C952   C958    1.405   .     A
C952   C954    1.420   .     A
C953   C955    1.417   .     A
C954   C956    1.417   .     A
C954   C395    1.400   1_556 S
C955   C960    1.409   .     A
C956   C959    1.409   .     A
C957   H963    1.081   .     S
C958   H964    1.081   .     S
C958   C402    1.387   1_556 S
C959   N975    1.438   .     S
C959   C399    1.388   1_556 S
C960   N978    1.437   .     S
C965   C594    1.360   1_565 S
C965   N609    1.436   1_565 S
N967   N1030   1.284   .     S
N967   N1049   1.384   .     S
N968   N1091   1.284   1_455 S
N968   N1114   1.384   1_455 S
C969   O971    1.220   .     D
C969   H970    1.084   .     S
C972   O974    1.220   .     D
C972   H973    1.085   .     S
N975   O976    1.301   .     A
N975   O977    1.302   .     A
N978   O980    1.301   .     A
N978   O979    1.301   .     A
N981   O982    1.300   .     A
N981   O983    1.301   .     A
N984   O986    1.301   .     A
N984   O985    1.300   .     A
N984   C594    1.436   1_565 S
N987   O989    1.300   .     A
N987   O988    1.301   .     A
N987   N1091   1.384   1_455 S
N990   O992    1.300   .     A
N990   O991    1.301   .     A
N990   N1030   1.384   .     S
O993   C997    1.279   .     A
O993   Zn1005  1.981   .     S
O994   C998    1.278   .     A
O994   Zn1006  1.981   .     S
O995   C997    1.293   .     A
O995   Zn1006  1.997   .     S
O996   C998    1.294   .     A
O996   Zn1005  1.997   .     S
C997   C1027   1.403   .     S
C998   C1028   1.405   .     S
O999   Zn1005  1.996   .     S
O999   C1003   1.288   .     A
O1000  C1004   1.289   .     A
O1000  Zn1006  1.996   .     S
O1001  Zn1006  2.016   .     S
O1001  C1003   1.291   .     A
O1002  C1004   1.291   .     A
O1002  Zn1005  2.016   .     S
C1003  C1010   1.423   .     S
C1004  C1009   1.421   .     S
Zn1005 N1030   2.029   .     S
Zn1006 N1029   2.029   .     S
C1007  H1023   1.083   .     S
C1007  C1017   1.383   .     A
C1007  C1009   1.384   .     A
C1008  H1024   1.083   .     S
C1008  C1010   1.385   .     A
C1008  C1018   1.385   .     A
C1009  C1011   1.405   .     A
C1010  C1012   1.404   .     A
C1011  C1031   1.491   .     S
C1011  C1013   1.404   .     A
C1012  C1034   1.489   .     S
C1012  C1014   1.402   .     A
C1013  C1019   1.405   .     A
C1013  C1015   1.421   .     A
C1014  C1020   1.405   .     A
C1014  C1016   1.420   .     A
C1015  C1017   1.417   .     A
C1016  C1018   1.417   .     A
C1016  C457    1.400   1_556 S
C1017  C1022   1.409   .     A
C1018  C1021   1.409   .     A
C1019  H1025   1.081   .     S
C1020  H1026   1.081   .     S
C1020  C464    1.387   1_556 S
C1021  N1037   1.438   .     S
C1021  C461    1.388   1_556 S
C1022  N1040   1.437   .     S
C1027  C656    1.360   1_565 S
C1027  N671    1.436   1_565 S
N1029  N1092   1.284   .     S
N1029  N1111   1.384   .     S
C1031  O1033   1.220   .     D
C1031  H1032   1.084   .     S
C1034  O1036   1.220   .     D
C1034  H1035   1.085   .     S
N1037  O1038   1.301   .     A
N1037  O1039   1.302   .     A
N1040  O1042   1.301   .     A
N1040  O1041   1.301   .     A
N1043  O1044   1.300   .     A
N1043  O1045   1.301   .     A
N1046  O1048   1.301   .     A
N1046  O1047   1.300   .     A
N1046  C656    1.436   1_565 S
N1049  O1051   1.300   .     A
N1049  O1050   1.301   .     A
N1052  O1054   1.300   .     A
N1052  O1053   1.301   .     A
N1052  N1092   1.384   .     S
O1055  C1059   1.279   .     A
O1055  Zn1067  1.981   .     S
O1056  C1060   1.278   .     A
O1056  Zn1068  1.981   .     S
O1057  C1059   1.293   .     A
O1057  Zn1068  1.997   .     S
O1058  C1060   1.294   .     A
O1058  Zn1067  1.997   .     S
C1059  C1089   1.403   .     S
C1060  C1090   1.405   .     S
O1061  Zn1067  1.996   .     S
O1061  C1065   1.288   .     A
O1062  C1066   1.289   .     A
O1062  Zn1068  1.996   .     S
O1063  Zn1068  2.016   .     S
O1063  C1065   1.291   .     A
O1064  C1066   1.291   .     A
O1064  Zn1067  2.016   .     S
C1065  C1072   1.423   .     S
C1066  C1071   1.421   .     S
Zn1067 N1092   2.029   .     S
Zn1068 N1091   2.029   .     S
C1069  H1085   1.083   .     S
C1069  C1079   1.383   .     A
C1069  C1071   1.384   .     A
C1070  H1086   1.083   .     S
C1070  C1072   1.385   .     A
C1070  C1080   1.385   .     A
C1071  C1073   1.405   .     A
C1072  C1074   1.404   .     A
C1073  C1093   1.491   .     S
C1073  C1075   1.404   .     A
C1074  C1096   1.489   .     S
C1074  C1076   1.402   .     A
C1075  C1081   1.405   .     A
C1075  C1077   1.421   .     A
C1076  C1082   1.405   .     A
C1076  C1078   1.420   .     A
C1077  C1079   1.417   .     A
C1078  C1080   1.417   .     A
C1078  C519    1.400   1_556 S
C1079  C1084   1.409   .     A
C1080  C1083   1.409   .     A
C1081  H1087   1.081   .     S
C1082  H1088   1.081   .     S
C1082  C526    1.387   1_556 S
C1083  N1099   1.438   .     S
C1083  C523    1.388   1_556 S
C1084  N1102   1.437   .     S
C1089  C718    1.360   1_565 S
C1089  N733    1.436   1_565 S
N1091  N968    1.284   1_655 S
N1091  N987    1.384   1_655 S
C1093  O1095   1.220   .     D
C1093  H1094   1.084   .     S
C1096  O1098   1.220   .     D
C1096  H1097   1.085   .     S
N1099  O1100   1.301   .     A
N1099  O1101   1.302   .     A
N1102  O1104   1.301   .     A
N1102  O1103   1.301   .     A
N1105  O1106   1.300   .     A
N1105  O1107   1.301   .     A
N1108  O1110   1.301   .     A
N1108  O1109   1.300   .     A
N1108  C718    1.436   1_565 S
N1111  O1113   1.300   .     A
N1111  O1112   1.301   .     A
N1114  O1116   1.300   .     A
N1114  O1115   1.301   .     A
N1114  N968    1.384   1_655 S
