data_str_m2_o10_o17_pcu_sym.50
_audit_creation_date              2020-01-03
_audit_creation_method            'Materials Studio'
_symmetry_space_group_name_H-M    'P1'
_symmetry_Int_Tables_number       1
_symmetry_cell_setting            triclinic
loop_
_symmetry_equiv_pos_as_xyz
  x,y,z
_cell_length_a                    30.1610
_cell_length_b                    26.6510
_cell_length_c                    22.7834
_cell_angle_alpha                 103.3640
_cell_angle_beta                  93.1313
_cell_angle_gamma                 93.2554
loop_
_atom_site_label
_atom_site_type_symbol
_atom_site_fract_x
_atom_site_fract_y
_atom_site_fract_z
_atom_site_U_iso_or_equiv
_atom_site_adp_type
_atom_site_occupancy
O1     O     0.25326   0.09538   0.20659   0.00000  Uiso   1.00
O2     O     0.24675   0.23796   0.12674   0.00000  Uiso   1.00
O3     O     0.24480   0.08559   0.10279   0.00000  Uiso   1.00
O4     O     0.25520   0.24774   0.23055   0.00000  Uiso   1.00
C5     C     0.24845   0.06698   0.15134   0.00000  Uiso   1.00
C6     C     0.25170   0.26639   0.18207   0.00000  Uiso   1.00
O7     O     0.18936   0.17155   0.21857   0.00000  Uiso   1.00
O8     O     0.31065   0.16179   0.11476   0.00000  Uiso   1.00
O9     O     0.18090   0.16176   0.11477   0.00000  Uiso   1.00
O10    O     0.31910   0.17157   0.21857   0.00000  Uiso   1.00
C11    C     0.16470   0.16514   0.16723   0.00000  Uiso   1.00
C12    C     0.33522   0.16647   0.16569   0.00000  Uiso   1.00
Cu13   Cu    0.25501   0.17246   0.22813   0.00000  Uiso   1.00
Cu14   Cu    0.24500   0.16087   0.10521   0.00000  Uiso   1.00
C15    C     0.40952   0.21300   0.17244   0.00000  Uiso   1.00
C16    C     0.08983   0.11786   0.14440   0.00000  Uiso   1.00
C17    C     0.38351   0.16637   0.16446   0.00000  Uiso   1.00
C18    C     0.11634   0.16416   0.16768   0.00000  Uiso   1.00
C19    C     0.40361   0.12000   0.15826   0.00000  Uiso   1.00
C20    C     0.09657   0.21098   0.18310   0.00000  Uiso   1.00
C21    C     0.44984   0.11916   0.15482   0.00000  Uiso   1.00
C22    C     0.05019   0.21191   0.18426   0.00000  Uiso   1.00
C23    C     0.47668   0.16599   0.16893   0.00000  Uiso   1.00
C24    C     0.02343   0.16496   0.16877   0.00000  Uiso   1.00
C25    C     0.45652   0.21372   0.18045   0.00000  Uiso   1.00
C26    C     0.04321   0.11728   0.14914   0.00000  Uiso   1.00
C27    C     0.46946   0.07240   0.13664   0.00000  Uiso   1.00
C28    C     0.03024   0.25918   0.19762   0.00000  Uiso   1.00
C29    C     0.01566   0.07079   0.13193   0.00000  Uiso   1.00
C30    C     0.48348   0.26068   0.19598   0.00000  Uiso   1.00
C31    C     0.24690   0.01097   0.14295   0.00000  Uiso   1.00
C32    C     0.25370   0.32225   0.19066   0.00000  Uiso   1.00
N33    N     0.23745   0.15214   0.01284   0.00000  Uiso   1.00
N34    N     0.26256   0.18119   0.32049   0.00000  Uiso   1.00
O35    O     0.38910   0.25770   0.17011   0.00000  Uiso   1.00
C36    C     0.37334   0.25889   0.11022   0.00000  Uiso   1.00
H37    H     0.38143   0.29848   0.10558   0.00000  Uiso   1.00
H38    H     0.33659   0.25442   0.10726   0.00000  Uiso   1.00
C39    C     0.39129   0.22002   0.05594   0.00000  Uiso   1.00
H40    H     0.42667   0.21367   0.06469   0.00000  Uiso   1.00
H41    H     0.37229   0.18192   0.04824   0.00000  Uiso   1.00
C42    C     0.38759   0.23827   0.33083   0.00000  Uiso   1.00
H43    H     0.35235   0.24099   0.31683   0.00000  Uiso   1.00
H44    H     0.40224   0.21003   0.29473   0.00000  Uiso   1.00
H45    H     0.40605   0.27644   0.00316   0.00000  Uiso   1.00
O46    O     0.10894   0.07367   0.11467   0.00000  Uiso   1.00
C47    C     0.11799   0.07430   0.05373   0.00000  Uiso   1.00
H48    H     0.11430   0.03395   0.02704   0.00000  Uiso   1.00
H49    H     0.15350   0.08523   0.05097   0.00000  Uiso   1.00
C50    C     0.08843   0.10646   0.02111   0.00000  Uiso   1.00
H51    H     0.05302   0.09454   0.02359   0.00000  Uiso   1.00
H52    H     0.09463   0.14825   0.04285   0.00000  Uiso   1.00
C53    C     0.09780   0.09899   0.28821   0.00000  Uiso   1.00
H54    H     0.13251   0.11299   0.28386   0.00000  Uiso   1.00
H55    H     0.07481   0.12176   0.26705   0.00000  Uiso   1.00
H56    H     0.09230   0.05769   0.26430   0.00000  Uiso   1.00
F57    F     0.37776   0.07606   0.15571   0.00000  Uiso   1.00
F58    F     0.12276   0.25563   0.19165   0.00000  Uiso   1.00
F59    F     0.44358   0.02759   0.12097   0.00000  Uiso   1.00
F60    F     0.05623   0.30393   0.20701   0.00000  Uiso   1.00
O61    O     0.03385   0.02301   0.11608   0.00000  Uiso   1.00
C62    C     0.01949   0.33104   0.05566   0.00000  Uiso   1.00
H63    H     0.04707   0.33283   0.02620   0.00000  Uiso   1.00
H64    H     0.49092   0.01545   0.03795   0.00000  Uiso   1.00
C65    C     0.00386   0.27457   0.04959   0.00000  Uiso   1.00
H66    H     0.48368   0.27205   0.08761   0.00000  Uiso   1.00
H67    H     0.48231   0.26072   0.00714   0.00000  Uiso   1.00
C68    C     0.04178   0.23905   0.04675   0.00000  Uiso   1.00
H69    H     0.05430   0.23157   0.00095   0.00000  Uiso   1.00
H70    H     0.02909   0.20142   0.05462   0.00000  Uiso   1.00
H71    H     0.06917   0.25639   0.08117   0.00000  Uiso   1.00
O72    O     0.46305   0.30672   0.19949   0.00000  Uiso   1.00
C73    C     0.48154   0.01462   0.24655   0.00000  Uiso   1.00
H74    H     0.00461   0.03980   0.22843   0.00000  Uiso   1.00
H75    H     0.00143   0.00116   0.28041   0.00000  Uiso   1.00
C76    C     0.44394   0.04564   0.27543   0.00000  Uiso   1.00
H77    H     0.41829   0.04835   0.23981   0.00000  Uiso   1.00
H78    H     0.42807   0.02461   0.30626   0.00000  Uiso   1.00
C79    C     0.45999   0.10041   0.31029   0.00000  Uiso   1.00
H80    H     0.47837   0.09957   0.02003   0.00000  Uiso   1.00
H81    H     0.43090   0.12361   0.32122   0.00000  Uiso   1.00
H82    H     0.48156   0.11991   0.28305   0.00000  Uiso   1.00
O83    O     0.24073   0.31423   0.08430   0.00000  Uiso   1.00
C84    C     0.19712   0.31745   0.05966   0.00000  Uiso   1.00
H85    H     0.20042   0.33260   0.01839   0.00000  Uiso   1.00
H86    H     0.17647   0.01081   0.09007   0.00000  Uiso   1.00
C87    C     0.17220   0.26384   0.04418   0.00000  Uiso   1.00
H88    H     0.19596   0.23353   0.03863   0.00000  Uiso   1.00
H89    H     0.15105   0.25934   0.08129   0.00000  Uiso   1.00
C90    C     0.14413   0.25428   0.31839   0.00000  Uiso   1.00
H91    H     0.11799   0.28204   0.32093   0.00000  Uiso   1.00
H92    H     0.12833   0.21430   0.30741   0.00000  Uiso   1.00
H93    H     0.16618   0.25860   0.28228   0.00000  Uiso   1.00
O94    O     0.25831   0.01788   0.24993   0.00000  Uiso   1.00
C95    C     0.30308   0.03757   0.26541   0.00000  Uiso   1.00
H96    H     0.30232   0.07870   0.28997   0.00000  Uiso   1.00
H97    H     0.32322   0.03834   0.22582   0.00000  Uiso   1.00
C98    C     0.32622   0.00738   0.30597   0.00000  Uiso   1.00
H99    H     0.30197   0.31399   0.32074   0.00000  Uiso   1.00
H100   H     0.35099   0.31734   0.27974   0.00000  Uiso   1.00
C101   C     0.34947   0.04368   0.02869   0.00000  Uiso   1.00
H102   H     0.36849   0.07648   0.01709   0.00000  Uiso   1.00
H103   H     0.37299   0.02228   0.05042   0.00000  Uiso   1.00
H104   H     0.32444   0.05913   0.06075   0.00000  Uiso   1.00
F105   F     0.21595   0.11085   0.30895   0.00000  Uiso   1.00
F106   F     0.28166   0.22399   0.02403   0.00000  Uiso   1.00
O107   O     0.75326   0.09538   0.20659   0.00000  Uiso   1.00
O108   O     0.74675   0.23796   0.12674   0.00000  Uiso   1.00
O109   O     0.74480   0.08559   0.10279   0.00000  Uiso   1.00
O110   O     0.75520   0.24774   0.23055   0.00000  Uiso   1.00
C111   C     0.74845   0.06698   0.15134   0.00000  Uiso   1.00
C112   C     0.75170   0.26639   0.18207   0.00000  Uiso   1.00
O113   O     0.68936   0.17155   0.21857   0.00000  Uiso   1.00
O114   O     0.81065   0.16179   0.11476   0.00000  Uiso   1.00
O115   O     0.68090   0.16176   0.11477   0.00000  Uiso   1.00
O116   O     0.81910   0.17157   0.21857   0.00000  Uiso   1.00
C117   C     0.66470   0.16514   0.16723   0.00000  Uiso   1.00
C118   C     0.83522   0.16647   0.16569   0.00000  Uiso   1.00
Cu119  Cu    0.75501   0.17246   0.22813   0.00000  Uiso   1.00
Cu120  Cu    0.74500   0.16087   0.10521   0.00000  Uiso   1.00
C121   C     0.90952   0.21300   0.17244   0.00000  Uiso   1.00
C122   C     0.58983   0.11786   0.14440   0.00000  Uiso   1.00
C123   C     0.88351   0.16637   0.16446   0.00000  Uiso   1.00
C124   C     0.61634   0.16416   0.16768   0.00000  Uiso   1.00
C125   C     0.90361   0.12000   0.15826   0.00000  Uiso   1.00
C126   C     0.59657   0.21098   0.18310   0.00000  Uiso   1.00
C127   C     0.94984   0.11916   0.15482   0.00000  Uiso   1.00
C128   C     0.55019   0.21191   0.18426   0.00000  Uiso   1.00
C129   C     0.97668   0.16599   0.16893   0.00000  Uiso   1.00
C130   C     0.52343   0.16496   0.16877   0.00000  Uiso   1.00
C131   C     0.95652   0.21372   0.18045   0.00000  Uiso   1.00
C132   C     0.54321   0.11728   0.14914   0.00000  Uiso   1.00
C133   C     0.96946   0.07240   0.13664   0.00000  Uiso   1.00
C134   C     0.53024   0.25918   0.19762   0.00000  Uiso   1.00
C135   C     0.51566   0.07079   0.13193   0.00000  Uiso   1.00
C136   C     0.98348   0.26068   0.19598   0.00000  Uiso   1.00
C137   C     0.74690   0.01097   0.14295   0.00000  Uiso   1.00
C138   C     0.75370   0.32225   0.19066   0.00000  Uiso   1.00
N139   N     0.73745   0.15214   0.01284   0.00000  Uiso   1.00
N140   N     0.76256   0.18119   0.32049   0.00000  Uiso   1.00
O141   O     0.88910   0.25770   0.17011   0.00000  Uiso   1.00
C142   C     0.87334   0.25889   0.11022   0.00000  Uiso   1.00
H143   H     0.88143   0.29848   0.10558   0.00000  Uiso   1.00
H144   H     0.83659   0.25442   0.10726   0.00000  Uiso   1.00
C145   C     0.89129   0.22002   0.05594   0.00000  Uiso   1.00
H146   H     0.92667   0.21367   0.06469   0.00000  Uiso   1.00
H147   H     0.87229   0.18192   0.04824   0.00000  Uiso   1.00
C148   C     0.88759   0.23827   0.33083   0.00000  Uiso   1.00
H149   H     0.85235   0.24099   0.31683   0.00000  Uiso   1.00
H150   H     0.90224   0.21003   0.29473   0.00000  Uiso   1.00
H151   H     0.90605   0.27644   0.00316   0.00000  Uiso   1.00
O152   O     0.60894   0.07367   0.11467   0.00000  Uiso   1.00
C153   C     0.61799   0.07430   0.05373   0.00000  Uiso   1.00
H154   H     0.61430   0.03395   0.02704   0.00000  Uiso   1.00
H155   H     0.65350   0.08523   0.05097   0.00000  Uiso   1.00
C156   C     0.58843   0.10646   0.02111   0.00000  Uiso   1.00
H157   H     0.55302   0.09454   0.02359   0.00000  Uiso   1.00
H158   H     0.59463   0.14825   0.04285   0.00000  Uiso   1.00
C159   C     0.59780   0.09899   0.28821   0.00000  Uiso   1.00
H160   H     0.63251   0.11299   0.28386   0.00000  Uiso   1.00
H161   H     0.57481   0.12176   0.26705   0.00000  Uiso   1.00
H162   H     0.59230   0.05769   0.26430   0.00000  Uiso   1.00
F163   F     0.87776   0.07606   0.15571   0.00000  Uiso   1.00
F164   F     0.62276   0.25563   0.19165   0.00000  Uiso   1.00
F165   F     0.94358   0.02759   0.12097   0.00000  Uiso   1.00
F166   F     0.55623   0.30393   0.20701   0.00000  Uiso   1.00
O167   O     0.53385   0.02301   0.11608   0.00000  Uiso   1.00
C168   C     0.51949   0.33104   0.05566   0.00000  Uiso   1.00
H169   H     0.54707   0.33283   0.02620   0.00000  Uiso   1.00
H170   H     0.99092   0.01545   0.03795   0.00000  Uiso   1.00
C171   C     0.50386   0.27457   0.04959   0.00000  Uiso   1.00
H172   H     0.98368   0.27205   0.08761   0.00000  Uiso   1.00
H173   H     0.98231   0.26072   0.00714   0.00000  Uiso   1.00
C174   C     0.54178   0.23905   0.04675   0.00000  Uiso   1.00
H175   H     0.55430   0.23157   0.00095   0.00000  Uiso   1.00
H176   H     0.52909   0.20142   0.05462   0.00000  Uiso   1.00
H177   H     0.56917   0.25639   0.08117   0.00000  Uiso   1.00
O178   O     0.96305   0.30672   0.19949   0.00000  Uiso   1.00
C179   C     0.98154   0.01462   0.24655   0.00000  Uiso   1.00
H180   H     0.50461   0.03980   0.22843   0.00000  Uiso   1.00
H181   H     0.50143   0.00116   0.28041   0.00000  Uiso   1.00
C182   C     0.94394   0.04564   0.27543   0.00000  Uiso   1.00
H183   H     0.91829   0.04835   0.23981   0.00000  Uiso   1.00
H184   H     0.92807   0.02461   0.30626   0.00000  Uiso   1.00
C185   C     0.95999   0.10041   0.31029   0.00000  Uiso   1.00
H186   H     0.97837   0.09957   0.02003   0.00000  Uiso   1.00
H187   H     0.93090   0.12361   0.32122   0.00000  Uiso   1.00
H188   H     0.98156   0.11991   0.28305   0.00000  Uiso   1.00
O189   O     0.74073   0.31423   0.08430   0.00000  Uiso   1.00
C190   C     0.69712   0.31745   0.05966   0.00000  Uiso   1.00
H191   H     0.70042   0.33260   0.01839   0.00000  Uiso   1.00
H192   H     0.67647   0.01081   0.09007   0.00000  Uiso   1.00
C193   C     0.67220   0.26384   0.04418   0.00000  Uiso   1.00
H194   H     0.69596   0.23353   0.03863   0.00000  Uiso   1.00
H195   H     0.65105   0.25934   0.08129   0.00000  Uiso   1.00
C196   C     0.64413   0.25428   0.31839   0.00000  Uiso   1.00
H197   H     0.61799   0.28204   0.32093   0.00000  Uiso   1.00
H198   H     0.62833   0.21430   0.30741   0.00000  Uiso   1.00
H199   H     0.66618   0.25860   0.28228   0.00000  Uiso   1.00
O200   O     0.75831   0.01788   0.24993   0.00000  Uiso   1.00
C201   C     0.80308   0.03757   0.26541   0.00000  Uiso   1.00
H202   H     0.80232   0.07870   0.28997   0.00000  Uiso   1.00
H203   H     0.82322   0.03834   0.22582   0.00000  Uiso   1.00
C204   C     0.82622   0.00738   0.30597   0.00000  Uiso   1.00
H205   H     0.80197   0.31399   0.32074   0.00000  Uiso   1.00
H206   H     0.85099   0.31734   0.27974   0.00000  Uiso   1.00
C207   C     0.84947   0.04368   0.02869   0.00000  Uiso   1.00
H208   H     0.86849   0.07648   0.01709   0.00000  Uiso   1.00
H209   H     0.87299   0.02228   0.05042   0.00000  Uiso   1.00
H210   H     0.82444   0.05913   0.06075   0.00000  Uiso   1.00
F211   F     0.71595   0.11085   0.30895   0.00000  Uiso   1.00
F212   F     0.78166   0.22399   0.02403   0.00000  Uiso   1.00
O213   O     0.25326   0.42871   0.20659   0.00000  Uiso   1.00
O214   O     0.24675   0.57129   0.12674   0.00000  Uiso   1.00
O215   O     0.24480   0.41892   0.10279   0.00000  Uiso   1.00
O216   O     0.25520   0.58108   0.23055   0.00000  Uiso   1.00
C217   C     0.24845   0.40032   0.15134   0.00000  Uiso   1.00
C218   C     0.25170   0.59973   0.18207   0.00000  Uiso   1.00
O219   O     0.18936   0.50488   0.21857   0.00000  Uiso   1.00
O220   O     0.31065   0.49512   0.11476   0.00000  Uiso   1.00
O221   O     0.18090   0.49510   0.11477   0.00000  Uiso   1.00
O222   O     0.31910   0.50490   0.21857   0.00000  Uiso   1.00
C223   C     0.16470   0.49847   0.16723   0.00000  Uiso   1.00
C224   C     0.33522   0.49980   0.16569   0.00000  Uiso   1.00
Cu225  Cu    0.25501   0.50579   0.22813   0.00000  Uiso   1.00
Cu226  Cu    0.24500   0.49421   0.10521   0.00000  Uiso   1.00
C227   C     0.40952   0.54633   0.17244   0.00000  Uiso   1.00
C228   C     0.08983   0.45119   0.14440   0.00000  Uiso   1.00
C229   C     0.38351   0.49970   0.16446   0.00000  Uiso   1.00
C230   C     0.11634   0.49749   0.16768   0.00000  Uiso   1.00
C231   C     0.40361   0.45333   0.15826   0.00000  Uiso   1.00
C232   C     0.09657   0.54431   0.18310   0.00000  Uiso   1.00
C233   C     0.44984   0.45249   0.15482   0.00000  Uiso   1.00
C234   C     0.05019   0.54525   0.18426   0.00000  Uiso   1.00
C235   C     0.47668   0.49932   0.16893   0.00000  Uiso   1.00
C236   C     0.02343   0.49829   0.16877   0.00000  Uiso   1.00
C237   C     0.45652   0.54705   0.18045   0.00000  Uiso   1.00
C238   C     0.04321   0.45061   0.14914   0.00000  Uiso   1.00
C239   C     0.46946   0.40573   0.13664   0.00000  Uiso   1.00
C240   C     0.03024   0.59251   0.19762   0.00000  Uiso   1.00
C241   C     0.01566   0.40413   0.13193   0.00000  Uiso   1.00
C242   C     0.48348   0.59401   0.19598   0.00000  Uiso   1.00
C243   C     0.24690   0.34431   0.14295   0.00000  Uiso   1.00
C244   C     0.25370   0.65559   0.19066   0.00000  Uiso   1.00
N245   N     0.23745   0.48547   0.01284   0.00000  Uiso   1.00
N246   N     0.26256   0.51453   0.32049   0.00000  Uiso   1.00
O247   O     0.38910   0.59103   0.17011   0.00000  Uiso   1.00
C248   C     0.37334   0.59222   0.11022   0.00000  Uiso   1.00
H249   H     0.38143   0.63181   0.10558   0.00000  Uiso   1.00
H250   H     0.33659   0.58775   0.10726   0.00000  Uiso   1.00
C251   C     0.39129   0.55335   0.05594   0.00000  Uiso   1.00
H252   H     0.42667   0.54701   0.06469   0.00000  Uiso   1.00
H253   H     0.37229   0.51526   0.04824   0.00000  Uiso   1.00
C254   C     0.38759   0.57161   0.33083   0.00000  Uiso   1.00
H255   H     0.35235   0.57433   0.31683   0.00000  Uiso   1.00
H256   H     0.40224   0.54337   0.29473   0.00000  Uiso   1.00
H257   H     0.40605   0.60977   0.00316   0.00000  Uiso   1.00
O258   O     0.10894   0.40701   0.11467   0.00000  Uiso   1.00
C259   C     0.11799   0.40763   0.05373   0.00000  Uiso   1.00
H260   H     0.11430   0.36729   0.02704   0.00000  Uiso   1.00
H261   H     0.15350   0.41856   0.05097   0.00000  Uiso   1.00
C262   C     0.08843   0.43979   0.02111   0.00000  Uiso   1.00
H263   H     0.05302   0.42788   0.02359   0.00000  Uiso   1.00
H264   H     0.09463   0.48158   0.04285   0.00000  Uiso   1.00
C265   C     0.09780   0.43233   0.28821   0.00000  Uiso   1.00
H266   H     0.13251   0.44632   0.28386   0.00000  Uiso   1.00
H267   H     0.07481   0.45509   0.26705   0.00000  Uiso   1.00
H268   H     0.09230   0.39102   0.26430   0.00000  Uiso   1.00
F269   F     0.37776   0.40940   0.15571   0.00000  Uiso   1.00
F270   F     0.12276   0.58897   0.19165   0.00000  Uiso   1.00
F271   F     0.44358   0.36093   0.12097   0.00000  Uiso   1.00
F272   F     0.05623   0.63726   0.20701   0.00000  Uiso   1.00
O273   O     0.03385   0.35634   0.11608   0.00000  Uiso   1.00
C274   C     0.01949   0.66438   0.05566   0.00000  Uiso   1.00
H275   H     0.04707   0.66616   0.02620   0.00000  Uiso   1.00
H276   H     0.49092   0.34878   0.03795   0.00000  Uiso   1.00
C277   C     0.00386   0.60790   0.04959   0.00000  Uiso   1.00
H278   H     0.48368   0.60539   0.08761   0.00000  Uiso   1.00
H279   H     0.48231   0.59405   0.00714   0.00000  Uiso   1.00
C280   C     0.04178   0.57239   0.04675   0.00000  Uiso   1.00
H281   H     0.05430   0.56490   0.00095   0.00000  Uiso   1.00
H282   H     0.02909   0.53475   0.05462   0.00000  Uiso   1.00
H283   H     0.06917   0.58972   0.08117   0.00000  Uiso   1.00
O284   O     0.46305   0.64006   0.19949   0.00000  Uiso   1.00
C285   C     0.48154   0.34795   0.24655   0.00000  Uiso   1.00
H286   H     0.00461   0.37314   0.22843   0.00000  Uiso   1.00
H287   H     0.00143   0.33449   0.28041   0.00000  Uiso   1.00
C288   C     0.44394   0.37897   0.27543   0.00000  Uiso   1.00
H289   H     0.41829   0.38169   0.23981   0.00000  Uiso   1.00
H290   H     0.42807   0.35795   0.30626   0.00000  Uiso   1.00
C291   C     0.45999   0.43374   0.31029   0.00000  Uiso   1.00
H292   H     0.47837   0.43290   0.02003   0.00000  Uiso   1.00
H293   H     0.43090   0.45695   0.32122   0.00000  Uiso   1.00
H294   H     0.48156   0.45324   0.28305   0.00000  Uiso   1.00
O295   O     0.24073   0.64756   0.08430   0.00000  Uiso   1.00
C296   C     0.19712   0.65078   0.05966   0.00000  Uiso   1.00
H297   H     0.20042   0.66593   0.01839   0.00000  Uiso   1.00
H298   H     0.17647   0.34414   0.09007   0.00000  Uiso   1.00
C299   C     0.17220   0.59717   0.04418   0.00000  Uiso   1.00
H300   H     0.19596   0.56686   0.03863   0.00000  Uiso   1.00
H301   H     0.15105   0.59267   0.08129   0.00000  Uiso   1.00
C302   C     0.14413   0.58761   0.31839   0.00000  Uiso   1.00
H303   H     0.11799   0.61538   0.32093   0.00000  Uiso   1.00
H304   H     0.12833   0.54763   0.30741   0.00000  Uiso   1.00
H305   H     0.16618   0.59193   0.28228   0.00000  Uiso   1.00
O306   O     0.25831   0.35121   0.24993   0.00000  Uiso   1.00
C307   C     0.30308   0.37090   0.26541   0.00000  Uiso   1.00
H308   H     0.30232   0.41203   0.28997   0.00000  Uiso   1.00
H309   H     0.32322   0.37167   0.22582   0.00000  Uiso   1.00
C310   C     0.32622   0.34071   0.30597   0.00000  Uiso   1.00
H311   H     0.30197   0.64732   0.32074   0.00000  Uiso   1.00
H312   H     0.35099   0.65067   0.27974   0.00000  Uiso   1.00
C313   C     0.34947   0.37701   0.02869   0.00000  Uiso   1.00
H314   H     0.36849   0.40982   0.01709   0.00000  Uiso   1.00
H315   H     0.37299   0.35561   0.05042   0.00000  Uiso   1.00
H316   H     0.32444   0.39246   0.06075   0.00000  Uiso   1.00
F317   F     0.21595   0.44418   0.30895   0.00000  Uiso   1.00
F318   F     0.28166   0.55732   0.02403   0.00000  Uiso   1.00
O319   O     0.75326   0.42871   0.20659   0.00000  Uiso   1.00
O320   O     0.74675   0.57129   0.12674   0.00000  Uiso   1.00
O321   O     0.74480   0.41892   0.10279   0.00000  Uiso   1.00
O322   O     0.75520   0.58108   0.23055   0.00000  Uiso   1.00
C323   C     0.74845   0.40032   0.15134   0.00000  Uiso   1.00
C324   C     0.75170   0.59973   0.18207   0.00000  Uiso   1.00
O325   O     0.68936   0.50488   0.21857   0.00000  Uiso   1.00
O326   O     0.81065   0.49512   0.11476   0.00000  Uiso   1.00
O327   O     0.68090   0.49510   0.11477   0.00000  Uiso   1.00
O328   O     0.81910   0.50490   0.21857   0.00000  Uiso   1.00
C329   C     0.66470   0.49847   0.16723   0.00000  Uiso   1.00
C330   C     0.83522   0.49980   0.16569   0.00000  Uiso   1.00
Cu331  Cu    0.75501   0.50579   0.22813   0.00000  Uiso   1.00
Cu332  Cu    0.74500   0.49421   0.10521   0.00000  Uiso   1.00
C333   C     0.90952   0.54633   0.17244   0.00000  Uiso   1.00
C334   C     0.58983   0.45119   0.14440   0.00000  Uiso   1.00
C335   C     0.88351   0.49970   0.16446   0.00000  Uiso   1.00
C336   C     0.61634   0.49749   0.16768   0.00000  Uiso   1.00
C337   C     0.90361   0.45333   0.15826   0.00000  Uiso   1.00
C338   C     0.59657   0.54431   0.18310   0.00000  Uiso   1.00
C339   C     0.94984   0.45249   0.15482   0.00000  Uiso   1.00
C340   C     0.55019   0.54525   0.18426   0.00000  Uiso   1.00
C341   C     0.97668   0.49932   0.16893   0.00000  Uiso   1.00
C342   C     0.52343   0.49829   0.16877   0.00000  Uiso   1.00
C343   C     0.95652   0.54705   0.18045   0.00000  Uiso   1.00
C344   C     0.54321   0.45061   0.14914   0.00000  Uiso   1.00
C345   C     0.96946   0.40573   0.13664   0.00000  Uiso   1.00
C346   C     0.53024   0.59251   0.19762   0.00000  Uiso   1.00
C347   C     0.51566   0.40413   0.13193   0.00000  Uiso   1.00
C348   C     0.98348   0.59401   0.19598   0.00000  Uiso   1.00
C349   C     0.74690   0.34431   0.14295   0.00000  Uiso   1.00
C350   C     0.75370   0.65559   0.19066   0.00000  Uiso   1.00
N351   N     0.73745   0.48547   0.01284   0.00000  Uiso   1.00
N352   N     0.76256   0.51453   0.32049   0.00000  Uiso   1.00
O353   O     0.88910   0.59103   0.17011   0.00000  Uiso   1.00
C354   C     0.87334   0.59222   0.11022   0.00000  Uiso   1.00
H355   H     0.88143   0.63181   0.10558   0.00000  Uiso   1.00
H356   H     0.83659   0.58775   0.10726   0.00000  Uiso   1.00
C357   C     0.89129   0.55335   0.05594   0.00000  Uiso   1.00
H358   H     0.92667   0.54701   0.06469   0.00000  Uiso   1.00
H359   H     0.87229   0.51526   0.04824   0.00000  Uiso   1.00
C360   C     0.88759   0.57161   0.33083   0.00000  Uiso   1.00
H361   H     0.85235   0.57433   0.31683   0.00000  Uiso   1.00
H362   H     0.90224   0.54337   0.29473   0.00000  Uiso   1.00
H363   H     0.90605   0.60977   0.00316   0.00000  Uiso   1.00
O364   O     0.60894   0.40701   0.11467   0.00000  Uiso   1.00
C365   C     0.61799   0.40763   0.05373   0.00000  Uiso   1.00
H366   H     0.61430   0.36729   0.02704   0.00000  Uiso   1.00
H367   H     0.65350   0.41856   0.05097   0.00000  Uiso   1.00
C368   C     0.58843   0.43979   0.02111   0.00000  Uiso   1.00
H369   H     0.55302   0.42788   0.02359   0.00000  Uiso   1.00
H370   H     0.59463   0.48158   0.04285   0.00000  Uiso   1.00
C371   C     0.59780   0.43233   0.28821   0.00000  Uiso   1.00
H372   H     0.63251   0.44632   0.28386   0.00000  Uiso   1.00
H373   H     0.57481   0.45509   0.26705   0.00000  Uiso   1.00
H374   H     0.59230   0.39102   0.26430   0.00000  Uiso   1.00
F375   F     0.87776   0.40940   0.15571   0.00000  Uiso   1.00
F376   F     0.62276   0.58897   0.19165   0.00000  Uiso   1.00
F377   F     0.94358   0.36093   0.12097   0.00000  Uiso   1.00
F378   F     0.55623   0.63726   0.20701   0.00000  Uiso   1.00
O379   O     0.53385   0.35634   0.11608   0.00000  Uiso   1.00
C380   C     0.51949   0.66438   0.05566   0.00000  Uiso   1.00
H381   H     0.54707   0.66616   0.02620   0.00000  Uiso   1.00
H382   H     0.99092   0.34878   0.03795   0.00000  Uiso   1.00
C383   C     0.50386   0.60790   0.04959   0.00000  Uiso   1.00
H384   H     0.98368   0.60539   0.08761   0.00000  Uiso   1.00
H385   H     0.98231   0.59405   0.00714   0.00000  Uiso   1.00
C386   C     0.54178   0.57239   0.04675   0.00000  Uiso   1.00
H387   H     0.55430   0.56490   0.00095   0.00000  Uiso   1.00
H388   H     0.52909   0.53475   0.05462   0.00000  Uiso   1.00
H389   H     0.56917   0.58972   0.08117   0.00000  Uiso   1.00
O390   O     0.96305   0.64006   0.19949   0.00000  Uiso   1.00
C391   C     0.98154   0.34795   0.24655   0.00000  Uiso   1.00
H392   H     0.50461   0.37314   0.22843   0.00000  Uiso   1.00
H393   H     0.50143   0.33449   0.28041   0.00000  Uiso   1.00
C394   C     0.94394   0.37897   0.27543   0.00000  Uiso   1.00
H395   H     0.91829   0.38169   0.23981   0.00000  Uiso   1.00
H396   H     0.92807   0.35795   0.30626   0.00000  Uiso   1.00
C397   C     0.95999   0.43374   0.31029   0.00000  Uiso   1.00
H398   H     0.97837   0.43290   0.02003   0.00000  Uiso   1.00
H399   H     0.93090   0.45695   0.32122   0.00000  Uiso   1.00
H400   H     0.98156   0.45324   0.28305   0.00000  Uiso   1.00
O401   O     0.74073   0.64756   0.08430   0.00000  Uiso   1.00
C402   C     0.69712   0.65078   0.05966   0.00000  Uiso   1.00
H403   H     0.70042   0.66593   0.01839   0.00000  Uiso   1.00
H404   H     0.67647   0.34414   0.09007   0.00000  Uiso   1.00
C405   C     0.67220   0.59717   0.04418   0.00000  Uiso   1.00
H406   H     0.69596   0.56686   0.03863   0.00000  Uiso   1.00
H407   H     0.65105   0.59267   0.08129   0.00000  Uiso   1.00
C408   C     0.64413   0.58761   0.31839   0.00000  Uiso   1.00
H409   H     0.61799   0.61538   0.32093   0.00000  Uiso   1.00
H410   H     0.62833   0.54763   0.30741   0.00000  Uiso   1.00
H411   H     0.66618   0.59193   0.28228   0.00000  Uiso   1.00
O412   O     0.75831   0.35121   0.24993   0.00000  Uiso   1.00
C413   C     0.80308   0.37090   0.26541   0.00000  Uiso   1.00
H414   H     0.80232   0.41203   0.28997   0.00000  Uiso   1.00
H415   H     0.82322   0.37167   0.22582   0.00000  Uiso   1.00
C416   C     0.82622   0.34071   0.30597   0.00000  Uiso   1.00
H417   H     0.80197   0.64732   0.32074   0.00000  Uiso   1.00
H418   H     0.85099   0.65067   0.27974   0.00000  Uiso   1.00
C419   C     0.84947   0.37701   0.02869   0.00000  Uiso   1.00
H420   H     0.86849   0.40982   0.01709   0.00000  Uiso   1.00
H421   H     0.87299   0.35561   0.05042   0.00000  Uiso   1.00
H422   H     0.82444   0.39246   0.06075   0.00000  Uiso   1.00
F423   F     0.71595   0.44418   0.30895   0.00000  Uiso   1.00
F424   F     0.78166   0.55732   0.02403   0.00000  Uiso   1.00
O425   O     0.25326   0.76204   0.20659   0.00000  Uiso   1.00
O426   O     0.24675   0.90462   0.12674   0.00000  Uiso   1.00
O427   O     0.24480   0.75226   0.10279   0.00000  Uiso   1.00
O428   O     0.25520   0.91441   0.23055   0.00000  Uiso   1.00
C429   C     0.24845   0.73365   0.15134   0.00000  Uiso   1.00
C430   C     0.25170   0.93306   0.18207   0.00000  Uiso   1.00
O431   O     0.18936   0.83821   0.21857   0.00000  Uiso   1.00
O432   O     0.31065   0.82845   0.11476   0.00000  Uiso   1.00
O433   O     0.18090   0.82843   0.11477   0.00000  Uiso   1.00
O434   O     0.31910   0.83824   0.21857   0.00000  Uiso   1.00
C435   C     0.16470   0.83180   0.16723   0.00000  Uiso   1.00
C436   C     0.33522   0.83313   0.16569   0.00000  Uiso   1.00
Cu437  Cu    0.25501   0.83913   0.22813   0.00000  Uiso   1.00
Cu438  Cu    0.24500   0.82754   0.10521   0.00000  Uiso   1.00
C439   C     0.40952   0.87967   0.17244   0.00000  Uiso   1.00
C440   C     0.08983   0.78452   0.14440   0.00000  Uiso   1.00
C441   C     0.38351   0.83303   0.16446   0.00000  Uiso   1.00
C442   C     0.11634   0.83082   0.16768   0.00000  Uiso   1.00
C443   C     0.40361   0.78667   0.15826   0.00000  Uiso   1.00
C444   C     0.09657   0.87764   0.18310   0.00000  Uiso   1.00
C445   C     0.44984   0.78582   0.15482   0.00000  Uiso   1.00
C446   C     0.05019   0.87858   0.18426   0.00000  Uiso   1.00
C447   C     0.47668   0.83266   0.16893   0.00000  Uiso   1.00
C448   C     0.02343   0.83162   0.16877   0.00000  Uiso   1.00
C449   C     0.45652   0.88038   0.18045   0.00000  Uiso   1.00
C450   C     0.04321   0.78395   0.14914   0.00000  Uiso   1.00
C451   C     0.46946   0.73907   0.13664   0.00000  Uiso   1.00
C452   C     0.03024   0.92584   0.19762   0.00000  Uiso   1.00
C453   C     0.01566   0.73746   0.13193   0.00000  Uiso   1.00
C454   C     0.48348   0.92734   0.19598   0.00000  Uiso   1.00
C455   C     0.24690   0.67764   0.14295   0.00000  Uiso   1.00
C456   C     0.25370   0.98892   0.19066   0.00000  Uiso   1.00
N457   N     0.23745   0.81881   0.01284   0.00000  Uiso   1.00
N458   N     0.26256   0.84786   0.32049   0.00000  Uiso   1.00
O459   O     0.38910   0.92436   0.17011   0.00000  Uiso   1.00
C460   C     0.37334   0.92556   0.11022   0.00000  Uiso   1.00
H461   H     0.38143   0.96514   0.10558   0.00000  Uiso   1.00
H462   H     0.33659   0.92109   0.10726   0.00000  Uiso   1.00
C463   C     0.39129   0.88669   0.05594   0.00000  Uiso   1.00
H464   H     0.42667   0.88034   0.06469   0.00000  Uiso   1.00
H465   H     0.37229   0.84859   0.04824   0.00000  Uiso   1.00
C466   C     0.38759   0.90494   0.33083   0.00000  Uiso   1.00
H467   H     0.35235   0.90766   0.31683   0.00000  Uiso   1.00
H468   H     0.40224   0.87670   0.29473   0.00000  Uiso   1.00
H469   H     0.40605   0.94310   0.00316   0.00000  Uiso   1.00
O470   O     0.10894   0.74034   0.11467   0.00000  Uiso   1.00
C471   C     0.11799   0.74096   0.05373   0.00000  Uiso   1.00
H472   H     0.11430   0.70062   0.02704   0.00000  Uiso   1.00
H473   H     0.15350   0.75190   0.05097   0.00000  Uiso   1.00
C474   C     0.08843   0.77312   0.02111   0.00000  Uiso   1.00
H475   H     0.05302   0.76121   0.02359   0.00000  Uiso   1.00
H476   H     0.09463   0.81492   0.04285   0.00000  Uiso   1.00
C477   C     0.09780   0.76566   0.28821   0.00000  Uiso   1.00
H478   H     0.13251   0.77965   0.28386   0.00000  Uiso   1.00
H479   H     0.07481   0.78843   0.26705   0.00000  Uiso   1.00
H480   H     0.09230   0.72435   0.26430   0.00000  Uiso   1.00
F481   F     0.37776   0.74273   0.15571   0.00000  Uiso   1.00
F482   F     0.12276   0.92230   0.19165   0.00000  Uiso   1.00
F483   F     0.44358   0.69426   0.12097   0.00000  Uiso   1.00
F484   F     0.05623   0.97060   0.20701   0.00000  Uiso   1.00
O485   O     0.03385   0.68968   0.11608   0.00000  Uiso   1.00
C486   C     0.01949   0.99771   0.05566   0.00000  Uiso   1.00
H487   H     0.04707   0.99949   0.02620   0.00000  Uiso   1.00
H488   H     0.49092   0.68211   0.03795   0.00000  Uiso   1.00
C489   C     0.00386   0.94123   0.04959   0.00000  Uiso   1.00
H490   H     0.48368   0.93872   0.08761   0.00000  Uiso   1.00
H491   H     0.48231   0.92738   0.00714   0.00000  Uiso   1.00
C492   C     0.04178   0.90572   0.04675   0.00000  Uiso   1.00
H493   H     0.05430   0.89824   0.00095   0.00000  Uiso   1.00
H494   H     0.02909   0.86809   0.05462   0.00000  Uiso   1.00
H495   H     0.06917   0.92305   0.08117   0.00000  Uiso   1.00
O496   O     0.46305   0.97339   0.19949   0.00000  Uiso   1.00
C497   C     0.48154   0.68129   0.24655   0.00000  Uiso   1.00
H498   H     0.00461   0.70647   0.22843   0.00000  Uiso   1.00
H499   H     0.00143   0.66783   0.28041   0.00000  Uiso   1.00
C500   C     0.44394   0.71231   0.27543   0.00000  Uiso   1.00
H501   H     0.41829   0.71502   0.23981   0.00000  Uiso   1.00
H502   H     0.42807   0.69128   0.30626   0.00000  Uiso   1.00
C503   C     0.45999   0.76707   0.31029   0.00000  Uiso   1.00
H504   H     0.47837   0.76624   0.02003   0.00000  Uiso   1.00
H505   H     0.43090   0.79028   0.32122   0.00000  Uiso   1.00
H506   H     0.48156   0.78657   0.28305   0.00000  Uiso   1.00
O507   O     0.24073   0.98090   0.08430   0.00000  Uiso   1.00
C508   C     0.19712   0.98412   0.05966   0.00000  Uiso   1.00
H509   H     0.20042   0.99927   0.01839   0.00000  Uiso   1.00
H510   H     0.17647   0.67747   0.09007   0.00000  Uiso   1.00
C511   C     0.17220   0.93051   0.04418   0.00000  Uiso   1.00
H512   H     0.19596   0.90020   0.03863   0.00000  Uiso   1.00
H513   H     0.15105   0.92601   0.08129   0.00000  Uiso   1.00
C514   C     0.14413   0.92094   0.31839   0.00000  Uiso   1.00
H515   H     0.11799   0.94871   0.32093   0.00000  Uiso   1.00
H516   H     0.12833   0.88096   0.30741   0.00000  Uiso   1.00
H517   H     0.16618   0.92527   0.28228   0.00000  Uiso   1.00
O518   O     0.25831   0.68455   0.24993   0.00000  Uiso   1.00
C519   C     0.30308   0.70424   0.26541   0.00000  Uiso   1.00
H520   H     0.30232   0.74536   0.28997   0.00000  Uiso   1.00
H521   H     0.32322   0.70501   0.22582   0.00000  Uiso   1.00
C522   C     0.32622   0.67404   0.30597   0.00000  Uiso   1.00
H523   H     0.30197   0.98065   0.32074   0.00000  Uiso   1.00
H524   H     0.35099   0.98401   0.27974   0.00000  Uiso   1.00
C525   C     0.34947   0.71035   0.02869   0.00000  Uiso   1.00
H526   H     0.36849   0.74315   0.01709   0.00000  Uiso   1.00
H527   H     0.37299   0.68894   0.05042   0.00000  Uiso   1.00
H528   H     0.32444   0.72580   0.06075   0.00000  Uiso   1.00
F529   F     0.21595   0.77751   0.30895   0.00000  Uiso   1.00
F530   F     0.28166   0.89066   0.02403   0.00000  Uiso   1.00
O531   O     0.75326   0.76204   0.20659   0.00000  Uiso   1.00
O532   O     0.74675   0.90462   0.12674   0.00000  Uiso   1.00
O533   O     0.74480   0.75226   0.10279   0.00000  Uiso   1.00
O534   O     0.75520   0.91441   0.23055   0.00000  Uiso   1.00
C535   C     0.74845   0.73365   0.15134   0.00000  Uiso   1.00
C536   C     0.75170   0.93306   0.18207   0.00000  Uiso   1.00
O537   O     0.68936   0.83821   0.21857   0.00000  Uiso   1.00
O538   O     0.81065   0.82845   0.11476   0.00000  Uiso   1.00
O539   O     0.68090   0.82843   0.11477   0.00000  Uiso   1.00
O540   O     0.81910   0.83824   0.21857   0.00000  Uiso   1.00
C541   C     0.66470   0.83180   0.16723   0.00000  Uiso   1.00
C542   C     0.83522   0.83313   0.16569   0.00000  Uiso   1.00
Cu543  Cu    0.75501   0.83913   0.22813   0.00000  Uiso   1.00
Cu544  Cu    0.74500   0.82754   0.10521   0.00000  Uiso   1.00
C545   C     0.90952   0.87967   0.17244   0.00000  Uiso   1.00
C546   C     0.58983   0.78452   0.14440   0.00000  Uiso   1.00
C547   C     0.88351   0.83303   0.16446   0.00000  Uiso   1.00
C548   C     0.61634   0.83082   0.16768   0.00000  Uiso   1.00
C549   C     0.90361   0.78667   0.15826   0.00000  Uiso   1.00
C550   C     0.59657   0.87764   0.18310   0.00000  Uiso   1.00
C551   C     0.94984   0.78582   0.15482   0.00000  Uiso   1.00
C552   C     0.55019   0.87858   0.18426   0.00000  Uiso   1.00
C553   C     0.97668   0.83266   0.16893   0.00000  Uiso   1.00
C554   C     0.52343   0.83162   0.16877   0.00000  Uiso   1.00
C555   C     0.95652   0.88038   0.18045   0.00000  Uiso   1.00
C556   C     0.54321   0.78395   0.14914   0.00000  Uiso   1.00
C557   C     0.96946   0.73907   0.13664   0.00000  Uiso   1.00
C558   C     0.53024   0.92584   0.19762   0.00000  Uiso   1.00
C559   C     0.51566   0.73746   0.13193   0.00000  Uiso   1.00
C560   C     0.98348   0.92734   0.19598   0.00000  Uiso   1.00
C561   C     0.74690   0.67764   0.14295   0.00000  Uiso   1.00
C562   C     0.75370   0.98892   0.19066   0.00000  Uiso   1.00
N563   N     0.73745   0.81881   0.01284   0.00000  Uiso   1.00
N564   N     0.76256   0.84786   0.32049   0.00000  Uiso   1.00
O565   O     0.88910   0.92436   0.17011   0.00000  Uiso   1.00
C566   C     0.87334   0.92556   0.11022   0.00000  Uiso   1.00
H567   H     0.88143   0.96514   0.10558   0.00000  Uiso   1.00
H568   H     0.83659   0.92109   0.10726   0.00000  Uiso   1.00
C569   C     0.89129   0.88669   0.05594   0.00000  Uiso   1.00
H570   H     0.92667   0.88034   0.06469   0.00000  Uiso   1.00
H571   H     0.87229   0.84859   0.04824   0.00000  Uiso   1.00
C572   C     0.88759   0.90494   0.33083   0.00000  Uiso   1.00
H573   H     0.85235   0.90766   0.31683   0.00000  Uiso   1.00
H574   H     0.90224   0.87670   0.29473   0.00000  Uiso   1.00
H575   H     0.90605   0.94310   0.00316   0.00000  Uiso   1.00
O576   O     0.60894   0.74034   0.11467   0.00000  Uiso   1.00
C577   C     0.61799   0.74096   0.05373   0.00000  Uiso   1.00
H578   H     0.61430   0.70062   0.02704   0.00000  Uiso   1.00
H579   H     0.65350   0.75190   0.05097   0.00000  Uiso   1.00
C580   C     0.58843   0.77312   0.02111   0.00000  Uiso   1.00
H581   H     0.55302   0.76121   0.02359   0.00000  Uiso   1.00
H582   H     0.59463   0.81492   0.04285   0.00000  Uiso   1.00
C583   C     0.59780   0.76566   0.28821   0.00000  Uiso   1.00
H584   H     0.63251   0.77965   0.28386   0.00000  Uiso   1.00
H585   H     0.57481   0.78843   0.26705   0.00000  Uiso   1.00
H586   H     0.59230   0.72435   0.26430   0.00000  Uiso   1.00
F587   F     0.87776   0.74273   0.15571   0.00000  Uiso   1.00
F588   F     0.62276   0.92230   0.19165   0.00000  Uiso   1.00
F589   F     0.94358   0.69426   0.12097   0.00000  Uiso   1.00
F590   F     0.55623   0.97060   0.20701   0.00000  Uiso   1.00
O591   O     0.53385   0.68968   0.11608   0.00000  Uiso   1.00
C592   C     0.51949   0.99771   0.05566   0.00000  Uiso   1.00
H593   H     0.54707   0.99949   0.02620   0.00000  Uiso   1.00
H594   H     0.99092   0.68211   0.03795   0.00000  Uiso   1.00
C595   C     0.50386   0.94123   0.04959   0.00000  Uiso   1.00
H596   H     0.98368   0.93872   0.08761   0.00000  Uiso   1.00
H597   H     0.98231   0.92738   0.00714   0.00000  Uiso   1.00
C598   C     0.54178   0.90572   0.04675   0.00000  Uiso   1.00
H599   H     0.55430   0.89824   0.00095   0.00000  Uiso   1.00
H600   H     0.52909   0.86809   0.05462   0.00000  Uiso   1.00
H601   H     0.56917   0.92305   0.08117   0.00000  Uiso   1.00
O602   O     0.96305   0.97339   0.19949   0.00000  Uiso   1.00
C603   C     0.98154   0.68129   0.24655   0.00000  Uiso   1.00
H604   H     0.50461   0.70647   0.22843   0.00000  Uiso   1.00
H605   H     0.50143   0.66783   0.28041   0.00000  Uiso   1.00
C606   C     0.94394   0.71231   0.27543   0.00000  Uiso   1.00
H607   H     0.91829   0.71502   0.23981   0.00000  Uiso   1.00
H608   H     0.92807   0.69128   0.30626   0.00000  Uiso   1.00
C609   C     0.95999   0.76707   0.31029   0.00000  Uiso   1.00
H610   H     0.97837   0.76624   0.02003   0.00000  Uiso   1.00
H611   H     0.93090   0.79028   0.32122   0.00000  Uiso   1.00
H612   H     0.98156   0.78657   0.28305   0.00000  Uiso   1.00
O613   O     0.74073   0.98090   0.08430   0.00000  Uiso   1.00
C614   C     0.69712   0.98412   0.05966   0.00000  Uiso   1.00
H615   H     0.70042   0.99927   0.01839   0.00000  Uiso   1.00
H616   H     0.67647   0.67747   0.09007   0.00000  Uiso   1.00
C617   C     0.67220   0.93051   0.04418   0.00000  Uiso   1.00
H618   H     0.69596   0.90020   0.03863   0.00000  Uiso   1.00
H619   H     0.65105   0.92601   0.08129   0.00000  Uiso   1.00
C620   C     0.64413   0.92094   0.31839   0.00000  Uiso   1.00
H621   H     0.61799   0.94871   0.32093   0.00000  Uiso   1.00
H622   H     0.62833   0.88096   0.30741   0.00000  Uiso   1.00
H623   H     0.66618   0.92527   0.28228   0.00000  Uiso   1.00
O624   O     0.75831   0.68455   0.24993   0.00000  Uiso   1.00
C625   C     0.80308   0.70424   0.26541   0.00000  Uiso   1.00
H626   H     0.80232   0.74536   0.28997   0.00000  Uiso   1.00
H627   H     0.82322   0.70501   0.22582   0.00000  Uiso   1.00
C628   C     0.82622   0.67404   0.30597   0.00000  Uiso   1.00
H629   H     0.80197   0.98065   0.32074   0.00000  Uiso   1.00
H630   H     0.85099   0.98401   0.27974   0.00000  Uiso   1.00
C631   C     0.84947   0.71035   0.02869   0.00000  Uiso   1.00
H632   H     0.86849   0.74315   0.01709   0.00000  Uiso   1.00
H633   H     0.87299   0.68894   0.05042   0.00000  Uiso   1.00
H634   H     0.82444   0.72580   0.06075   0.00000  Uiso   1.00
F635   F     0.71595   0.77751   0.30895   0.00000  Uiso   1.00
F636   F     0.78166   0.89066   0.02403   0.00000  Uiso   1.00
O637   O     0.25326   0.09538   0.53992   0.00000  Uiso   1.00
O638   O     0.24675   0.23796   0.46008   0.00000  Uiso   1.00
O639   O     0.24480   0.08559   0.43612   0.00000  Uiso   1.00
O640   O     0.25520   0.24774   0.56388   0.00000  Uiso   1.00
C641   C     0.24845   0.06698   0.48467   0.00000  Uiso   1.00
C642   C     0.25170   0.26639   0.51540   0.00000  Uiso   1.00
O643   O     0.18936   0.17155   0.55191   0.00000  Uiso   1.00
O644   O     0.31065   0.16179   0.44809   0.00000  Uiso   1.00
O645   O     0.18090   0.16176   0.44810   0.00000  Uiso   1.00
O646   O     0.31910   0.17157   0.55190   0.00000  Uiso   1.00
C647   C     0.16470   0.16514   0.50057   0.00000  Uiso   1.00
C648   C     0.33522   0.16647   0.49902   0.00000  Uiso   1.00
Cu649  Cu    0.25501   0.17246   0.56146   0.00000  Uiso   1.00
Cu650  Cu    0.24500   0.16087   0.43854   0.00000  Uiso   1.00
C651   C     0.40952   0.21300   0.50577   0.00000  Uiso   1.00
C652   C     0.08983   0.11786   0.47773   0.00000  Uiso   1.00
C653   C     0.38351   0.16637   0.49779   0.00000  Uiso   1.00
C654   C     0.11634   0.16416   0.50102   0.00000  Uiso   1.00
C655   C     0.40361   0.12000   0.49160   0.00000  Uiso   1.00
C656   C     0.09657   0.21098   0.51644   0.00000  Uiso   1.00
C657   C     0.44984   0.11916   0.48815   0.00000  Uiso   1.00
C658   C     0.05019   0.21191   0.51759   0.00000  Uiso   1.00
C659   C     0.47668   0.16599   0.50226   0.00000  Uiso   1.00
C660   C     0.02343   0.16496   0.50211   0.00000  Uiso   1.00
C661   C     0.45652   0.21372   0.51378   0.00000  Uiso   1.00
C662   C     0.04321   0.11728   0.48247   0.00000  Uiso   1.00
C663   C     0.46946   0.07240   0.46997   0.00000  Uiso   1.00
C664   C     0.03024   0.25918   0.53095   0.00000  Uiso   1.00
C665   C     0.01566   0.07079   0.46526   0.00000  Uiso   1.00
C666   C     0.48348   0.26068   0.52931   0.00000  Uiso   1.00
C667   C     0.24690   0.01097   0.47628   0.00000  Uiso   1.00
C668   C     0.25370   0.32225   0.52399   0.00000  Uiso   1.00
N669   N     0.23745   0.15214   0.34617   0.00000  Uiso   1.00
N670   N     0.26256   0.18119   0.65383   0.00000  Uiso   1.00
O671   O     0.38910   0.25770   0.50345   0.00000  Uiso   1.00
C672   C     0.37334   0.25889   0.44355   0.00000  Uiso   1.00
H673   H     0.38143   0.29848   0.43891   0.00000  Uiso   1.00
H674   H     0.33659   0.25442   0.44060   0.00000  Uiso   1.00
C675   C     0.39129   0.22002   0.38927   0.00000  Uiso   1.00
H676   H     0.42667   0.21367   0.39802   0.00000  Uiso   1.00
H677   H     0.37229   0.18192   0.38157   0.00000  Uiso   1.00
C678   C     0.38759   0.23827   0.66416   0.00000  Uiso   1.00
H679   H     0.35235   0.24099   0.65017   0.00000  Uiso   1.00
H680   H     0.40224   0.21003   0.62807   0.00000  Uiso   1.00
H681   H     0.40605   0.27644   0.33650   0.00000  Uiso   1.00
O682   O     0.10894   0.07367   0.44800   0.00000  Uiso   1.00
C683   C     0.11799   0.07430   0.38707   0.00000  Uiso   1.00
H684   H     0.11430   0.03395   0.36038   0.00000  Uiso   1.00
H685   H     0.15350   0.08523   0.38431   0.00000  Uiso   1.00
C686   C     0.08843   0.10646   0.35444   0.00000  Uiso   1.00
H687   H     0.05302   0.09454   0.35692   0.00000  Uiso   1.00
H688   H     0.09463   0.14825   0.37618   0.00000  Uiso   1.00
C689   C     0.09780   0.09899   0.62155   0.00000  Uiso   1.00
H690   H     0.13251   0.11299   0.61719   0.00000  Uiso   1.00
H691   H     0.07481   0.12176   0.60039   0.00000  Uiso   1.00
H692   H     0.09230   0.05769   0.59763   0.00000  Uiso   1.00
F693   F     0.37776   0.07606   0.48904   0.00000  Uiso   1.00
F694   F     0.12276   0.25563   0.52499   0.00000  Uiso   1.00
F695   F     0.44358   0.02759   0.45430   0.00000  Uiso   1.00
F696   F     0.05623   0.30393   0.54034   0.00000  Uiso   1.00
O697   O     0.03385   0.02301   0.44941   0.00000  Uiso   1.00
C698   C     0.01949   0.33104   0.38899   0.00000  Uiso   1.00
H699   H     0.04707   0.33283   0.35953   0.00000  Uiso   1.00
H700   H     0.49092   0.01545   0.37128   0.00000  Uiso   1.00
C701   C     0.00386   0.27457   0.38293   0.00000  Uiso   1.00
H702   H     0.48368   0.27205   0.42094   0.00000  Uiso   1.00
H703   H     0.48231   0.26072   0.34048   0.00000  Uiso   1.00
C704   C     0.04178   0.23905   0.38008   0.00000  Uiso   1.00
H705   H     0.05430   0.23157   0.33428   0.00000  Uiso   1.00
H706   H     0.02909   0.20142   0.38795   0.00000  Uiso   1.00
H707   H     0.06917   0.25639   0.41450   0.00000  Uiso   1.00
O708   O     0.46305   0.30672   0.53283   0.00000  Uiso   1.00
C709   C     0.48154   0.01462   0.57988   0.00000  Uiso   1.00
H710   H     0.00461   0.03980   0.56176   0.00000  Uiso   1.00
H711   H     0.00143   0.00116   0.61375   0.00000  Uiso   1.00
C712   C     0.44394   0.04564   0.60876   0.00000  Uiso   1.00
H713   H     0.41829   0.04835   0.57314   0.00000  Uiso   1.00
H714   H     0.42807   0.02461   0.63959   0.00000  Uiso   1.00
C715   C     0.45999   0.10041   0.64362   0.00000  Uiso   1.00
H716   H     0.47837   0.09957   0.35336   0.00000  Uiso   1.00
H717   H     0.43090   0.12361   0.65456   0.00000  Uiso   1.00
H718   H     0.48156   0.11991   0.61639   0.00000  Uiso   1.00
O719   O     0.24073   0.31423   0.41763   0.00000  Uiso   1.00
C720   C     0.19712   0.31745   0.39299   0.00000  Uiso   1.00
H721   H     0.20042   0.33260   0.35173   0.00000  Uiso   1.00
H722   H     0.17647   0.01081   0.42341   0.00000  Uiso   1.00
C723   C     0.17220   0.26384   0.37751   0.00000  Uiso   1.00
H724   H     0.19596   0.23353   0.37196   0.00000  Uiso   1.00
H725   H     0.15105   0.25934   0.41462   0.00000  Uiso   1.00
C726   C     0.14413   0.25428   0.65172   0.00000  Uiso   1.00
H727   H     0.11799   0.28204   0.65426   0.00000  Uiso   1.00
H728   H     0.12833   0.21430   0.64075   0.00000  Uiso   1.00
H729   H     0.16618   0.25860   0.61562   0.00000  Uiso   1.00
O730   O     0.25831   0.01788   0.58326   0.00000  Uiso   1.00
C731   C     0.30308   0.03757   0.59874   0.00000  Uiso   1.00
H732   H     0.30232   0.07870   0.62330   0.00000  Uiso   1.00
H733   H     0.32322   0.03834   0.55916   0.00000  Uiso   1.00
C734   C     0.32622   0.00738   0.63930   0.00000  Uiso   1.00
H735   H     0.30197   0.31399   0.65407   0.00000  Uiso   1.00
H736   H     0.35099   0.31734   0.61308   0.00000  Uiso   1.00
C737   C     0.34947   0.04368   0.36202   0.00000  Uiso   1.00
H738   H     0.36849   0.07648   0.35042   0.00000  Uiso   1.00
H739   H     0.37299   0.02228   0.38375   0.00000  Uiso   1.00
H740   H     0.32444   0.05913   0.39408   0.00000  Uiso   1.00
F741   F     0.21595   0.11085   0.64228   0.00000  Uiso   1.00
F742   F     0.28166   0.22399   0.35736   0.00000  Uiso   1.00
O743   O     0.75326   0.09538   0.53992   0.00000  Uiso   1.00
O744   O     0.74675   0.23796   0.46008   0.00000  Uiso   1.00
O745   O     0.74480   0.08559   0.43612   0.00000  Uiso   1.00
O746   O     0.75520   0.24774   0.56388   0.00000  Uiso   1.00
C747   C     0.74845   0.06698   0.48467   0.00000  Uiso   1.00
C748   C     0.75170   0.26639   0.51540   0.00000  Uiso   1.00
O749   O     0.68936   0.17155   0.55191   0.00000  Uiso   1.00
O750   O     0.81065   0.16179   0.44809   0.00000  Uiso   1.00
O751   O     0.68090   0.16176   0.44810   0.00000  Uiso   1.00
O752   O     0.81910   0.17157   0.55190   0.00000  Uiso   1.00
C753   C     0.66470   0.16514   0.50057   0.00000  Uiso   1.00
C754   C     0.83522   0.16647   0.49902   0.00000  Uiso   1.00
Cu755  Cu    0.75501   0.17246   0.56146   0.00000  Uiso   1.00
Cu756  Cu    0.74500   0.16087   0.43854   0.00000  Uiso   1.00
C757   C     0.90952   0.21300   0.50577   0.00000  Uiso   1.00
C758   C     0.58983   0.11786   0.47773   0.00000  Uiso   1.00
C759   C     0.88351   0.16637   0.49779   0.00000  Uiso   1.00
C760   C     0.61634   0.16416   0.50102   0.00000  Uiso   1.00
C761   C     0.90361   0.12000   0.49160   0.00000  Uiso   1.00
C762   C     0.59657   0.21098   0.51644   0.00000  Uiso   1.00
C763   C     0.94984   0.11916   0.48815   0.00000  Uiso   1.00
C764   C     0.55019   0.21191   0.51759   0.00000  Uiso   1.00
C765   C     0.97668   0.16599   0.50226   0.00000  Uiso   1.00
C766   C     0.52343   0.16496   0.50211   0.00000  Uiso   1.00
C767   C     0.95652   0.21372   0.51378   0.00000  Uiso   1.00
C768   C     0.54321   0.11728   0.48247   0.00000  Uiso   1.00
C769   C     0.96946   0.07240   0.46997   0.00000  Uiso   1.00
C770   C     0.53024   0.25918   0.53095   0.00000  Uiso   1.00
C771   C     0.51566   0.07079   0.46526   0.00000  Uiso   1.00
C772   C     0.98348   0.26068   0.52931   0.00000  Uiso   1.00
C773   C     0.74690   0.01097   0.47628   0.00000  Uiso   1.00
C774   C     0.75370   0.32225   0.52399   0.00000  Uiso   1.00
N775   N     0.73745   0.15214   0.34617   0.00000  Uiso   1.00
N776   N     0.76256   0.18119   0.65383   0.00000  Uiso   1.00
O777   O     0.88910   0.25770   0.50345   0.00000  Uiso   1.00
C778   C     0.87334   0.25889   0.44355   0.00000  Uiso   1.00
H779   H     0.88143   0.29848   0.43891   0.00000  Uiso   1.00
H780   H     0.83659   0.25442   0.44060   0.00000  Uiso   1.00
C781   C     0.89129   0.22002   0.38927   0.00000  Uiso   1.00
H782   H     0.92667   0.21367   0.39802   0.00000  Uiso   1.00
H783   H     0.87229   0.18192   0.38157   0.00000  Uiso   1.00
C784   C     0.88759   0.23827   0.66416   0.00000  Uiso   1.00
H785   H     0.85235   0.24099   0.65017   0.00000  Uiso   1.00
H786   H     0.90224   0.21003   0.62807   0.00000  Uiso   1.00
H787   H     0.90605   0.27644   0.33650   0.00000  Uiso   1.00
O788   O     0.60894   0.07367   0.44800   0.00000  Uiso   1.00
C789   C     0.61799   0.07430   0.38707   0.00000  Uiso   1.00
H790   H     0.61430   0.03395   0.36038   0.00000  Uiso   1.00
H791   H     0.65350   0.08523   0.38431   0.00000  Uiso   1.00
C792   C     0.58843   0.10646   0.35444   0.00000  Uiso   1.00
H793   H     0.55302   0.09454   0.35692   0.00000  Uiso   1.00
H794   H     0.59463   0.14825   0.37618   0.00000  Uiso   1.00
C795   C     0.59780   0.09899   0.62155   0.00000  Uiso   1.00
H796   H     0.63251   0.11299   0.61719   0.00000  Uiso   1.00
H797   H     0.57481   0.12176   0.60039   0.00000  Uiso   1.00
H798   H     0.59230   0.05769   0.59763   0.00000  Uiso   1.00
F799   F     0.87776   0.07606   0.48904   0.00000  Uiso   1.00
F800   F     0.62276   0.25563   0.52499   0.00000  Uiso   1.00
F801   F     0.94358   0.02759   0.45430   0.00000  Uiso   1.00
F802   F     0.55623   0.30393   0.54034   0.00000  Uiso   1.00
O803   O     0.53385   0.02301   0.44941   0.00000  Uiso   1.00
C804   C     0.51949   0.33104   0.38899   0.00000  Uiso   1.00
H805   H     0.54707   0.33283   0.35953   0.00000  Uiso   1.00
H806   H     0.99092   0.01545   0.37128   0.00000  Uiso   1.00
C807   C     0.50386   0.27457   0.38293   0.00000  Uiso   1.00
H808   H     0.98368   0.27205   0.42094   0.00000  Uiso   1.00
H809   H     0.98231   0.26072   0.34048   0.00000  Uiso   1.00
C810   C     0.54178   0.23905   0.38008   0.00000  Uiso   1.00
H811   H     0.55430   0.23157   0.33428   0.00000  Uiso   1.00
H812   H     0.52909   0.20142   0.38795   0.00000  Uiso   1.00
H813   H     0.56917   0.25639   0.41450   0.00000  Uiso   1.00
O814   O     0.96305   0.30672   0.53283   0.00000  Uiso   1.00
C815   C     0.98154   0.01462   0.57988   0.00000  Uiso   1.00
H816   H     0.50461   0.03980   0.56176   0.00000  Uiso   1.00
H817   H     0.50143   0.00116   0.61375   0.00000  Uiso   1.00
C818   C     0.94394   0.04564   0.60876   0.00000  Uiso   1.00
H819   H     0.91829   0.04835   0.57314   0.00000  Uiso   1.00
H820   H     0.92807   0.02461   0.63959   0.00000  Uiso   1.00
C821   C     0.95999   0.10041   0.64362   0.00000  Uiso   1.00
H822   H     0.97837   0.09957   0.35336   0.00000  Uiso   1.00
H823   H     0.93090   0.12361   0.65456   0.00000  Uiso   1.00
H824   H     0.98156   0.11991   0.61639   0.00000  Uiso   1.00
O825   O     0.74073   0.31423   0.41763   0.00000  Uiso   1.00
C826   C     0.69712   0.31745   0.39299   0.00000  Uiso   1.00
H827   H     0.70042   0.33260   0.35173   0.00000  Uiso   1.00
H828   H     0.67647   0.01081   0.42341   0.00000  Uiso   1.00
C829   C     0.67220   0.26384   0.37751   0.00000  Uiso   1.00
H830   H     0.69596   0.23353   0.37196   0.00000  Uiso   1.00
H831   H     0.65105   0.25934   0.41462   0.00000  Uiso   1.00
C832   C     0.64413   0.25428   0.65172   0.00000  Uiso   1.00
H833   H     0.61799   0.28204   0.65426   0.00000  Uiso   1.00
H834   H     0.62833   0.21430   0.64075   0.00000  Uiso   1.00
H835   H     0.66618   0.25860   0.61562   0.00000  Uiso   1.00
O836   O     0.75831   0.01788   0.58326   0.00000  Uiso   1.00
C837   C     0.80308   0.03757   0.59874   0.00000  Uiso   1.00
H838   H     0.80232   0.07870   0.62330   0.00000  Uiso   1.00
H839   H     0.82322   0.03834   0.55916   0.00000  Uiso   1.00
C840   C     0.82622   0.00738   0.63930   0.00000  Uiso   1.00
H841   H     0.80197   0.31399   0.65407   0.00000  Uiso   1.00
H842   H     0.85099   0.31734   0.61308   0.00000  Uiso   1.00
C843   C     0.84947   0.04368   0.36202   0.00000  Uiso   1.00
H844   H     0.86849   0.07648   0.35042   0.00000  Uiso   1.00
H845   H     0.87299   0.02228   0.38375   0.00000  Uiso   1.00
H846   H     0.82444   0.05913   0.39408   0.00000  Uiso   1.00
F847   F     0.71595   0.11085   0.64228   0.00000  Uiso   1.00
F848   F     0.78166   0.22399   0.35736   0.00000  Uiso   1.00
O849   O     0.25326   0.42871   0.53992   0.00000  Uiso   1.00
O850   O     0.24675   0.57129   0.46008   0.00000  Uiso   1.00
O851   O     0.24480   0.41892   0.43612   0.00000  Uiso   1.00
O852   O     0.25520   0.58108   0.56388   0.00000  Uiso   1.00
C853   C     0.24845   0.40032   0.48467   0.00000  Uiso   1.00
C854   C     0.25170   0.59973   0.51540   0.00000  Uiso   1.00
O855   O     0.18936   0.50488   0.55191   0.00000  Uiso   1.00
O856   O     0.31065   0.49512   0.44809   0.00000  Uiso   1.00
O857   O     0.18090   0.49510   0.44810   0.00000  Uiso   1.00
O858   O     0.31910   0.50490   0.55190   0.00000  Uiso   1.00
C859   C     0.16470   0.49847   0.50057   0.00000  Uiso   1.00
C860   C     0.33522   0.49980   0.49902   0.00000  Uiso   1.00
Cu861  Cu    0.25501   0.50579   0.56146   0.00000  Uiso   1.00
Cu862  Cu    0.24500   0.49421   0.43854   0.00000  Uiso   1.00
C863   C     0.40952   0.54633   0.50577   0.00000  Uiso   1.00
C864   C     0.08983   0.45119   0.47773   0.00000  Uiso   1.00
C865   C     0.38351   0.49970   0.49779   0.00000  Uiso   1.00
C866   C     0.11634   0.49749   0.50102   0.00000  Uiso   1.00
C867   C     0.40361   0.45333   0.49160   0.00000  Uiso   1.00
C868   C     0.09657   0.54431   0.51644   0.00000  Uiso   1.00
C869   C     0.44984   0.45249   0.48815   0.00000  Uiso   1.00
C870   C     0.05019   0.54525   0.51759   0.00000  Uiso   1.00
C871   C     0.47668   0.49932   0.50226   0.00000  Uiso   1.00
C872   C     0.02343   0.49829   0.50211   0.00000  Uiso   1.00
C873   C     0.45652   0.54705   0.51378   0.00000  Uiso   1.00
C874   C     0.04321   0.45061   0.48247   0.00000  Uiso   1.00
C875   C     0.46946   0.40573   0.46997   0.00000  Uiso   1.00
C876   C     0.03024   0.59251   0.53095   0.00000  Uiso   1.00
C877   C     0.01566   0.40413   0.46526   0.00000  Uiso   1.00
C878   C     0.48348   0.59401   0.52931   0.00000  Uiso   1.00
C879   C     0.24690   0.34431   0.47628   0.00000  Uiso   1.00
C880   C     0.25370   0.65559   0.52399   0.00000  Uiso   1.00
N881   N     0.23745   0.48547   0.34617   0.00000  Uiso   1.00
N882   N     0.26256   0.51453   0.65383   0.00000  Uiso   1.00
O883   O     0.38910   0.59103   0.50345   0.00000  Uiso   1.00
C884   C     0.37334   0.59222   0.44355   0.00000  Uiso   1.00
H885   H     0.38143   0.63181   0.43891   0.00000  Uiso   1.00
H886   H     0.33659   0.58775   0.44060   0.00000  Uiso   1.00
C887   C     0.39129   0.55335   0.38927   0.00000  Uiso   1.00
H888   H     0.42667   0.54701   0.39802   0.00000  Uiso   1.00
H889   H     0.37229   0.51526   0.38157   0.00000  Uiso   1.00
C890   C     0.38759   0.57161   0.66416   0.00000  Uiso   1.00
H891   H     0.35235   0.57433   0.65017   0.00000  Uiso   1.00
H892   H     0.40224   0.54337   0.62807   0.00000  Uiso   1.00
H893   H     0.40605   0.60977   0.33650   0.00000  Uiso   1.00
O894   O     0.10894   0.40701   0.44800   0.00000  Uiso   1.00
C895   C     0.11799   0.40763   0.38707   0.00000  Uiso   1.00
H896   H     0.11430   0.36729   0.36038   0.00000  Uiso   1.00
H897   H     0.15350   0.41856   0.38431   0.00000  Uiso   1.00
C898   C     0.08843   0.43979   0.35444   0.00000  Uiso   1.00
H899   H     0.05302   0.42788   0.35692   0.00000  Uiso   1.00
H900   H     0.09463   0.48158   0.37618   0.00000  Uiso   1.00
C901   C     0.09780   0.43233   0.62155   0.00000  Uiso   1.00
H902   H     0.13251   0.44632   0.61719   0.00000  Uiso   1.00
H903   H     0.07481   0.45509   0.60039   0.00000  Uiso   1.00
H904   H     0.09230   0.39102   0.59763   0.00000  Uiso   1.00
F905   F     0.37776   0.40940   0.48904   0.00000  Uiso   1.00
F906   F     0.12276   0.58897   0.52499   0.00000  Uiso   1.00
F907   F     0.44358   0.36093   0.45430   0.00000  Uiso   1.00
F908   F     0.05623   0.63726   0.54034   0.00000  Uiso   1.00
O909   O     0.03385   0.35634   0.44941   0.00000  Uiso   1.00
C910   C     0.01949   0.66438   0.38899   0.00000  Uiso   1.00
H911   H     0.04707   0.66616   0.35953   0.00000  Uiso   1.00
H912   H     0.49092   0.34878   0.37128   0.00000  Uiso   1.00
C913   C     0.00386   0.60790   0.38293   0.00000  Uiso   1.00
H914   H     0.48368   0.60539   0.42094   0.00000  Uiso   1.00
H915   H     0.48231   0.59405   0.34048   0.00000  Uiso   1.00
C916   C     0.04178   0.57239   0.38008   0.00000  Uiso   1.00
H917   H     0.05430   0.56490   0.33428   0.00000  Uiso   1.00
H918   H     0.02909   0.53475   0.38795   0.00000  Uiso   1.00
H919   H     0.06917   0.58972   0.41450   0.00000  Uiso   1.00
O920   O     0.46305   0.64006   0.53283   0.00000  Uiso   1.00
C921   C     0.48154   0.34795   0.57988   0.00000  Uiso   1.00
H922   H     0.00461   0.37314   0.56176   0.00000  Uiso   1.00
H923   H     0.00143   0.33449   0.61375   0.00000  Uiso   1.00
C924   C     0.44394   0.37897   0.60876   0.00000  Uiso   1.00
H925   H     0.41829   0.38169   0.57314   0.00000  Uiso   1.00
H926   H     0.42807   0.35795   0.63959   0.00000  Uiso   1.00
C927   C     0.45999   0.43374   0.64362   0.00000  Uiso   1.00
H928   H     0.47837   0.43290   0.35336   0.00000  Uiso   1.00
H929   H     0.43090   0.45695   0.65456   0.00000  Uiso   1.00
H930   H     0.48156   0.45324   0.61639   0.00000  Uiso   1.00
O931   O     0.24073   0.64756   0.41763   0.00000  Uiso   1.00
C932   C     0.19712   0.65078   0.39299   0.00000  Uiso   1.00
H933   H     0.20042   0.66593   0.35173   0.00000  Uiso   1.00
H934   H     0.17647   0.34414   0.42341   0.00000  Uiso   1.00
C935   C     0.17220   0.59717   0.37751   0.00000  Uiso   1.00
H936   H     0.19596   0.56686   0.37196   0.00000  Uiso   1.00
H937   H     0.15105   0.59267   0.41462   0.00000  Uiso   1.00
C938   C     0.14413   0.58761   0.65172   0.00000  Uiso   1.00
H939   H     0.11799   0.61538   0.65426   0.00000  Uiso   1.00
H940   H     0.12833   0.54763   0.64075   0.00000  Uiso   1.00
H941   H     0.16618   0.59193   0.61562   0.00000  Uiso   1.00
O942   O     0.25831   0.35121   0.58326   0.00000  Uiso   1.00
C943   C     0.30308   0.37090   0.59874   0.00000  Uiso   1.00
H944   H     0.30232   0.41203   0.62330   0.00000  Uiso   1.00
H945   H     0.32322   0.37167   0.55916   0.00000  Uiso   1.00
C946   C     0.32622   0.34071   0.63930   0.00000  Uiso   1.00
H947   H     0.30197   0.64732   0.65407   0.00000  Uiso   1.00
H948   H     0.35099   0.65067   0.61308   0.00000  Uiso   1.00
C949   C     0.34947   0.37701   0.36202   0.00000  Uiso   1.00
H950   H     0.36849   0.40982   0.35042   0.00000  Uiso   1.00
H951   H     0.37299   0.35561   0.38375   0.00000  Uiso   1.00
H952   H     0.32444   0.39246   0.39408   0.00000  Uiso   1.00
F953   F     0.21595   0.44418   0.64228   0.00000  Uiso   1.00
F954   F     0.28166   0.55732   0.35736   0.00000  Uiso   1.00
O955   O     0.75326   0.42871   0.53992   0.00000  Uiso   1.00
O956   O     0.74675   0.57129   0.46008   0.00000  Uiso   1.00
O957   O     0.74480   0.41892   0.43612   0.00000  Uiso   1.00
O958   O     0.75520   0.58108   0.56388   0.00000  Uiso   1.00
C959   C     0.74845   0.40032   0.48467   0.00000  Uiso   1.00
C960   C     0.75170   0.59973   0.51540   0.00000  Uiso   1.00
O961   O     0.68936   0.50488   0.55191   0.00000  Uiso   1.00
O962   O     0.81065   0.49512   0.44809   0.00000  Uiso   1.00
O963   O     0.68090   0.49510   0.44810   0.00000  Uiso   1.00
O964   O     0.81910   0.50490   0.55190   0.00000  Uiso   1.00
C965   C     0.66470   0.49847   0.50057   0.00000  Uiso   1.00
C966   C     0.83522   0.49980   0.49902   0.00000  Uiso   1.00
Cu967  Cu    0.75501   0.50579   0.56146   0.00000  Uiso   1.00
Cu968  Cu    0.74500   0.49421   0.43854   0.00000  Uiso   1.00
C969   C     0.90952   0.54633   0.50577   0.00000  Uiso   1.00
C970   C     0.58983   0.45119   0.47773   0.00000  Uiso   1.00
C971   C     0.88351   0.49970   0.49779   0.00000  Uiso   1.00
C972   C     0.61634   0.49749   0.50102   0.00000  Uiso   1.00
C973   C     0.90361   0.45333   0.49160   0.00000  Uiso   1.00
C974   C     0.59657   0.54431   0.51644   0.00000  Uiso   1.00
C975   C     0.94984   0.45249   0.48815   0.00000  Uiso   1.00
C976   C     0.55019   0.54525   0.51759   0.00000  Uiso   1.00
C977   C     0.97668   0.49932   0.50226   0.00000  Uiso   1.00
C978   C     0.52343   0.49829   0.50211   0.00000  Uiso   1.00
C979   C     0.95652   0.54705   0.51378   0.00000  Uiso   1.00
C980   C     0.54321   0.45061   0.48247   0.00000  Uiso   1.00
C981   C     0.96946   0.40573   0.46997   0.00000  Uiso   1.00
C982   C     0.53024   0.59251   0.53095   0.00000  Uiso   1.00
C983   C     0.51566   0.40413   0.46526   0.00000  Uiso   1.00
C984   C     0.98348   0.59401   0.52931   0.00000  Uiso   1.00
C985   C     0.74690   0.34431   0.47628   0.00000  Uiso   1.00
C986   C     0.75370   0.65559   0.52399   0.00000  Uiso   1.00
N987   N     0.73745   0.48547   0.34617   0.00000  Uiso   1.00
N988   N     0.76256   0.51453   0.65383   0.00000  Uiso   1.00
O989   O     0.88910   0.59103   0.50345   0.00000  Uiso   1.00
C990   C     0.87334   0.59222   0.44355   0.00000  Uiso   1.00
H991   H     0.88143   0.63181   0.43891   0.00000  Uiso   1.00
H992   H     0.83659   0.58775   0.44060   0.00000  Uiso   1.00
C993   C     0.89129   0.55335   0.38927   0.00000  Uiso   1.00
H994   H     0.92667   0.54701   0.39802   0.00000  Uiso   1.00
H995   H     0.87229   0.51526   0.38157   0.00000  Uiso   1.00
C996   C     0.88759   0.57161   0.66416   0.00000  Uiso   1.00
H997   H     0.85235   0.57433   0.65017   0.00000  Uiso   1.00
H998   H     0.90224   0.54337   0.62807   0.00000  Uiso   1.00
H999   H     0.90605   0.60977   0.33650   0.00000  Uiso   1.00
O1000  O     0.60894   0.40701   0.44800   0.00000  Uiso   1.00
C1001  C     0.61799   0.40763   0.38707   0.00000  Uiso   1.00
H1002  H     0.61430   0.36729   0.36038   0.00000  Uiso   1.00
H1003  H     0.65350   0.41856   0.38431   0.00000  Uiso   1.00
C1004  C     0.58843   0.43979   0.35444   0.00000  Uiso   1.00
H1005  H     0.55302   0.42788   0.35692   0.00000  Uiso   1.00
H1006  H     0.59463   0.48158   0.37618   0.00000  Uiso   1.00
C1007  C     0.59780   0.43233   0.62155   0.00000  Uiso   1.00
H1008  H     0.63251   0.44632   0.61719   0.00000  Uiso   1.00
H1009  H     0.57481   0.45509   0.60039   0.00000  Uiso   1.00
H1010  H     0.59230   0.39102   0.59763   0.00000  Uiso   1.00
F1011  F     0.87776   0.40940   0.48904   0.00000  Uiso   1.00
F1012  F     0.62276   0.58897   0.52499   0.00000  Uiso   1.00
F1013  F     0.94358   0.36093   0.45430   0.00000  Uiso   1.00
F1014  F     0.55623   0.63726   0.54034   0.00000  Uiso   1.00
O1015  O     0.53385   0.35634   0.44941   0.00000  Uiso   1.00
C1016  C     0.51949   0.66438   0.38899   0.00000  Uiso   1.00
H1017  H     0.54707   0.66616   0.35953   0.00000  Uiso   1.00
H1018  H     0.99092   0.34878   0.37128   0.00000  Uiso   1.00
C1019  C     0.50386   0.60790   0.38293   0.00000  Uiso   1.00
H1020  H     0.98368   0.60539   0.42094   0.00000  Uiso   1.00
H1021  H     0.98231   0.59405   0.34048   0.00000  Uiso   1.00
C1022  C     0.54178   0.57239   0.38008   0.00000  Uiso   1.00
H1023  H     0.55430   0.56490   0.33428   0.00000  Uiso   1.00
H1024  H     0.52909   0.53475   0.38795   0.00000  Uiso   1.00
H1025  H     0.56917   0.58972   0.41450   0.00000  Uiso   1.00
O1026  O     0.96305   0.64006   0.53283   0.00000  Uiso   1.00
C1027  C     0.98154   0.34795   0.57988   0.00000  Uiso   1.00
H1028  H     0.50461   0.37314   0.56176   0.00000  Uiso   1.00
H1029  H     0.50143   0.33449   0.61375   0.00000  Uiso   1.00
C1030  C     0.94394   0.37897   0.60876   0.00000  Uiso   1.00
H1031  H     0.91829   0.38169   0.57314   0.00000  Uiso   1.00
H1032  H     0.92807   0.35795   0.63959   0.00000  Uiso   1.00
C1033  C     0.95999   0.43374   0.64362   0.00000  Uiso   1.00
H1034  H     0.97837   0.43290   0.35336   0.00000  Uiso   1.00
H1035  H     0.93090   0.45695   0.65456   0.00000  Uiso   1.00
H1036  H     0.98156   0.45324   0.61639   0.00000  Uiso   1.00
O1037  O     0.74073   0.64756   0.41763   0.00000  Uiso   1.00
C1038  C     0.69712   0.65078   0.39299   0.00000  Uiso   1.00
H1039  H     0.70042   0.66593   0.35173   0.00000  Uiso   1.00
H1040  H     0.67647   0.34414   0.42341   0.00000  Uiso   1.00
C1041  C     0.67220   0.59717   0.37751   0.00000  Uiso   1.00
H1042  H     0.69596   0.56686   0.37196   0.00000  Uiso   1.00
H1043  H     0.65105   0.59267   0.41462   0.00000  Uiso   1.00
C1044  C     0.64413   0.58761   0.65172   0.00000  Uiso   1.00
H1045  H     0.61799   0.61538   0.65426   0.00000  Uiso   1.00
H1046  H     0.62833   0.54763   0.64075   0.00000  Uiso   1.00
H1047  H     0.66618   0.59193   0.61562   0.00000  Uiso   1.00
O1048  O     0.75831   0.35121   0.58326   0.00000  Uiso   1.00
C1049  C     0.80308   0.37090   0.59874   0.00000  Uiso   1.00
H1050  H     0.80232   0.41203   0.62330   0.00000  Uiso   1.00
H1051  H     0.82322   0.37167   0.55916   0.00000  Uiso   1.00
C1052  C     0.82622   0.34071   0.63930   0.00000  Uiso   1.00
H1053  H     0.80197   0.64732   0.65407   0.00000  Uiso   1.00
H1054  H     0.85099   0.65067   0.61308   0.00000  Uiso   1.00
C1055  C     0.84947   0.37701   0.36202   0.00000  Uiso   1.00
H1056  H     0.86849   0.40982   0.35042   0.00000  Uiso   1.00
H1057  H     0.87299   0.35561   0.38375   0.00000  Uiso   1.00
H1058  H     0.82444   0.39246   0.39408   0.00000  Uiso   1.00
F1059  F     0.71595   0.44418   0.64228   0.00000  Uiso   1.00
F1060  F     0.78166   0.55732   0.35736   0.00000  Uiso   1.00
O1061  O     0.25326   0.76204   0.53992   0.00000  Uiso   1.00
O1062  O     0.24675   0.90462   0.46008   0.00000  Uiso   1.00
O1063  O     0.24480   0.75226   0.43612   0.00000  Uiso   1.00
O1064  O     0.25520   0.91441   0.56388   0.00000  Uiso   1.00
C1065  C     0.24845   0.73365   0.48467   0.00000  Uiso   1.00
C1066  C     0.25170   0.93306   0.51540   0.00000  Uiso   1.00
O1067  O     0.18936   0.83821   0.55191   0.00000  Uiso   1.00
O1068  O     0.31065   0.82845   0.44809   0.00000  Uiso   1.00
O1069  O     0.18090   0.82843   0.44810   0.00000  Uiso   1.00
O1070  O     0.31910   0.83824   0.55190   0.00000  Uiso   1.00
C1071  C     0.16470   0.83180   0.50057   0.00000  Uiso   1.00
C1072  C     0.33522   0.83313   0.49902   0.00000  Uiso   1.00
Cu1073 Cu    0.25501   0.83913   0.56146   0.00000  Uiso   1.00
Cu1074 Cu    0.24500   0.82754   0.43854   0.00000  Uiso   1.00
C1075  C     0.40952   0.87967   0.50577   0.00000  Uiso   1.00
C1076  C     0.08983   0.78452   0.47773   0.00000  Uiso   1.00
C1077  C     0.38351   0.83303   0.49779   0.00000  Uiso   1.00
C1078  C     0.11634   0.83082   0.50102   0.00000  Uiso   1.00
C1079  C     0.40361   0.78667   0.49160   0.00000  Uiso   1.00
C1080  C     0.09657   0.87764   0.51644   0.00000  Uiso   1.00
C1081  C     0.44984   0.78582   0.48815   0.00000  Uiso   1.00
C1082  C     0.05019   0.87858   0.51759   0.00000  Uiso   1.00
C1083  C     0.47668   0.83266   0.50226   0.00000  Uiso   1.00
C1084  C     0.02343   0.83162   0.50211   0.00000  Uiso   1.00
C1085  C     0.45652   0.88038   0.51378   0.00000  Uiso   1.00
C1086  C     0.04321   0.78395   0.48247   0.00000  Uiso   1.00
C1087  C     0.46946   0.73907   0.46997   0.00000  Uiso   1.00
C1088  C     0.03024   0.92584   0.53095   0.00000  Uiso   1.00
C1089  C     0.01566   0.73746   0.46526   0.00000  Uiso   1.00
C1090  C     0.48348   0.92734   0.52931   0.00000  Uiso   1.00
C1091  C     0.24690   0.67764   0.47628   0.00000  Uiso   1.00
C1092  C     0.25370   0.98892   0.52399   0.00000  Uiso   1.00
N1093  N     0.23745   0.81881   0.34617   0.00000  Uiso   1.00
N1094  N     0.26256   0.84786   0.65383   0.00000  Uiso   1.00
O1095  O     0.38910   0.92436   0.50345   0.00000  Uiso   1.00
C1096  C     0.37334   0.92556   0.44355   0.00000  Uiso   1.00
H1097  H     0.38143   0.96514   0.43891   0.00000  Uiso   1.00
H1098  H     0.33659   0.92109   0.44060   0.00000  Uiso   1.00
C1099  C     0.39129   0.88669   0.38927   0.00000  Uiso   1.00
H1100  H     0.42667   0.88034   0.39802   0.00000  Uiso   1.00
H1101  H     0.37229   0.84859   0.38157   0.00000  Uiso   1.00
C1102  C     0.38759   0.90494   0.66416   0.00000  Uiso   1.00
H1103  H     0.35235   0.90766   0.65017   0.00000  Uiso   1.00
H1104  H     0.40224   0.87670   0.62807   0.00000  Uiso   1.00
H1105  H     0.40605   0.94310   0.33650   0.00000  Uiso   1.00
O1106  O     0.10894   0.74034   0.44800   0.00000  Uiso   1.00
C1107  C     0.11799   0.74096   0.38707   0.00000  Uiso   1.00
H1108  H     0.11430   0.70062   0.36038   0.00000  Uiso   1.00
H1109  H     0.15350   0.75190   0.38431   0.00000  Uiso   1.00
C1110  C     0.08843   0.77312   0.35444   0.00000  Uiso   1.00
H1111  H     0.05302   0.76121   0.35692   0.00000  Uiso   1.00
H1112  H     0.09463   0.81492   0.37618   0.00000  Uiso   1.00
C1113  C     0.09780   0.76566   0.62155   0.00000  Uiso   1.00
H1114  H     0.13251   0.77965   0.61719   0.00000  Uiso   1.00
H1115  H     0.07481   0.78843   0.60039   0.00000  Uiso   1.00
H1116  H     0.09230   0.72435   0.59763   0.00000  Uiso   1.00
F1117  F     0.37776   0.74273   0.48904   0.00000  Uiso   1.00
F1118  F     0.12276   0.92230   0.52499   0.00000  Uiso   1.00
F1119  F     0.44358   0.69426   0.45430   0.00000  Uiso   1.00
F1120  F     0.05623   0.97060   0.54034   0.00000  Uiso   1.00
O1121  O     0.03385   0.68968   0.44941   0.00000  Uiso   1.00
C1122  C     0.01949   0.99771   0.38899   0.00000  Uiso   1.00
H1123  H     0.04707   0.99949   0.35953   0.00000  Uiso   1.00
H1124  H     0.49092   0.68211   0.37128   0.00000  Uiso   1.00
C1125  C     0.00386   0.94123   0.38293   0.00000  Uiso   1.00
H1126  H     0.48368   0.93872   0.42094   0.00000  Uiso   1.00
H1127  H     0.48231   0.92738   0.34048   0.00000  Uiso   1.00
C1128  C     0.04178   0.90572   0.38008   0.00000  Uiso   1.00
H1129  H     0.05430   0.89824   0.33428   0.00000  Uiso   1.00
H1130  H     0.02909   0.86809   0.38795   0.00000  Uiso   1.00
H1131  H     0.06917   0.92305   0.41450   0.00000  Uiso   1.00
O1132  O     0.46305   0.97339   0.53283   0.00000  Uiso   1.00
C1133  C     0.48154   0.68129   0.57988   0.00000  Uiso   1.00
H1134  H     0.00461   0.70647   0.56176   0.00000  Uiso   1.00
H1135  H     0.00143   0.66783   0.61375   0.00000  Uiso   1.00
C1136  C     0.44394   0.71231   0.60876   0.00000  Uiso   1.00
H1137  H     0.41829   0.71502   0.57314   0.00000  Uiso   1.00
H1138  H     0.42807   0.69128   0.63959   0.00000  Uiso   1.00
C1139  C     0.45999   0.76707   0.64362   0.00000  Uiso   1.00
H1140  H     0.47837   0.76624   0.35336   0.00000  Uiso   1.00
H1141  H     0.43090   0.79028   0.65456   0.00000  Uiso   1.00
H1142  H     0.48156   0.78657   0.61639   0.00000  Uiso   1.00
O1143  O     0.24073   0.98090   0.41763   0.00000  Uiso   1.00
C1144  C     0.19712   0.98412   0.39299   0.00000  Uiso   1.00
H1145  H     0.20042   0.99927   0.35173   0.00000  Uiso   1.00
H1146  H     0.17647   0.67747   0.42341   0.00000  Uiso   1.00
C1147  C     0.17220   0.93051   0.37751   0.00000  Uiso   1.00
H1148  H     0.19596   0.90020   0.37196   0.00000  Uiso   1.00
H1149  H     0.15105   0.92601   0.41462   0.00000  Uiso   1.00
C1150  C     0.14413   0.92094   0.65172   0.00000  Uiso   1.00
H1151  H     0.11799   0.94871   0.65426   0.00000  Uiso   1.00
H1152  H     0.12833   0.88096   0.64075   0.00000  Uiso   1.00
H1153  H     0.16618   0.92527   0.61562   0.00000  Uiso   1.00
O1154  O     0.25831   0.68455   0.58326   0.00000  Uiso   1.00
C1155  C     0.30308   0.70424   0.59874   0.00000  Uiso   1.00
H1156  H     0.30232   0.74536   0.62330   0.00000  Uiso   1.00
H1157  H     0.32322   0.70501   0.55916   0.00000  Uiso   1.00
C1158  C     0.32622   0.67404   0.63930   0.00000  Uiso   1.00
H1159  H     0.30197   0.98065   0.65407   0.00000  Uiso   1.00
H1160  H     0.35099   0.98401   0.61308   0.00000  Uiso   1.00
C1161  C     0.34947   0.71035   0.36202   0.00000  Uiso   1.00
H1162  H     0.36849   0.74315   0.35042   0.00000  Uiso   1.00
H1163  H     0.37299   0.68894   0.38375   0.00000  Uiso   1.00
H1164  H     0.32444   0.72580   0.39408   0.00000  Uiso   1.00
F1165  F     0.21595   0.77751   0.64228   0.00000  Uiso   1.00
F1166  F     0.28166   0.89066   0.35736   0.00000  Uiso   1.00
O1167  O     0.75326   0.76204   0.53992   0.00000  Uiso   1.00
O1168  O     0.74675   0.90462   0.46008   0.00000  Uiso   1.00
O1169  O     0.74480   0.75226   0.43612   0.00000  Uiso   1.00
O1170  O     0.75520   0.91441   0.56388   0.00000  Uiso   1.00
C1171  C     0.74845   0.73365   0.48467   0.00000  Uiso   1.00
C1172  C     0.75170   0.93306   0.51540   0.00000  Uiso   1.00
O1173  O     0.68936   0.83821   0.55191   0.00000  Uiso   1.00
O1174  O     0.81065   0.82845   0.44809   0.00000  Uiso   1.00
O1175  O     0.68090   0.82843   0.44810   0.00000  Uiso   1.00
O1176  O     0.81910   0.83824   0.55190   0.00000  Uiso   1.00
C1177  C     0.66470   0.83180   0.50057   0.00000  Uiso   1.00
C1178  C     0.83522   0.83313   0.49902   0.00000  Uiso   1.00
Cu1179 Cu    0.75501   0.83913   0.56146   0.00000  Uiso   1.00
Cu1180 Cu    0.74500   0.82754   0.43854   0.00000  Uiso   1.00
C1181  C     0.90952   0.87967   0.50577   0.00000  Uiso   1.00
C1182  C     0.58983   0.78452   0.47773   0.00000  Uiso   1.00
C1183  C     0.88351   0.83303   0.49779   0.00000  Uiso   1.00
C1184  C     0.61634   0.83082   0.50102   0.00000  Uiso   1.00
C1185  C     0.90361   0.78667   0.49160   0.00000  Uiso   1.00
C1186  C     0.59657   0.87764   0.51644   0.00000  Uiso   1.00
C1187  C     0.94984   0.78582   0.48815   0.00000  Uiso   1.00
C1188  C     0.55019   0.87858   0.51759   0.00000  Uiso   1.00
C1189  C     0.97668   0.83266   0.50226   0.00000  Uiso   1.00
C1190  C     0.52343   0.83162   0.50211   0.00000  Uiso   1.00
C1191  C     0.95652   0.88038   0.51378   0.00000  Uiso   1.00
C1192  C     0.54321   0.78395   0.48247   0.00000  Uiso   1.00
C1193  C     0.96946   0.73907   0.46997   0.00000  Uiso   1.00
C1194  C     0.53024   0.92584   0.53095   0.00000  Uiso   1.00
C1195  C     0.51566   0.73746   0.46526   0.00000  Uiso   1.00
C1196  C     0.98348   0.92734   0.52931   0.00000  Uiso   1.00
C1197  C     0.74690   0.67764   0.47628   0.00000  Uiso   1.00
C1198  C     0.75370   0.98892   0.52399   0.00000  Uiso   1.00
N1199  N     0.73745   0.81881   0.34617   0.00000  Uiso   1.00
N1200  N     0.76256   0.84786   0.65383   0.00000  Uiso   1.00
O1201  O     0.88910   0.92436   0.50345   0.00000  Uiso   1.00
C1202  C     0.87334   0.92556   0.44355   0.00000  Uiso   1.00
H1203  H     0.88143   0.96514   0.43891   0.00000  Uiso   1.00
H1204  H     0.83659   0.92109   0.44060   0.00000  Uiso   1.00
C1205  C     0.89129   0.88669   0.38927   0.00000  Uiso   1.00
H1206  H     0.92667   0.88034   0.39802   0.00000  Uiso   1.00
H1207  H     0.87229   0.84859   0.38157   0.00000  Uiso   1.00
C1208  C     0.88759   0.90494   0.66416   0.00000  Uiso   1.00
H1209  H     0.85235   0.90766   0.65017   0.00000  Uiso   1.00
H1210  H     0.90224   0.87670   0.62807   0.00000  Uiso   1.00
H1211  H     0.90605   0.94310   0.33650   0.00000  Uiso   1.00
O1212  O     0.60894   0.74034   0.44800   0.00000  Uiso   1.00
C1213  C     0.61799   0.74096   0.38707   0.00000  Uiso   1.00
H1214  H     0.61430   0.70062   0.36038   0.00000  Uiso   1.00
H1215  H     0.65350   0.75190   0.38431   0.00000  Uiso   1.00
C1216  C     0.58843   0.77312   0.35444   0.00000  Uiso   1.00
H1217  H     0.55302   0.76121   0.35692   0.00000  Uiso   1.00
H1218  H     0.59463   0.81492   0.37618   0.00000  Uiso   1.00
C1219  C     0.59780   0.76566   0.62155   0.00000  Uiso   1.00
H1220  H     0.63251   0.77965   0.61719   0.00000  Uiso   1.00
H1221  H     0.57481   0.78843   0.60039   0.00000  Uiso   1.00
H1222  H     0.59230   0.72435   0.59763   0.00000  Uiso   1.00
F1223  F     0.87776   0.74273   0.48904   0.00000  Uiso   1.00
F1224  F     0.62276   0.92230   0.52499   0.00000  Uiso   1.00
F1225  F     0.94358   0.69426   0.45430   0.00000  Uiso   1.00
F1226  F     0.55623   0.97060   0.54034   0.00000  Uiso   1.00
O1227  O     0.53385   0.68968   0.44941   0.00000  Uiso   1.00
C1228  C     0.51949   0.99771   0.38899   0.00000  Uiso   1.00
H1229  H     0.54707   0.99949   0.35953   0.00000  Uiso   1.00
H1230  H     0.99092   0.68211   0.37128   0.00000  Uiso   1.00
C1231  C     0.50386   0.94123   0.38293   0.00000  Uiso   1.00
H1232  H     0.98368   0.93872   0.42094   0.00000  Uiso   1.00
H1233  H     0.98231   0.92738   0.34048   0.00000  Uiso   1.00
C1234  C     0.54178   0.90572   0.38008   0.00000  Uiso   1.00
H1235  H     0.55430   0.89824   0.33428   0.00000  Uiso   1.00
H1236  H     0.52909   0.86809   0.38795   0.00000  Uiso   1.00
H1237  H     0.56917   0.92305   0.41450   0.00000  Uiso   1.00
O1238  O     0.96305   0.97339   0.53283   0.00000  Uiso   1.00
C1239  C     0.98154   0.68129   0.57988   0.00000  Uiso   1.00
H1240  H     0.50461   0.70647   0.56176   0.00000  Uiso   1.00
H1241  H     0.50143   0.66783   0.61375   0.00000  Uiso   1.00
C1242  C     0.94394   0.71231   0.60876   0.00000  Uiso   1.00
H1243  H     0.91829   0.71502   0.57314   0.00000  Uiso   1.00
H1244  H     0.92807   0.69128   0.63959   0.00000  Uiso   1.00
C1245  C     0.95999   0.76707   0.64362   0.00000  Uiso   1.00
H1246  H     0.97837   0.76624   0.35336   0.00000  Uiso   1.00
H1247  H     0.93090   0.79028   0.65456   0.00000  Uiso   1.00
H1248  H     0.98156   0.78657   0.61639   0.00000  Uiso   1.00
O1249  O     0.74073   0.98090   0.41763   0.00000  Uiso   1.00
C1250  C     0.69712   0.98412   0.39299   0.00000  Uiso   1.00
H1251  H     0.70042   0.99927   0.35173   0.00000  Uiso   1.00
H1252  H     0.67647   0.67747   0.42341   0.00000  Uiso   1.00
C1253  C     0.67220   0.93051   0.37751   0.00000  Uiso   1.00
H1254  H     0.69596   0.90020   0.37196   0.00000  Uiso   1.00
H1255  H     0.65105   0.92601   0.41462   0.00000  Uiso   1.00
C1256  C     0.64413   0.92094   0.65172   0.00000  Uiso   1.00
H1257  H     0.61799   0.94871   0.65426   0.00000  Uiso   1.00
H1258  H     0.62833   0.88096   0.64075   0.00000  Uiso   1.00
H1259  H     0.66618   0.92527   0.61562   0.00000  Uiso   1.00
O1260  O     0.75831   0.68455   0.58326   0.00000  Uiso   1.00
C1261  C     0.80308   0.70424   0.59874   0.00000  Uiso   1.00
H1262  H     0.80232   0.74536   0.62330   0.00000  Uiso   1.00
H1263  H     0.82322   0.70501   0.55916   0.00000  Uiso   1.00
C1264  C     0.82622   0.67404   0.63930   0.00000  Uiso   1.00
H1265  H     0.80197   0.98065   0.65407   0.00000  Uiso   1.00
H1266  H     0.85099   0.98401   0.61308   0.00000  Uiso   1.00
C1267  C     0.84947   0.71035   0.36202   0.00000  Uiso   1.00
H1268  H     0.86849   0.74315   0.35042   0.00000  Uiso   1.00
H1269  H     0.87299   0.68894   0.38375   0.00000  Uiso   1.00
H1270  H     0.82444   0.72580   0.39408   0.00000  Uiso   1.00
F1271  F     0.71595   0.77751   0.64228   0.00000  Uiso   1.00
F1272  F     0.78166   0.89066   0.35736   0.00000  Uiso   1.00
O1273  O     0.25326   0.09538   0.87326   0.00000  Uiso   1.00
O1274  O     0.24675   0.23796   0.79341   0.00000  Uiso   1.00
O1275  O     0.24480   0.08559   0.76945   0.00000  Uiso   1.00
O1276  O     0.25520   0.24774   0.89721   0.00000  Uiso   1.00
C1277  C     0.24845   0.06698   0.81800   0.00000  Uiso   1.00
C1278  C     0.25170   0.26639   0.84874   0.00000  Uiso   1.00
O1279  O     0.18936   0.17155   0.88524   0.00000  Uiso   1.00
O1280  O     0.31065   0.16179   0.78143   0.00000  Uiso   1.00
O1281  O     0.18090   0.16176   0.78143   0.00000  Uiso   1.00
O1282  O     0.31910   0.17157   0.88523   0.00000  Uiso   1.00
C1283  C     0.16470   0.16514   0.83390   0.00000  Uiso   1.00
C1284  C     0.33522   0.16647   0.83235   0.00000  Uiso   1.00
Cu1285 Cu    0.25501   0.17246   0.89479   0.00000  Uiso   1.00
Cu1286 Cu    0.24500   0.16087   0.77187   0.00000  Uiso   1.00
C1287  C     0.40952   0.21300   0.83911   0.00000  Uiso   1.00
C1288  C     0.08983   0.11786   0.81106   0.00000  Uiso   1.00
C1289  C     0.38351   0.16637   0.83112   0.00000  Uiso   1.00
C1290  C     0.11634   0.16416   0.83435   0.00000  Uiso   1.00
C1291  C     0.40361   0.12000   0.82493   0.00000  Uiso   1.00
C1292  C     0.09657   0.21098   0.84977   0.00000  Uiso   1.00
C1293  C     0.44984   0.11916   0.82149   0.00000  Uiso   1.00
C1294  C     0.05019   0.21191   0.85092   0.00000  Uiso   1.00
C1295  C     0.47668   0.16599   0.83560   0.00000  Uiso   1.00
C1296  C     0.02343   0.16496   0.83544   0.00000  Uiso   1.00
C1297  C     0.45652   0.21372   0.84711   0.00000  Uiso   1.00
C1298  C     0.04321   0.11728   0.81580   0.00000  Uiso   1.00
C1299  C     0.46946   0.07240   0.80330   0.00000  Uiso   1.00
C1300  C     0.03024   0.25918   0.86429   0.00000  Uiso   1.00
C1301  C     0.01566   0.07079   0.79860   0.00000  Uiso   1.00
C1302  C     0.48348   0.26068   0.86265   0.00000  Uiso   1.00
C1303  C     0.24690   0.01097   0.80962   0.00000  Uiso   1.00
C1304  C     0.25370   0.32225   0.85733   0.00000  Uiso   1.00
N1305  N     0.23745   0.15214   0.67951   0.00000  Uiso   1.00
N1306  N     0.26256   0.18119   0.98716   0.00000  Uiso   1.00
O1307  O     0.38910   0.25770   0.83678   0.00000  Uiso   1.00
C1308  C     0.37334   0.25889   0.77689   0.00000  Uiso   1.00
H1309  H     0.38143   0.29848   0.77225   0.00000  Uiso   1.00
H1310  H     0.33659   0.25442   0.77393   0.00000  Uiso   1.00
C1311  C     0.39129   0.22002   0.72261   0.00000  Uiso   1.00
H1312  H     0.42667   0.21367   0.73136   0.00000  Uiso   1.00
H1313  H     0.37229   0.18192   0.71490   0.00000  Uiso   1.00
C1314  C     0.38759   0.23827   0.99750   0.00000  Uiso   1.00
H1315  H     0.35235   0.24099   0.98350   0.00000  Uiso   1.00
H1316  H     0.40224   0.21003   0.96140   0.00000  Uiso   1.00
H1317  H     0.40605   0.27644   0.66983   0.00000  Uiso   1.00
O1318  O     0.10894   0.07367   0.78133   0.00000  Uiso   1.00
C1319  C     0.11799   0.07430   0.72040   0.00000  Uiso   1.00
H1320  H     0.11430   0.03395   0.69371   0.00000  Uiso   1.00
H1321  H     0.15350   0.08523   0.71764   0.00000  Uiso   1.00
C1322  C     0.08843   0.10646   0.68778   0.00000  Uiso   1.00
H1323  H     0.05302   0.09454   0.69026   0.00000  Uiso   1.00
H1324  H     0.09463   0.14825   0.70951   0.00000  Uiso   1.00
C1325  C     0.09780   0.09899   0.95488   0.00000  Uiso   1.00
H1326  H     0.13251   0.11299   0.95052   0.00000  Uiso   1.00
H1327  H     0.07481   0.12176   0.93372   0.00000  Uiso   1.00
H1328  H     0.09230   0.05769   0.93097   0.00000  Uiso   1.00
F1329  F     0.37776   0.07606   0.82238   0.00000  Uiso   1.00
F1330  F     0.12276   0.25563   0.85832   0.00000  Uiso   1.00
F1331  F     0.44358   0.02759   0.78763   0.00000  Uiso   1.00
F1332  F     0.05623   0.30393   0.87367   0.00000  Uiso   1.00
O1333  O     0.03385   0.02301   0.78274   0.00000  Uiso   1.00
C1334  C     0.01949   0.33104   0.72233   0.00000  Uiso   1.00
H1335  H     0.04707   0.33283   0.69287   0.00000  Uiso   1.00
H1336  H     0.49092   0.01545   0.70462   0.00000  Uiso   1.00
C1337  C     0.00386   0.27457   0.71626   0.00000  Uiso   1.00
H1338  H     0.48368   0.27205   0.75428   0.00000  Uiso   1.00
H1339  H     0.48231   0.26072   0.67381   0.00000  Uiso   1.00
C1340  C     0.04178   0.23905   0.71342   0.00000  Uiso   1.00
H1341  H     0.05430   0.23157   0.66761   0.00000  Uiso   1.00
H1342  H     0.02909   0.20142   0.72128   0.00000  Uiso   1.00
H1343  H     0.06917   0.25639   0.74783   0.00000  Uiso   1.00
O1344  O     0.46305   0.30672   0.86616   0.00000  Uiso   1.00
C1345  C     0.48154   0.01462   0.91321   0.00000  Uiso   1.00
H1346  H     0.00461   0.03980   0.89509   0.00000  Uiso   1.00
H1347  H     0.00143   0.00116   0.94708   0.00000  Uiso   1.00
C1348  C     0.44394   0.04564   0.94209   0.00000  Uiso   1.00
H1349  H     0.41829   0.04835   0.90647   0.00000  Uiso   1.00
H1350  H     0.42807   0.02461   0.97293   0.00000  Uiso   1.00
C1351  C     0.45999   0.10041   0.97696   0.00000  Uiso   1.00
H1352  H     0.47837   0.09957   0.68670   0.00000  Uiso   1.00
H1353  H     0.43090   0.12361   0.98789   0.00000  Uiso   1.00
H1354  H     0.48156   0.11991   0.94972   0.00000  Uiso   1.00
O1355  O     0.24073   0.31423   0.75097   0.00000  Uiso   1.00
C1356  C     0.19712   0.31745   0.72633   0.00000  Uiso   1.00
H1357  H     0.20042   0.33260   0.68506   0.00000  Uiso   1.00
H1358  H     0.17647   0.01081   0.75674   0.00000  Uiso   1.00
C1359  C     0.17220   0.26384   0.71084   0.00000  Uiso   1.00
H1360  H     0.19596   0.23353   0.70530   0.00000  Uiso   1.00
H1361  H     0.15105   0.25934   0.74796   0.00000  Uiso   1.00
C1362  C     0.14413   0.25428   0.98505   0.00000  Uiso   1.00
H1363  H     0.11799   0.28204   0.98759   0.00000  Uiso   1.00
H1364  H     0.12833   0.21430   0.97408   0.00000  Uiso   1.00
H1365  H     0.16618   0.25860   0.94895   0.00000  Uiso   1.00
O1366  O     0.25831   0.01788   0.91660   0.00000  Uiso   1.00
C1367  C     0.30308   0.03757   0.93208   0.00000  Uiso   1.00
H1368  H     0.30232   0.07870   0.95664   0.00000  Uiso   1.00
H1369  H     0.32322   0.03834   0.89249   0.00000  Uiso   1.00
C1370  C     0.32622   0.00738   0.97263   0.00000  Uiso   1.00
H1371  H     0.30197   0.31399   0.98741   0.00000  Uiso   1.00
H1372  H     0.35099   0.31734   0.94641   0.00000  Uiso   1.00
C1373  C     0.34947   0.04368   0.69536   0.00000  Uiso   1.00
H1374  H     0.36849   0.07648   0.68376   0.00000  Uiso   1.00
H1375  H     0.37299   0.02228   0.71709   0.00000  Uiso   1.00
H1376  H     0.32444   0.05913   0.72742   0.00000  Uiso   1.00
F1377  F     0.21595   0.11085   0.97561   0.00000  Uiso   1.00
F1378  F     0.28166   0.22399   0.69070   0.00000  Uiso   1.00
O1379  O     0.75326   0.09538   0.87326   0.00000  Uiso   1.00
O1380  O     0.74675   0.23796   0.79341   0.00000  Uiso   1.00
O1381  O     0.74480   0.08559   0.76945   0.00000  Uiso   1.00
O1382  O     0.75520   0.24774   0.89721   0.00000  Uiso   1.00
C1383  C     0.74845   0.06698   0.81800   0.00000  Uiso   1.00
C1384  C     0.75170   0.26639   0.84874   0.00000  Uiso   1.00
O1385  O     0.68936   0.17155   0.88524   0.00000  Uiso   1.00
O1386  O     0.81065   0.16179   0.78143   0.00000  Uiso   1.00
O1387  O     0.68090   0.16176   0.78143   0.00000  Uiso   1.00
O1388  O     0.81910   0.17157   0.88523   0.00000  Uiso   1.00
C1389  C     0.66470   0.16514   0.83390   0.00000  Uiso   1.00
C1390  C     0.83522   0.16647   0.83235   0.00000  Uiso   1.00
Cu1391 Cu    0.75501   0.17246   0.89479   0.00000  Uiso   1.00
Cu1392 Cu    0.74500   0.16087   0.77187   0.00000  Uiso   1.00
C1393  C     0.90952   0.21300   0.83911   0.00000  Uiso   1.00
C1394  C     0.58983   0.11786   0.81106   0.00000  Uiso   1.00
C1395  C     0.88351   0.16637   0.83112   0.00000  Uiso   1.00
C1396  C     0.61634   0.16416   0.83435   0.00000  Uiso   1.00
C1397  C     0.90361   0.12000   0.82493   0.00000  Uiso   1.00
C1398  C     0.59657   0.21098   0.84977   0.00000  Uiso   1.00
C1399  C     0.94984   0.11916   0.82149   0.00000  Uiso   1.00
C1400  C     0.55019   0.21191   0.85092   0.00000  Uiso   1.00
C1401  C     0.97668   0.16599   0.83560   0.00000  Uiso   1.00
C1402  C     0.52343   0.16496   0.83544   0.00000  Uiso   1.00
C1403  C     0.95652   0.21372   0.84711   0.00000  Uiso   1.00
C1404  C     0.54321   0.11728   0.81580   0.00000  Uiso   1.00
C1405  C     0.96946   0.07240   0.80330   0.00000  Uiso   1.00
C1406  C     0.53024   0.25918   0.86429   0.00000  Uiso   1.00
C1407  C     0.51566   0.07079   0.79860   0.00000  Uiso   1.00
C1408  C     0.98348   0.26068   0.86265   0.00000  Uiso   1.00
C1409  C     0.74690   0.01097   0.80962   0.00000  Uiso   1.00
C1410  C     0.75370   0.32225   0.85733   0.00000  Uiso   1.00
N1411  N     0.73745   0.15214   0.67951   0.00000  Uiso   1.00
N1412  N     0.76256   0.18119   0.98716   0.00000  Uiso   1.00
O1413  O     0.88910   0.25770   0.83678   0.00000  Uiso   1.00
C1414  C     0.87334   0.25889   0.77689   0.00000  Uiso   1.00
H1415  H     0.88143   0.29848   0.77225   0.00000  Uiso   1.00
H1416  H     0.83659   0.25442   0.77393   0.00000  Uiso   1.00
C1417  C     0.89129   0.22002   0.72261   0.00000  Uiso   1.00
H1418  H     0.92667   0.21367   0.73136   0.00000  Uiso   1.00
H1419  H     0.87229   0.18192   0.71490   0.00000  Uiso   1.00
C1420  C     0.88759   0.23827   0.99750   0.00000  Uiso   1.00
H1421  H     0.85235   0.24099   0.98350   0.00000  Uiso   1.00
H1422  H     0.90224   0.21003   0.96140   0.00000  Uiso   1.00
H1423  H     0.90605   0.27644   0.66983   0.00000  Uiso   1.00
O1424  O     0.60894   0.07367   0.78133   0.00000  Uiso   1.00
C1425  C     0.61799   0.07430   0.72040   0.00000  Uiso   1.00
H1426  H     0.61430   0.03395   0.69371   0.00000  Uiso   1.00
H1427  H     0.65350   0.08523   0.71764   0.00000  Uiso   1.00
C1428  C     0.58843   0.10646   0.68778   0.00000  Uiso   1.00
H1429  H     0.55302   0.09454   0.69026   0.00000  Uiso   1.00
H1430  H     0.59463   0.14825   0.70951   0.00000  Uiso   1.00
C1431  C     0.59780   0.09899   0.95488   0.00000  Uiso   1.00
H1432  H     0.63251   0.11299   0.95052   0.00000  Uiso   1.00
H1433  H     0.57481   0.12176   0.93372   0.00000  Uiso   1.00
H1434  H     0.59230   0.05769   0.93097   0.00000  Uiso   1.00
F1435  F     0.87776   0.07606   0.82238   0.00000  Uiso   1.00
F1436  F     0.62276   0.25563   0.85832   0.00000  Uiso   1.00
F1437  F     0.94358   0.02759   0.78763   0.00000  Uiso   1.00
F1438  F     0.55623   0.30393   0.87367   0.00000  Uiso   1.00
O1439  O     0.53385   0.02301   0.78274   0.00000  Uiso   1.00
C1440  C     0.51949   0.33104   0.72233   0.00000  Uiso   1.00
H1441  H     0.54707   0.33283   0.69287   0.00000  Uiso   1.00
H1442  H     0.99092   0.01545   0.70462   0.00000  Uiso   1.00
C1443  C     0.50386   0.27457   0.71626   0.00000  Uiso   1.00
H1444  H     0.98368   0.27205   0.75428   0.00000  Uiso   1.00
H1445  H     0.98231   0.26072   0.67381   0.00000  Uiso   1.00
C1446  C     0.54178   0.23905   0.71342   0.00000  Uiso   1.00
H1447  H     0.55430   0.23157   0.66761   0.00000  Uiso   1.00
H1448  H     0.52909   0.20142   0.72128   0.00000  Uiso   1.00
H1449  H     0.56917   0.25639   0.74783   0.00000  Uiso   1.00
O1450  O     0.96305   0.30672   0.86616   0.00000  Uiso   1.00
C1451  C     0.98154   0.01462   0.91321   0.00000  Uiso   1.00
H1452  H     0.50461   0.03980   0.89509   0.00000  Uiso   1.00
H1453  H     0.50143   0.00116   0.94708   0.00000  Uiso   1.00
C1454  C     0.94394   0.04564   0.94209   0.00000  Uiso   1.00
H1455  H     0.91829   0.04835   0.90647   0.00000  Uiso   1.00
H1456  H     0.92807   0.02461   0.97293   0.00000  Uiso   1.00
C1457  C     0.95999   0.10041   0.97696   0.00000  Uiso   1.00
H1458  H     0.97837   0.09957   0.68670   0.00000  Uiso   1.00
H1459  H     0.93090   0.12361   0.98789   0.00000  Uiso   1.00
H1460  H     0.98156   0.11991   0.94972   0.00000  Uiso   1.00
O1461  O     0.74073   0.31423   0.75097   0.00000  Uiso   1.00
C1462  C     0.69712   0.31745   0.72633   0.00000  Uiso   1.00
H1463  H     0.70042   0.33260   0.68506   0.00000  Uiso   1.00
H1464  H     0.67647   0.01081   0.75674   0.00000  Uiso   1.00
C1465  C     0.67220   0.26384   0.71084   0.00000  Uiso   1.00
H1466  H     0.69596   0.23353   0.70530   0.00000  Uiso   1.00
H1467  H     0.65105   0.25934   0.74796   0.00000  Uiso   1.00
C1468  C     0.64413   0.25428   0.98505   0.00000  Uiso   1.00
H1469  H     0.61799   0.28204   0.98759   0.00000  Uiso   1.00
H1470  H     0.62833   0.21430   0.97408   0.00000  Uiso   1.00
H1471  H     0.66618   0.25860   0.94895   0.00000  Uiso   1.00
O1472  O     0.75831   0.01788   0.91660   0.00000  Uiso   1.00
C1473  C     0.80308   0.03757   0.93208   0.00000  Uiso   1.00
H1474  H     0.80232   0.07870   0.95664   0.00000  Uiso   1.00
H1475  H     0.82322   0.03834   0.89249   0.00000  Uiso   1.00
C1476  C     0.82622   0.00738   0.97263   0.00000  Uiso   1.00
H1477  H     0.80197   0.31399   0.98741   0.00000  Uiso   1.00
H1478  H     0.85099   0.31734   0.94641   0.00000  Uiso   1.00
C1479  C     0.84947   0.04368   0.69536   0.00000  Uiso   1.00
H1480  H     0.86849   0.07648   0.68376   0.00000  Uiso   1.00
H1481  H     0.87299   0.02228   0.71709   0.00000  Uiso   1.00
H1482  H     0.82444   0.05913   0.72742   0.00000  Uiso   1.00
F1483  F     0.71595   0.11085   0.97561   0.00000  Uiso   1.00
F1484  F     0.78166   0.22399   0.69070   0.00000  Uiso   1.00
O1485  O     0.25326   0.42871   0.87326   0.00000  Uiso   1.00
O1486  O     0.24675   0.57129   0.79341   0.00000  Uiso   1.00
O1487  O     0.24480   0.41892   0.76945   0.00000  Uiso   1.00
O1488  O     0.25520   0.58108   0.89721   0.00000  Uiso   1.00
C1489  C     0.24845   0.40032   0.81800   0.00000  Uiso   1.00
C1490  C     0.25170   0.59973   0.84874   0.00000  Uiso   1.00
O1491  O     0.18936   0.50488   0.88524   0.00000  Uiso   1.00
O1492  O     0.31065   0.49512   0.78143   0.00000  Uiso   1.00
O1493  O     0.18090   0.49510   0.78143   0.00000  Uiso   1.00
O1494  O     0.31910   0.50490   0.88523   0.00000  Uiso   1.00
C1495  C     0.16470   0.49847   0.83390   0.00000  Uiso   1.00
C1496  C     0.33522   0.49980   0.83235   0.00000  Uiso   1.00
Cu1497 Cu    0.25501   0.50579   0.89479   0.00000  Uiso   1.00
Cu1498 Cu    0.24500   0.49421   0.77187   0.00000  Uiso   1.00
C1499  C     0.40952   0.54633   0.83911   0.00000  Uiso   1.00
C1500  C     0.08983   0.45119   0.81106   0.00000  Uiso   1.00
C1501  C     0.38351   0.49970   0.83112   0.00000  Uiso   1.00
C1502  C     0.11634   0.49749   0.83435   0.00000  Uiso   1.00
C1503  C     0.40361   0.45333   0.82493   0.00000  Uiso   1.00
C1504  C     0.09657   0.54431   0.84977   0.00000  Uiso   1.00
C1505  C     0.44984   0.45249   0.82149   0.00000  Uiso   1.00
C1506  C     0.05019   0.54525   0.85092   0.00000  Uiso   1.00
C1507  C     0.47668   0.49932   0.83560   0.00000  Uiso   1.00
C1508  C     0.02343   0.49829   0.83544   0.00000  Uiso   1.00
C1509  C     0.45652   0.54705   0.84711   0.00000  Uiso   1.00
C1510  C     0.04321   0.45061   0.81580   0.00000  Uiso   1.00
C1511  C     0.46946   0.40573   0.80330   0.00000  Uiso   1.00
C1512  C     0.03024   0.59251   0.86429   0.00000  Uiso   1.00
C1513  C     0.01566   0.40413   0.79860   0.00000  Uiso   1.00
C1514  C     0.48348   0.59401   0.86265   0.00000  Uiso   1.00
C1515  C     0.24690   0.34431   0.80962   0.00000  Uiso   1.00
C1516  C     0.25370   0.65559   0.85733   0.00000  Uiso   1.00
N1517  N     0.23745   0.48547   0.67951   0.00000  Uiso   1.00
N1518  N     0.26256   0.51453   0.98716   0.00000  Uiso   1.00
O1519  O     0.38910   0.59103   0.83678   0.00000  Uiso   1.00
C1520  C     0.37334   0.59222   0.77689   0.00000  Uiso   1.00
H1521  H     0.38143   0.63181   0.77225   0.00000  Uiso   1.00
H1522  H     0.33659   0.58775   0.77393   0.00000  Uiso   1.00
C1523  C     0.39129   0.55335   0.72261   0.00000  Uiso   1.00
H1524  H     0.42667   0.54701   0.73136   0.00000  Uiso   1.00
H1525  H     0.37229   0.51526   0.71490   0.00000  Uiso   1.00
C1526  C     0.38759   0.57161   0.99750   0.00000  Uiso   1.00
H1527  H     0.35235   0.57433   0.98350   0.00000  Uiso   1.00
H1528  H     0.40224   0.54337   0.96140   0.00000  Uiso   1.00
H1529  H     0.40605   0.60977   0.66983   0.00000  Uiso   1.00
O1530  O     0.10894   0.40701   0.78133   0.00000  Uiso   1.00
C1531  C     0.11799   0.40763   0.72040   0.00000  Uiso   1.00
H1532  H     0.11430   0.36729   0.69371   0.00000  Uiso   1.00
H1533  H     0.15350   0.41856   0.71764   0.00000  Uiso   1.00
C1534  C     0.08843   0.43979   0.68778   0.00000  Uiso   1.00
H1535  H     0.05302   0.42788   0.69026   0.00000  Uiso   1.00
H1536  H     0.09463   0.48158   0.70951   0.00000  Uiso   1.00
C1537  C     0.09780   0.43233   0.95488   0.00000  Uiso   1.00
H1538  H     0.13251   0.44632   0.95052   0.00000  Uiso   1.00
H1539  H     0.07481   0.45509   0.93372   0.00000  Uiso   1.00
H1540  H     0.09230   0.39102   0.93097   0.00000  Uiso   1.00
F1541  F     0.37776   0.40940   0.82238   0.00000  Uiso   1.00
F1542  F     0.12276   0.58897   0.85832   0.00000  Uiso   1.00
F1543  F     0.44358   0.36093   0.78763   0.00000  Uiso   1.00
F1544  F     0.05623   0.63726   0.87367   0.00000  Uiso   1.00
O1545  O     0.03385   0.35634   0.78274   0.00000  Uiso   1.00
C1546  C     0.01949   0.66438   0.72233   0.00000  Uiso   1.00
H1547  H     0.04707   0.66616   0.69287   0.00000  Uiso   1.00
H1548  H     0.49092   0.34878   0.70462   0.00000  Uiso   1.00
C1549  C     0.00386   0.60790   0.71626   0.00000  Uiso   1.00
H1550  H     0.48368   0.60539   0.75428   0.00000  Uiso   1.00
H1551  H     0.48231   0.59405   0.67381   0.00000  Uiso   1.00
C1552  C     0.04178   0.57239   0.71342   0.00000  Uiso   1.00
H1553  H     0.05430   0.56490   0.66761   0.00000  Uiso   1.00
H1554  H     0.02909   0.53475   0.72128   0.00000  Uiso   1.00
H1555  H     0.06917   0.58972   0.74783   0.00000  Uiso   1.00
O1556  O     0.46305   0.64006   0.86616   0.00000  Uiso   1.00
C1557  C     0.48154   0.34795   0.91321   0.00000  Uiso   1.00
H1558  H     0.00461   0.37314   0.89509   0.00000  Uiso   1.00
H1559  H     0.00143   0.33449   0.94708   0.00000  Uiso   1.00
C1560  C     0.44394   0.37897   0.94209   0.00000  Uiso   1.00
H1561  H     0.41829   0.38169   0.90647   0.00000  Uiso   1.00
H1562  H     0.42807   0.35795   0.97293   0.00000  Uiso   1.00
C1563  C     0.45999   0.43374   0.97696   0.00000  Uiso   1.00
H1564  H     0.47837   0.43290   0.68670   0.00000  Uiso   1.00
H1565  H     0.43090   0.45695   0.98789   0.00000  Uiso   1.00
H1566  H     0.48156   0.45324   0.94972   0.00000  Uiso   1.00
O1567  O     0.24073   0.64756   0.75097   0.00000  Uiso   1.00
C1568  C     0.19712   0.65078   0.72633   0.00000  Uiso   1.00
H1569  H     0.20042   0.66593   0.68506   0.00000  Uiso   1.00
H1570  H     0.17647   0.34414   0.75674   0.00000  Uiso   1.00
C1571  C     0.17220   0.59717   0.71084   0.00000  Uiso   1.00
H1572  H     0.19596   0.56686   0.70530   0.00000  Uiso   1.00
H1573  H     0.15105   0.59267   0.74796   0.00000  Uiso   1.00
C1574  C     0.14413   0.58761   0.98505   0.00000  Uiso   1.00
H1575  H     0.11799   0.61538   0.98759   0.00000  Uiso   1.00
H1576  H     0.12833   0.54763   0.97408   0.00000  Uiso   1.00
H1577  H     0.16618   0.59193   0.94895   0.00000  Uiso   1.00
O1578  O     0.25831   0.35121   0.91660   0.00000  Uiso   1.00
C1579  C     0.30308   0.37090   0.93208   0.00000  Uiso   1.00
H1580  H     0.30232   0.41203   0.95664   0.00000  Uiso   1.00
H1581  H     0.32322   0.37167   0.89249   0.00000  Uiso   1.00
C1582  C     0.32622   0.34071   0.97263   0.00000  Uiso   1.00
H1583  H     0.30197   0.64732   0.98741   0.00000  Uiso   1.00
H1584  H     0.35099   0.65067   0.94641   0.00000  Uiso   1.00
C1585  C     0.34947   0.37701   0.69536   0.00000  Uiso   1.00
H1586  H     0.36849   0.40982   0.68376   0.00000  Uiso   1.00
H1587  H     0.37299   0.35561   0.71709   0.00000  Uiso   1.00
H1588  H     0.32444   0.39246   0.72742   0.00000  Uiso   1.00
F1589  F     0.21595   0.44418   0.97561   0.00000  Uiso   1.00
F1590  F     0.28166   0.55732   0.69070   0.00000  Uiso   1.00
O1591  O     0.75326   0.42871   0.87326   0.00000  Uiso   1.00
O1592  O     0.74675   0.57129   0.79341   0.00000  Uiso   1.00
O1593  O     0.74480   0.41892   0.76945   0.00000  Uiso   1.00
O1594  O     0.75520   0.58108   0.89721   0.00000  Uiso   1.00
C1595  C     0.74845   0.40032   0.81800   0.00000  Uiso   1.00
C1596  C     0.75170   0.59973   0.84874   0.00000  Uiso   1.00
O1597  O     0.68936   0.50488   0.88524   0.00000  Uiso   1.00
O1598  O     0.81065   0.49512   0.78143   0.00000  Uiso   1.00
O1599  O     0.68090   0.49510   0.78143   0.00000  Uiso   1.00
O1600  O     0.81910   0.50490   0.88523   0.00000  Uiso   1.00
C1601  C     0.66470   0.49847   0.83390   0.00000  Uiso   1.00
C1602  C     0.83522   0.49980   0.83235   0.00000  Uiso   1.00
Cu1603 Cu    0.75501   0.50579   0.89479   0.00000  Uiso   1.00
Cu1604 Cu    0.74500   0.49421   0.77187   0.00000  Uiso   1.00
C1605  C     0.90952   0.54633   0.83911   0.00000  Uiso   1.00
C1606  C     0.58983   0.45119   0.81106   0.00000  Uiso   1.00
C1607  C     0.88351   0.49970   0.83112   0.00000  Uiso   1.00
C1608  C     0.61634   0.49749   0.83435   0.00000  Uiso   1.00
C1609  C     0.90361   0.45333   0.82493   0.00000  Uiso   1.00
C1610  C     0.59657   0.54431   0.84977   0.00000  Uiso   1.00
C1611  C     0.94984   0.45249   0.82149   0.00000  Uiso   1.00
C1612  C     0.55019   0.54525   0.85092   0.00000  Uiso   1.00
C1613  C     0.97668   0.49932   0.83560   0.00000  Uiso   1.00
C1614  C     0.52343   0.49829   0.83544   0.00000  Uiso   1.00
C1615  C     0.95652   0.54705   0.84711   0.00000  Uiso   1.00
C1616  C     0.54321   0.45061   0.81580   0.00000  Uiso   1.00
C1617  C     0.96946   0.40573   0.80330   0.00000  Uiso   1.00
C1618  C     0.53024   0.59251   0.86429   0.00000  Uiso   1.00
C1619  C     0.51566   0.40413   0.79860   0.00000  Uiso   1.00
C1620  C     0.98348   0.59401   0.86265   0.00000  Uiso   1.00
C1621  C     0.74690   0.34431   0.80962   0.00000  Uiso   1.00
C1622  C     0.75370   0.65559   0.85733   0.00000  Uiso   1.00
N1623  N     0.73745   0.48547   0.67951   0.00000  Uiso   1.00
N1624  N     0.76256   0.51453   0.98716   0.00000  Uiso   1.00
O1625  O     0.88910   0.59103   0.83678   0.00000  Uiso   1.00
C1626  C     0.87334   0.59222   0.77689   0.00000  Uiso   1.00
H1627  H     0.88143   0.63181   0.77225   0.00000  Uiso   1.00
H1628  H     0.83659   0.58775   0.77393   0.00000  Uiso   1.00
C1629  C     0.89129   0.55335   0.72261   0.00000  Uiso   1.00
H1630  H     0.92667   0.54701   0.73136   0.00000  Uiso   1.00
H1631  H     0.87229   0.51526   0.71490   0.00000  Uiso   1.00
C1632  C     0.88759   0.57161   0.99750   0.00000  Uiso   1.00
H1633  H     0.85235   0.57433   0.98350   0.00000  Uiso   1.00
H1634  H     0.90224   0.54337   0.96140   0.00000  Uiso   1.00
H1635  H     0.90605   0.60977   0.66983   0.00000  Uiso   1.00
O1636  O     0.60894   0.40701   0.78133   0.00000  Uiso   1.00
C1637  C     0.61799   0.40763   0.72040   0.00000  Uiso   1.00
H1638  H     0.61430   0.36729   0.69371   0.00000  Uiso   1.00
H1639  H     0.65350   0.41856   0.71764   0.00000  Uiso   1.00
C1640  C     0.58843   0.43979   0.68778   0.00000  Uiso   1.00
H1641  H     0.55302   0.42788   0.69026   0.00000  Uiso   1.00
H1642  H     0.59463   0.48158   0.70951   0.00000  Uiso   1.00
C1643  C     0.59780   0.43233   0.95488   0.00000  Uiso   1.00
H1644  H     0.63251   0.44632   0.95052   0.00000  Uiso   1.00
H1645  H     0.57481   0.45509   0.93372   0.00000  Uiso   1.00
H1646  H     0.59230   0.39102   0.93097   0.00000  Uiso   1.00
F1647  F     0.87776   0.40940   0.82238   0.00000  Uiso   1.00
F1648  F     0.62276   0.58897   0.85832   0.00000  Uiso   1.00
F1649  F     0.94358   0.36093   0.78763   0.00000  Uiso   1.00
F1650  F     0.55623   0.63726   0.87367   0.00000  Uiso   1.00
O1651  O     0.53385   0.35634   0.78274   0.00000  Uiso   1.00
C1652  C     0.51949   0.66438   0.72233   0.00000  Uiso   1.00
H1653  H     0.54707   0.66616   0.69287   0.00000  Uiso   1.00
H1654  H     0.99092   0.34878   0.70462   0.00000  Uiso   1.00
C1655  C     0.50386   0.60790   0.71626   0.00000  Uiso   1.00
H1656  H     0.98368   0.60539   0.75428   0.00000  Uiso   1.00
H1657  H     0.98231   0.59405   0.67381   0.00000  Uiso   1.00
C1658  C     0.54178   0.57239   0.71342   0.00000  Uiso   1.00
H1659  H     0.55430   0.56490   0.66761   0.00000  Uiso   1.00
H1660  H     0.52909   0.53475   0.72128   0.00000  Uiso   1.00
H1661  H     0.56917   0.58972   0.74783   0.00000  Uiso   1.00
O1662  O     0.96305   0.64006   0.86616   0.00000  Uiso   1.00
C1663  C     0.98154   0.34795   0.91321   0.00000  Uiso   1.00
H1664  H     0.50461   0.37314   0.89509   0.00000  Uiso   1.00
H1665  H     0.50143   0.33449   0.94708   0.00000  Uiso   1.00
C1666  C     0.94394   0.37897   0.94209   0.00000  Uiso   1.00
H1667  H     0.91829   0.38169   0.90647   0.00000  Uiso   1.00
H1668  H     0.92807   0.35795   0.97293   0.00000  Uiso   1.00
C1669  C     0.95999   0.43374   0.97696   0.00000  Uiso   1.00
H1670  H     0.97837   0.43290   0.68670   0.00000  Uiso   1.00
H1671  H     0.93090   0.45695   0.98789   0.00000  Uiso   1.00
H1672  H     0.98156   0.45324   0.94972   0.00000  Uiso   1.00
O1673  O     0.74073   0.64756   0.75097   0.00000  Uiso   1.00
C1674  C     0.69712   0.65078   0.72633   0.00000  Uiso   1.00
H1675  H     0.70042   0.66593   0.68506   0.00000  Uiso   1.00
H1676  H     0.67647   0.34414   0.75674   0.00000  Uiso   1.00
C1677  C     0.67220   0.59717   0.71084   0.00000  Uiso   1.00
H1678  H     0.69596   0.56686   0.70530   0.00000  Uiso   1.00
H1679  H     0.65105   0.59267   0.74796   0.00000  Uiso   1.00
C1680  C     0.64413   0.58761   0.98505   0.00000  Uiso   1.00
H1681  H     0.61799   0.61538   0.98759   0.00000  Uiso   1.00
H1682  H     0.62833   0.54763   0.97408   0.00000  Uiso   1.00
H1683  H     0.66618   0.59193   0.94895   0.00000  Uiso   1.00
O1684  O     0.75831   0.35121   0.91660   0.00000  Uiso   1.00
C1685  C     0.80308   0.37090   0.93208   0.00000  Uiso   1.00
H1686  H     0.80232   0.41203   0.95664   0.00000  Uiso   1.00
H1687  H     0.82322   0.37167   0.89249   0.00000  Uiso   1.00
C1688  C     0.82622   0.34071   0.97263   0.00000  Uiso   1.00
H1689  H     0.80197   0.64732   0.98741   0.00000  Uiso   1.00
H1690  H     0.85099   0.65067   0.94641   0.00000  Uiso   1.00
C1691  C     0.84947   0.37701   0.69536   0.00000  Uiso   1.00
H1692  H     0.86849   0.40982   0.68376   0.00000  Uiso   1.00
H1693  H     0.87299   0.35561   0.71709   0.00000  Uiso   1.00
H1694  H     0.82444   0.39246   0.72742   0.00000  Uiso   1.00
F1695  F     0.71595   0.44418   0.97561   0.00000  Uiso   1.00
F1696  F     0.78166   0.55732   0.69070   0.00000  Uiso   1.00
O1697  O     0.25326   0.76204   0.87326   0.00000  Uiso   1.00
O1698  O     0.24675   0.90462   0.79341   0.00000  Uiso   1.00
O1699  O     0.24480   0.75226   0.76945   0.00000  Uiso   1.00
O1700  O     0.25520   0.91441   0.89721   0.00000  Uiso   1.00
C1701  C     0.24845   0.73365   0.81800   0.00000  Uiso   1.00
C1702  C     0.25170   0.93306   0.84874   0.00000  Uiso   1.00
O1703  O     0.18936   0.83821   0.88524   0.00000  Uiso   1.00
O1704  O     0.31065   0.82845   0.78143   0.00000  Uiso   1.00
O1705  O     0.18090   0.82843   0.78143   0.00000  Uiso   1.00
O1706  O     0.31910   0.83824   0.88523   0.00000  Uiso   1.00
C1707  C     0.16470   0.83180   0.83390   0.00000  Uiso   1.00
C1708  C     0.33522   0.83313   0.83235   0.00000  Uiso   1.00
Cu1709 Cu    0.25501   0.83913   0.89479   0.00000  Uiso   1.00
Cu1710 Cu    0.24500   0.82754   0.77187   0.00000  Uiso   1.00
C1711  C     0.40952   0.87967   0.83911   0.00000  Uiso   1.00
C1712  C     0.08983   0.78452   0.81106   0.00000  Uiso   1.00
C1713  C     0.38351   0.83303   0.83112   0.00000  Uiso   1.00
C1714  C     0.11634   0.83082   0.83435   0.00000  Uiso   1.00
C1715  C     0.40361   0.78667   0.82493   0.00000  Uiso   1.00
C1716  C     0.09657   0.87764   0.84977   0.00000  Uiso   1.00
C1717  C     0.44984   0.78582   0.82149   0.00000  Uiso   1.00
C1718  C     0.05019   0.87858   0.85092   0.00000  Uiso   1.00
C1719  C     0.47668   0.83266   0.83560   0.00000  Uiso   1.00
C1720  C     0.02343   0.83162   0.83544   0.00000  Uiso   1.00
C1721  C     0.45652   0.88038   0.84711   0.00000  Uiso   1.00
C1722  C     0.04321   0.78395   0.81580   0.00000  Uiso   1.00
C1723  C     0.46946   0.73907   0.80330   0.00000  Uiso   1.00
C1724  C     0.03024   0.92584   0.86429   0.00000  Uiso   1.00
C1725  C     0.01566   0.73746   0.79860   0.00000  Uiso   1.00
C1726  C     0.48348   0.92734   0.86265   0.00000  Uiso   1.00
C1727  C     0.24690   0.67764   0.80962   0.00000  Uiso   1.00
C1728  C     0.25370   0.98892   0.85733   0.00000  Uiso   1.00
N1729  N     0.23745   0.81881   0.67951   0.00000  Uiso   1.00
N1730  N     0.26256   0.84786   0.98716   0.00000  Uiso   1.00
O1731  O     0.38910   0.92436   0.83678   0.00000  Uiso   1.00
C1732  C     0.37334   0.92556   0.77689   0.00000  Uiso   1.00
H1733  H     0.38143   0.96514   0.77225   0.00000  Uiso   1.00
H1734  H     0.33659   0.92109   0.77393   0.00000  Uiso   1.00
C1735  C     0.39129   0.88669   0.72261   0.00000  Uiso   1.00
H1736  H     0.42667   0.88034   0.73136   0.00000  Uiso   1.00
H1737  H     0.37229   0.84859   0.71490   0.00000  Uiso   1.00
C1738  C     0.38759   0.90494   0.99750   0.00000  Uiso   1.00
H1739  H     0.35235   0.90766   0.98350   0.00000  Uiso   1.00
H1740  H     0.40224   0.87670   0.96140   0.00000  Uiso   1.00
H1741  H     0.40605   0.94310   0.66983   0.00000  Uiso   1.00
O1742  O     0.10894   0.74034   0.78133   0.00000  Uiso   1.00
C1743  C     0.11799   0.74096   0.72040   0.00000  Uiso   1.00
H1744  H     0.11430   0.70062   0.69371   0.00000  Uiso   1.00
H1745  H     0.15350   0.75190   0.71764   0.00000  Uiso   1.00
C1746  C     0.08843   0.77312   0.68778   0.00000  Uiso   1.00
H1747  H     0.05302   0.76121   0.69026   0.00000  Uiso   1.00
H1748  H     0.09463   0.81492   0.70951   0.00000  Uiso   1.00
C1749  C     0.09780   0.76566   0.95488   0.00000  Uiso   1.00
H1750  H     0.13251   0.77965   0.95052   0.00000  Uiso   1.00
H1751  H     0.07481   0.78843   0.93372   0.00000  Uiso   1.00
H1752  H     0.09230   0.72435   0.93097   0.00000  Uiso   1.00
F1753  F     0.37776   0.74273   0.82238   0.00000  Uiso   1.00
F1754  F     0.12276   0.92230   0.85832   0.00000  Uiso   1.00
F1755  F     0.44358   0.69426   0.78763   0.00000  Uiso   1.00
F1756  F     0.05623   0.97060   0.87367   0.00000  Uiso   1.00
O1757  O     0.03385   0.68968   0.78274   0.00000  Uiso   1.00
C1758  C     0.01949   0.99771   0.72233   0.00000  Uiso   1.00
H1759  H     0.04707   0.99949   0.69287   0.00000  Uiso   1.00
H1760  H     0.49092   0.68211   0.70462   0.00000  Uiso   1.00
C1761  C     0.00386   0.94123   0.71626   0.00000  Uiso   1.00
H1762  H     0.48368   0.93872   0.75428   0.00000  Uiso   1.00
H1763  H     0.48231   0.92738   0.67381   0.00000  Uiso   1.00
C1764  C     0.04178   0.90572   0.71342   0.00000  Uiso   1.00
H1765  H     0.05430   0.89824   0.66761   0.00000  Uiso   1.00
H1766  H     0.02909   0.86809   0.72128   0.00000  Uiso   1.00
H1767  H     0.06917   0.92305   0.74783   0.00000  Uiso   1.00
O1768  O     0.46305   0.97339   0.86616   0.00000  Uiso   1.00
C1769  C     0.48154   0.68129   0.91321   0.00000  Uiso   1.00
H1770  H     0.00461   0.70647   0.89509   0.00000  Uiso   1.00
H1771  H     0.00143   0.66783   0.94708   0.00000  Uiso   1.00
C1772  C     0.44394   0.71231   0.94209   0.00000  Uiso   1.00
H1773  H     0.41829   0.71502   0.90647   0.00000  Uiso   1.00
H1774  H     0.42807   0.69128   0.97293   0.00000  Uiso   1.00
C1775  C     0.45999   0.76707   0.97696   0.00000  Uiso   1.00
H1776  H     0.47837   0.76624   0.68670   0.00000  Uiso   1.00
H1777  H     0.43090   0.79028   0.98789   0.00000  Uiso   1.00
H1778  H     0.48156   0.78657   0.94972   0.00000  Uiso   1.00
O1779  O     0.24073   0.98090   0.75097   0.00000  Uiso   1.00
C1780  C     0.19712   0.98412   0.72633   0.00000  Uiso   1.00
H1781  H     0.20042   0.99927   0.68506   0.00000  Uiso   1.00
H1782  H     0.17647   0.67747   0.75674   0.00000  Uiso   1.00
C1783  C     0.17220   0.93051   0.71084   0.00000  Uiso   1.00
H1784  H     0.19596   0.90020   0.70530   0.00000  Uiso   1.00
H1785  H     0.15105   0.92601   0.74796   0.00000  Uiso   1.00
C1786  C     0.14413   0.92094   0.98505   0.00000  Uiso   1.00
H1787  H     0.11799   0.94871   0.98759   0.00000  Uiso   1.00
H1788  H     0.12833   0.88096   0.97408   0.00000  Uiso   1.00
H1789  H     0.16618   0.92527   0.94895   0.00000  Uiso   1.00
O1790  O     0.25831   0.68455   0.91660   0.00000  Uiso   1.00
C1791  C     0.30308   0.70424   0.93208   0.00000  Uiso   1.00
H1792  H     0.30232   0.74536   0.95664   0.00000  Uiso   1.00
H1793  H     0.32322   0.70501   0.89249   0.00000  Uiso   1.00
C1794  C     0.32622   0.67404   0.97263   0.00000  Uiso   1.00
H1795  H     0.30197   0.98065   0.98741   0.00000  Uiso   1.00
H1796  H     0.35099   0.98401   0.94641   0.00000  Uiso   1.00
C1797  C     0.34947   0.71035   0.69536   0.00000  Uiso   1.00
H1798  H     0.36849   0.74315   0.68376   0.00000  Uiso   1.00
H1799  H     0.37299   0.68894   0.71709   0.00000  Uiso   1.00
H1800  H     0.32444   0.72580   0.72742   0.00000  Uiso   1.00
F1801  F     0.21595   0.77751   0.97561   0.00000  Uiso   1.00
F1802  F     0.28166   0.89066   0.69070   0.00000  Uiso   1.00
O1803  O     0.75326   0.76204   0.87326   0.00000  Uiso   1.00
O1804  O     0.74675   0.90462   0.79341   0.00000  Uiso   1.00
O1805  O     0.74480   0.75226   0.76945   0.00000  Uiso   1.00
O1806  O     0.75520   0.91441   0.89721   0.00000  Uiso   1.00
C1807  C     0.74845   0.73365   0.81800   0.00000  Uiso   1.00
C1808  C     0.75170   0.93306   0.84874   0.00000  Uiso   1.00
O1809  O     0.68936   0.83821   0.88524   0.00000  Uiso   1.00
O1810  O     0.81065   0.82845   0.78143   0.00000  Uiso   1.00
O1811  O     0.68090   0.82843   0.78143   0.00000  Uiso   1.00
O1812  O     0.81910   0.83824   0.88523   0.00000  Uiso   1.00
C1813  C     0.66470   0.83180   0.83390   0.00000  Uiso   1.00
C1814  C     0.83522   0.83313   0.83235   0.00000  Uiso   1.00
Cu1815 Cu    0.75501   0.83913   0.89479   0.00000  Uiso   1.00
Cu1816 Cu    0.74500   0.82754   0.77187   0.00000  Uiso   1.00
C1817  C     0.90952   0.87967   0.83911   0.00000  Uiso   1.00
C1818  C     0.58983   0.78452   0.81106   0.00000  Uiso   1.00
C1819  C     0.88351   0.83303   0.83112   0.00000  Uiso   1.00
C1820  C     0.61634   0.83082   0.83435   0.00000  Uiso   1.00
C1821  C     0.90361   0.78667   0.82493   0.00000  Uiso   1.00
C1822  C     0.59657   0.87764   0.84977   0.00000  Uiso   1.00
C1823  C     0.94984   0.78582   0.82149   0.00000  Uiso   1.00
C1824  C     0.55019   0.87858   0.85092   0.00000  Uiso   1.00
C1825  C     0.97668   0.83266   0.83560   0.00000  Uiso   1.00
C1826  C     0.52343   0.83162   0.83544   0.00000  Uiso   1.00
C1827  C     0.95652   0.88038   0.84711   0.00000  Uiso   1.00
C1828  C     0.54321   0.78395   0.81580   0.00000  Uiso   1.00
C1829  C     0.96946   0.73907   0.80330   0.00000  Uiso   1.00
C1830  C     0.53024   0.92584   0.86429   0.00000  Uiso   1.00
C1831  C     0.51566   0.73746   0.79860   0.00000  Uiso   1.00
C1832  C     0.98348   0.92734   0.86265   0.00000  Uiso   1.00
C1833  C     0.74690   0.67764   0.80962   0.00000  Uiso   1.00
C1834  C     0.75370   0.98892   0.85733   0.00000  Uiso   1.00
N1835  N     0.73745   0.81881   0.67951   0.00000  Uiso   1.00
N1836  N     0.76256   0.84786   0.98716   0.00000  Uiso   1.00
O1837  O     0.88910   0.92436   0.83678   0.00000  Uiso   1.00
C1838  C     0.87334   0.92556   0.77689   0.00000  Uiso   1.00
H1839  H     0.88143   0.96514   0.77225   0.00000  Uiso   1.00
H1840  H     0.83659   0.92109   0.77393   0.00000  Uiso   1.00
C1841  C     0.89129   0.88669   0.72261   0.00000  Uiso   1.00
H1842  H     0.92667   0.88034   0.73136   0.00000  Uiso   1.00
H1843  H     0.87229   0.84859   0.71490   0.00000  Uiso   1.00
C1844  C     0.88759   0.90494   0.99750   0.00000  Uiso   1.00
H1845  H     0.85235   0.90766   0.98350   0.00000  Uiso   1.00
H1846  H     0.90224   0.87670   0.96140   0.00000  Uiso   1.00
H1847  H     0.90605   0.94310   0.66983   0.00000  Uiso   1.00
O1848  O     0.60894   0.74034   0.78133   0.00000  Uiso   1.00
C1849  C     0.61799   0.74096   0.72040   0.00000  Uiso   1.00
H1850  H     0.61430   0.70062   0.69371   0.00000  Uiso   1.00
H1851  H     0.65350   0.75190   0.71764   0.00000  Uiso   1.00
C1852  C     0.58843   0.77312   0.68778   0.00000  Uiso   1.00
H1853  H     0.55302   0.76121   0.69026   0.00000  Uiso   1.00
H1854  H     0.59463   0.81492   0.70951   0.00000  Uiso   1.00
C1855  C     0.59780   0.76566   0.95488   0.00000  Uiso   1.00
H1856  H     0.63251   0.77965   0.95052   0.00000  Uiso   1.00
H1857  H     0.57481   0.78843   0.93372   0.00000  Uiso   1.00
H1858  H     0.59230   0.72435   0.93097   0.00000  Uiso   1.00
F1859  F     0.87776   0.74273   0.82238   0.00000  Uiso   1.00
F1860  F     0.62276   0.92230   0.85832   0.00000  Uiso   1.00
F1861  F     0.94358   0.69426   0.78763   0.00000  Uiso   1.00
F1862  F     0.55623   0.97060   0.87367   0.00000  Uiso   1.00
O1863  O     0.53385   0.68968   0.78274   0.00000  Uiso   1.00
C1864  C     0.51949   0.99771   0.72233   0.00000  Uiso   1.00
H1865  H     0.54707   0.99949   0.69287   0.00000  Uiso   1.00
H1866  H     0.99092   0.68211   0.70462   0.00000  Uiso   1.00
C1867  C     0.50386   0.94123   0.71626   0.00000  Uiso   1.00
H1868  H     0.98368   0.93872   0.75428   0.00000  Uiso   1.00
H1869  H     0.98231   0.92738   0.67381   0.00000  Uiso   1.00
C1870  C     0.54178   0.90572   0.71342   0.00000  Uiso   1.00
H1871  H     0.55430   0.89824   0.66761   0.00000  Uiso   1.00
H1872  H     0.52909   0.86809   0.72128   0.00000  Uiso   1.00
H1873  H     0.56917   0.92305   0.74783   0.00000  Uiso   1.00
O1874  O     0.96305   0.97339   0.86616   0.00000  Uiso   1.00
C1875  C     0.98154   0.68129   0.91321   0.00000  Uiso   1.00
H1876  H     0.50461   0.70647   0.89509   0.00000  Uiso   1.00
H1877  H     0.50143   0.66783   0.94708   0.00000  Uiso   1.00
C1878  C     0.94394   0.71231   0.94209   0.00000  Uiso   1.00
H1879  H     0.91829   0.71502   0.90647   0.00000  Uiso   1.00
H1880  H     0.92807   0.69128   0.97293   0.00000  Uiso   1.00
C1881  C     0.95999   0.76707   0.97696   0.00000  Uiso   1.00
H1882  H     0.97837   0.76624   0.68670   0.00000  Uiso   1.00
H1883  H     0.93090   0.79028   0.98789   0.00000  Uiso   1.00
H1884  H     0.98156   0.78657   0.94972   0.00000  Uiso   1.00
O1885  O     0.74073   0.98090   0.75097   0.00000  Uiso   1.00
C1886  C     0.69712   0.98412   0.72633   0.00000  Uiso   1.00
H1887  H     0.70042   0.99927   0.68506   0.00000  Uiso   1.00
H1888  H     0.67647   0.67747   0.75674   0.00000  Uiso   1.00
C1889  C     0.67220   0.93051   0.71084   0.00000  Uiso   1.00
H1890  H     0.69596   0.90020   0.70530   0.00000  Uiso   1.00
H1891  H     0.65105   0.92601   0.74796   0.00000  Uiso   1.00
C1892  C     0.64413   0.92094   0.98505   0.00000  Uiso   1.00
H1893  H     0.61799   0.94871   0.98759   0.00000  Uiso   1.00
H1894  H     0.62833   0.88096   0.97408   0.00000  Uiso   1.00
H1895  H     0.66618   0.92527   0.94895   0.00000  Uiso   1.00
O1896  O     0.75831   0.68455   0.91660   0.00000  Uiso   1.00
C1897  C     0.80308   0.70424   0.93208   0.00000  Uiso   1.00
H1898  H     0.80232   0.74536   0.95664   0.00000  Uiso   1.00
H1899  H     0.82322   0.70501   0.89249   0.00000  Uiso   1.00
C1900  C     0.82622   0.67404   0.97263   0.00000  Uiso   1.00
H1901  H     0.80197   0.98065   0.98741   0.00000  Uiso   1.00
H1902  H     0.85099   0.98401   0.94641   0.00000  Uiso   1.00
C1903  C     0.84947   0.71035   0.69536   0.00000  Uiso   1.00
H1904  H     0.86849   0.74315   0.68376   0.00000  Uiso   1.00
H1905  H     0.87299   0.68894   0.71709   0.00000  Uiso   1.00
H1906  H     0.82444   0.72580   0.72742   0.00000  Uiso   1.00
F1907  F     0.71595   0.77751   0.97561   0.00000  Uiso   1.00
F1908  F     0.78166   0.89066   0.69070   0.00000  Uiso   1.00
loop_
_geom_bond_atom_site_label_1
_geom_bond_atom_site_label_2
_geom_bond_distance
_geom_bond_site_symmetry_2
_ccdc_geom_bond_type
O1     C5      1.306   .     A
O1     Cu13    1.996   .     S
O2     C6      1.308   .     A
O2     Cu14    1.996   .     S
O3     Cu14    1.994   .     S
O3     C5      1.315   .     A
O4     Cu13    1.994   .     S
O4     C6      1.313   .     A
C5     C31     1.458   .     S
C6     C32     1.453   .     S
O7     C11     1.322   .     A
O7     Cu13    1.978   .     S
O8     C12     1.319   .     A
O8     Cu14    1.978   .     S
O9     Cu14    1.958   .     S
O9     C11     1.302   .     A
O10    C12     1.305   .     A
O10    Cu13    1.958   .     S
C11    C18     1.458   .     S
C12    C17     1.458   .     S
Cu13   Cu14    2.743   .     S
Cu13   N34     2.062   .     S
Cu14   N33     2.062   .     S
C15    C25     1.418   .     A
C15    O35     1.382   .     S
C15    C17     1.401   .     A
C16    C26     1.416   .     A
C16    O46     1.389   .     S
C16    C18     1.408   .     A
C17    C19     1.389   .     A
C18    C20     1.393   .     A
C19    F57     1.357   .     S
C19    C21     1.402   .     A
C20    C22     1.402   .     A
C20    F58     1.359   .     S
C21    C27     1.395   .     A
C21    C23     1.410   .     A
C22    C28     1.404   .     A
C22    C24     1.411   .     A
C23    C25     1.417   .     A
C23    C130    1.412   .     S
C24    C26     1.422   .     A
C24    C129    1.412   1_455 S
C25    C30     1.415   .     A
C26    C29     1.415   .     A
C27    F59     1.352   .     S
C27    C135    1.406   .     S
C28    F60     1.357   .     S
C28    C136    1.412   1_455 S
C29    O61     1.393   .     S
C29    C133    1.406   1_455 S
C30    O72     1.392   .     S
C30    C134    1.412   .     S
C31    C456    1.362   1_545 S
C31    O507    1.387   1_545 S
C32    C243    1.362   .     S
C32    O306    1.387   .     S
N33    N1306   1.306   1_554 S
N33    F1377   1.333   1_554 S
N34    N669    1.306   .     S
N34    F742    1.330   .     S
O35    C36     1.428   .     S
C36    H37     1.100   .     S
C36    C39     1.562   .     S
C36    H38     1.105   .     S
C39    H41     1.109   .     S
C39    H40     1.105   .     S
C39    C1314   1.520   1_554 S
C42    H44     1.109   .     S
C42    H43     1.104   .     S
C42    C675    1.520   .     S
C42    H681    1.108   .     S
H45    C1314   1.108   1_554 S
O46    C47     1.433   .     S
C47    H49     1.103   .     S
C47    C50     1.546   .     S
C47    H48     1.102   .     S
C50    H52     1.110   .     S
C50    H51     1.105   .     S
C50    C1325   1.520   1_554 S
C53    H54     1.109   .     S
C53    H55     1.108   .     S
C53    H56     1.108   .     S
C53    C686    1.520   .     S
O61    C486    1.418   1_545 S
C62    H63     1.103   .     S
C62    C65     1.524   .     S
C62    O273    1.418   .     S
C62    H382    1.107   1_455 S
H64    C592    1.107   1_545 S
C65    C68     1.520   .     S
C65    H172    1.098   1_455 S
C65    H173    1.111   1_455 S
H66    C171    1.098   .     S
H67    C171    1.111   .     S
C68    H69     1.108   .     S
C68    H71     1.109   .     S
C68    H70     1.110   .     S
O72    C285    1.410   .     S
C73    C76     1.529   .     S
C73    O496    1.410   1_545 S
C73    H180    1.101   .     S
C73    H181    1.089   .     S
H74    C179    1.101   1_455 S
H75    C179    1.089   1_455 S
C76    C79     1.529   .     S
C76    H77     1.108   .     S
C76    H78     1.107   .     S
C79    H81     1.109   .     S
C79    H82     1.110   .     S
C79    H716    1.106   .     S
H80    C1351   1.106   1_554 S
O83    C84     1.417   .     S
O83    C243    1.387   .     S
C84    C87     1.532   .     S
C84    H85     1.113   .     S
C84    H298    1.115   .     S
H86    C508    1.115   1_545 S
C87    H88     1.100   .     S
C87    H89     1.111   .     S
C87    C1362   1.513   1_554 S
C90    H92     1.110   .     S
C90    H93     1.108   .     S
C90    H91     1.106   .     S
C90    C723    1.513   .     S
O94    C95     1.416   .     S
O94    C456    1.387   1_545 S
C95    H96     1.112   .     S
C95    C98     1.525   .     S
C95    H97     1.118   .     S
C98    H523    1.111   1_545 S
C98    H524    1.110   1_545 S
C98    C737    1.521   .     S
H99    C310    1.111   .     S
H100   C310    1.110   .     S
C101   H102    1.109   .     S
C101   H103    1.101   .     S
C101   H104    1.109   .     S
C101   C1370   1.521   1_554 S
F105   N669    1.333   .     S
F106   N1306   1.330   1_554 S
O107   C111    1.306   .     A
O107   Cu119   1.996   .     S
O108   C112    1.308   .     A
O108   Cu120   1.996   .     S
O109   Cu120   1.994   .     S
O109   C111    1.315   .     A
O110   Cu119   1.994   .     S
O110   C112    1.313   .     A
C111   C137    1.458   .     S
C112   C138    1.453   .     S
O113   C117    1.322   .     A
O113   Cu119   1.978   .     S
O114   C118    1.319   .     A
O114   Cu120   1.978   .     S
O115   Cu120   1.958   .     S
O115   C117    1.302   .     A
O116   C118    1.305   .     A
O116   Cu119   1.958   .     S
C117   C124    1.458   .     S
C118   C123    1.458   .     S
Cu119  Cu120   2.743   .     S
Cu119  N140    2.062   .     S
Cu120  N139    2.062   .     S
C121   C131    1.418   .     A
C121   O141    1.382   .     S
C121   C123    1.401   .     A
C122   C132    1.416   .     A
C122   O152    1.389   .     S
C122   C124    1.408   .     A
C123   C125    1.389   .     A
C124   C126    1.393   .     A
C125   F163    1.357   .     S
C125   C127    1.402   .     A
C126   C128    1.402   .     A
C126   F164    1.359   .     S
C127   C133    1.395   .     A
C127   C129    1.410   .     A
C128   C134    1.404   .     A
C128   C130    1.411   .     A
C129   C131    1.417   .     A
C129   C24     1.412   1_655 S
C130   C132    1.422   .     A
C131   C136    1.415   .     A
C132   C135    1.415   .     A
C133   F165    1.352   .     S
C133   C29     1.406   1_655 S
C134   F166    1.357   .     S
C135   O167    1.393   .     S
C136   O178    1.392   .     S
C136   C28     1.412   1_655 S
C137   C562    1.362   1_545 S
C137   O613    1.387   1_545 S
C138   C349    1.362   .     S
C138   O412    1.387   .     S
N139   N1412   1.306   1_554 S
N139   F1483   1.333   1_554 S
N140   N775    1.306   .     S
N140   F848    1.330   .     S
O141   C142    1.428   .     S
C142   H143    1.100   .     S
C142   C145    1.562   .     S
C142   H144    1.105   .     S
C145   H147    1.109   .     S
C145   H146    1.105   .     S
C145   C1420   1.520   1_554 S
C148   H150    1.109   .     S
C148   H149    1.104   .     S
C148   C781    1.520   .     S
C148   H787    1.108   .     S
H151   C1420   1.108   1_554 S
O152   C153    1.433   .     S
C153   H155    1.103   .     S
C153   C156    1.546   .     S
C153   H154    1.102   .     S
C156   H158    1.110   .     S
C156   H157    1.105   .     S
C156   C1431   1.520   1_554 S
C159   H160    1.109   .     S
C159   H161    1.108   .     S
C159   H162    1.108   .     S
C159   C792    1.520   .     S
O167   C592    1.418   1_545 S
C168   H169    1.103   .     S
C168   C171    1.524   .     S
C168   O379    1.418   .     S
C168   H276    1.107   .     S
H170   C486    1.107   1_645 S
C171   C174    1.520   .     S
H172   C65     1.098   1_655 S
H173   C65     1.111   1_655 S
C174   H175    1.108   .     S
C174   H177    1.109   .     S
C174   H176    1.110   .     S
O178   C391    1.410   .     S
C179   C182    1.529   .     S
C179   O602    1.410   1_545 S
C179   H74     1.101   1_655 S
C179   H75     1.089   1_655 S
C182   C185    1.529   .     S
C182   H183    1.108   .     S
C182   H184    1.107   .     S
C185   H187    1.109   .     S
C185   H188    1.110   .     S
C185   H822    1.106   .     S
H186   C1457   1.106   1_554 S
O189   C190    1.417   .     S
O189   C349    1.387   .     S
C190   C193    1.532   .     S
C190   H191    1.113   .     S
C190   H404    1.115   .     S
H192   C614    1.115   1_545 S
C193   H194    1.100   .     S
C193   H195    1.111   .     S
C193   C1468   1.513   1_554 S
C196   H198    1.110   .     S
C196   H199    1.108   .     S
C196   H197    1.106   .     S
C196   C829    1.513   .     S
O200   C201    1.416   .     S
O200   C562    1.387   1_545 S
C201   H202    1.112   .     S
C201   C204    1.525   .     S
C201   H203    1.118   .     S
C204   H629    1.111   1_545 S
C204   H630    1.110   1_545 S
C204   C843    1.521   .     S
H205   C416    1.111   .     S
H206   C416    1.110   .     S
C207   H208    1.109   .     S
C207   H209    1.101   .     S
C207   H210    1.109   .     S
C207   C1476   1.521   1_554 S
F211   N775    1.333   .     S
F212   N1412   1.330   1_554 S
O213   C217    1.306   .     A
O213   Cu225   1.996   .     S
O214   C218    1.308   .     A
O214   Cu226   1.996   .     S
O215   Cu226   1.994   .     S
O215   C217    1.315   .     A
O216   Cu225   1.994   .     S
O216   C218    1.313   .     A
C217   C243    1.458   .     S
C218   C244    1.453   .     S
O219   C223    1.322   .     A
O219   Cu225   1.978   .     S
O220   C224    1.319   .     A
O220   Cu226   1.978   .     S
O221   Cu226   1.958   .     S
O221   C223    1.302   .     A
O222   C224    1.305   .     A
O222   Cu225   1.958   .     S
C223   C230    1.458   .     S
C224   C229    1.458   .     S
Cu225  Cu226   2.743   .     S
Cu225  N246    2.062   .     S
Cu226  N245    2.062   .     S
C227   C237    1.418   .     A
C227   O247    1.382   .     S
C227   C229    1.401   .     A
C228   C238    1.416   .     A
C228   O258    1.389   .     S
C228   C230    1.408   .     A
C229   C231    1.389   .     A
C230   C232    1.393   .     A
C231   F269    1.357   .     S
C231   C233    1.402   .     A
C232   C234    1.402   .     A
C232   F270    1.359   .     S
C233   C239    1.395   .     A
C233   C235    1.410   .     A
C234   C240    1.404   .     A
C234   C236    1.411   .     A
C235   C237    1.417   .     A
C235   C342    1.412   .     S
C236   C238    1.422   .     A
C236   C341    1.412   1_455 S
C237   C242    1.415   .     A
C238   C241    1.415   .     A
C239   F271    1.352   .     S
C239   C347    1.406   .     S
C240   F272    1.357   .     S
C240   C348    1.412   1_455 S
C241   O273    1.393   .     S
C241   C345    1.406   1_455 S
C242   O284    1.392   .     S
C242   C346    1.412   .     S
C244   C455    1.362   .     S
C244   O518    1.387   .     S
N245   N1518   1.306   1_554 S
N245   F1589   1.333   1_554 S
N246   N881    1.306   .     S
N246   F954    1.330   .     S
O247   C248    1.428   .     S
C248   H249    1.100   .     S
C248   C251    1.562   .     S
C248   H250    1.105   .     S
C251   H253    1.109   .     S
C251   H252    1.105   .     S
C251   C1526   1.520   1_554 S
C254   H256    1.109   .     S
C254   H255    1.104   .     S
C254   C887    1.520   .     S
C254   H893    1.108   .     S
H257   C1526   1.108   1_554 S
O258   C259    1.433   .     S
C259   H261    1.103   .     S
C259   C262    1.546   .     S
C259   H260    1.102   .     S
C262   H264    1.110   .     S
C262   H263    1.105   .     S
C262   C1537   1.520   1_554 S
C265   H266    1.109   .     S
C265   H267    1.108   .     S
C265   H268    1.108   .     S
C265   C898    1.520   .     S
C274   H275    1.103   .     S
C274   C277    1.524   .     S
C274   O485    1.418   .     S
C274   H594    1.107   1_455 S
C277   C280    1.520   .     S
C277   H384    1.098   1_455 S
C277   H385    1.111   1_455 S
H278   C383    1.098   .     S
H279   C383    1.111   .     S
C280   H281    1.108   .     S
C280   H283    1.109   .     S
C280   H282    1.110   .     S
O284   C497    1.410   .     S
C285   C288    1.529   .     S
C285   H392    1.101   .     S
C285   H393    1.089   .     S
H286   C391    1.101   1_455 S
H287   C391    1.089   1_455 S
C288   C291    1.529   .     S
C288   H289    1.108   .     S
C288   H290    1.107   .     S
C291   H293    1.109   .     S
C291   H294    1.110   .     S
C291   H928    1.106   .     S
H292   C1563   1.106   1_554 S
O295   C296    1.417   .     S
O295   C455    1.387   .     S
C296   C299    1.532   .     S
C296   H297    1.113   .     S
C296   H510    1.115   .     S
C299   H300    1.100   .     S
C299   H301    1.111   .     S
C299   C1574   1.513   1_554 S
C302   H304    1.110   .     S
C302   H305    1.108   .     S
C302   H303    1.106   .     S
C302   C935    1.513   .     S
O306   C307    1.416   .     S
C307   H308    1.112   .     S
C307   C310    1.525   .     S
C307   H309    1.118   .     S
C310   C949    1.521   .     S
H311   C522    1.111   .     S
H312   C522    1.110   .     S
C313   H314    1.109   .     S
C313   H315    1.101   .     S
C313   H316    1.109   .     S
C313   C1582   1.521   1_554 S
F317   N881    1.333   .     S
F318   N1518   1.330   1_554 S
O319   C323    1.306   .     A
O319   Cu331   1.996   .     S
O320   C324    1.308   .     A
O320   Cu332   1.996   .     S
O321   Cu332   1.994   .     S
O321   C323    1.315   .     A
O322   Cu331   1.994   .     S
O322   C324    1.313   .     A
C323   C349    1.458   .     S
C324   C350    1.453   .     S
O325   C329    1.322   .     A
O325   Cu331   1.978   .     S
O326   C330    1.319   .     A
O326   Cu332   1.978   .     S
O327   Cu332   1.958   .     S
O327   C329    1.302   .     A
O328   C330    1.305   .     A
O328   Cu331   1.958   .     S
C329   C336    1.458   .     S
C330   C335    1.458   .     S
Cu331  Cu332   2.743   .     S
Cu331  N352    2.062   .     S
Cu332  N351    2.062   .     S
C333   C343    1.418   .     A
C333   O353    1.382   .     S
C333   C335    1.401   .     A
C334   C344    1.416   .     A
C334   O364    1.389   .     S
C334   C336    1.408   .     A
C335   C337    1.389   .     A
C336   C338    1.393   .     A
C337   F375    1.357   .     S
C337   C339    1.402   .     A
C338   C340    1.402   .     A
C338   F376    1.359   .     S
C339   C345    1.395   .     A
C339   C341    1.410   .     A
C340   C346    1.404   .     A
C340   C342    1.411   .     A
C341   C343    1.417   .     A
C341   C236    1.412   1_655 S
C342   C344    1.422   .     A
C343   C348    1.415   .     A
C344   C347    1.415   .     A
C345   F377    1.352   .     S
C345   C241    1.406   1_655 S
C346   F378    1.357   .     S
C347   O379    1.393   .     S
C348   O390    1.392   .     S
C348   C240    1.412   1_655 S
C350   C561    1.362   .     S
C350   O624    1.387   .     S
N351   N1624   1.306   1_554 S
N351   F1695   1.333   1_554 S
N352   N987    1.306   .     S
N352   F1060   1.330   .     S
O353   C354    1.428   .     S
C354   H355    1.100   .     S
C354   C357    1.562   .     S
C354   H356    1.105   .     S
C357   H359    1.109   .     S
C357   H358    1.105   .     S
C357   C1632   1.520   1_554 S
C360   H362    1.109   .     S
C360   H361    1.104   .     S
C360   C993    1.520   .     S
C360   H999    1.108   .     S
H363   C1632   1.108   1_554 S
O364   C365    1.433   .     S
C365   H367    1.103   .     S
C365   C368    1.546   .     S
C365   H366    1.102   .     S
C368   H370    1.110   .     S
C368   H369    1.105   .     S
C368   C1643   1.520   1_554 S
C371   H372    1.109   .     S
C371   H373    1.108   .     S
C371   H374    1.108   .     S
C371   C1004   1.520   .     S
C380   H381    1.103   .     S
C380   C383    1.524   .     S
C380   O591    1.418   .     S
C380   H488    1.107   .     S
H382   C62     1.107   1_655 S
C383   C386    1.520   .     S
H384   C277    1.098   1_655 S
H385   C277    1.111   1_655 S
C386   H387    1.108   .     S
C386   H389    1.109   .     S
C386   H388    1.110   .     S
O390   C603    1.410   .     S
C391   C394    1.529   .     S
C391   H286    1.101   1_655 S
C391   H287    1.089   1_655 S
C394   C397    1.529   .     S
C394   H395    1.108   .     S
C394   H396    1.107   .     S
C397   H399    1.109   .     S
C397   H400    1.110   .     S
C397   H1034   1.106   .     S
H398   C1669   1.106   1_554 S
O401   C402    1.417   .     S
O401   C561    1.387   .     S
C402   C405    1.532   .     S
C402   H403    1.113   .     S
C402   H616    1.115   .     S
C405   H406    1.100   .     S
C405   H407    1.111   .     S
C405   C1680   1.513   1_554 S
C408   H410    1.110   .     S
C408   H411    1.108   .     S
C408   H409    1.106   .     S
C408   C1041   1.513   .     S
O412   C413    1.416   .     S
C413   H414    1.112   .     S
C413   C416    1.525   .     S
C413   H415    1.118   .     S
C416   C1055   1.521   .     S
H417   C628    1.111   .     S
H418   C628    1.110   .     S
C419   H420    1.109   .     S
C419   H421    1.101   .     S
C419   H422    1.109   .     S
C419   C1688   1.521   1_554 S
F423   N987    1.333   .     S
F424   N1624   1.330   1_554 S
O425   C429    1.306   .     A
O425   Cu437   1.996   .     S
O426   C430    1.308   .     A
O426   Cu438   1.996   .     S
O427   Cu438   1.994   .     S
O427   C429    1.315   .     A
O428   Cu437   1.994   .     S
O428   C430    1.313   .     A
C429   C455    1.458   .     S
C430   C456    1.453   .     S
O431   C435    1.322   .     A
O431   Cu437   1.978   .     S
O432   C436    1.319   .     A
O432   Cu438   1.978   .     S
O433   Cu438   1.958   .     S
O433   C435    1.302   .     A
O434   C436    1.305   .     A
O434   Cu437   1.958   .     S
C435   C442    1.458   .     S
C436   C441    1.458   .     S
Cu437  Cu438   2.743   .     S
Cu437  N458    2.062   .     S
Cu438  N457    2.062   .     S
C439   C449    1.418   .     A
C439   O459    1.382   .     S
C439   C441    1.401   .     A
C440   C450    1.416   .     A
C440   O470    1.389   .     S
C440   C442    1.408   .     A
C441   C443    1.389   .     A
C442   C444    1.393   .     A
C443   F481    1.357   .     S
C443   C445    1.402   .     A
C444   C446    1.402   .     A
C444   F482    1.359   .     S
C445   C451    1.395   .     A
C445   C447    1.410   .     A
C446   C452    1.404   .     A
C446   C448    1.411   .     A
C447   C449    1.417   .     A
C447   C554    1.412   .     S
C448   C450    1.422   .     A
C448   C553    1.412   1_455 S
C449   C454    1.415   .     A
C450   C453    1.415   .     A
C451   F483    1.352   .     S
C451   C559    1.406   .     S
C452   F484    1.357   .     S
C452   C560    1.412   1_455 S
C453   O485    1.393   .     S
C453   C557    1.406   1_455 S
C454   O496    1.392   .     S
C454   C558    1.412   .     S
C456   C31     1.362   1_565 S
C456   O94     1.387   1_565 S
N457   N1730   1.306   1_554 S
N457   F1801   1.333   1_554 S
N458   N1093   1.306   .     S
N458   F1166   1.330   .     S
O459   C460    1.428   .     S
C460   H461    1.100   .     S
C460   C463    1.562   .     S
C460   H462    1.105   .     S
C463   H465    1.109   .     S
C463   H464    1.105   .     S
C463   C1738   1.520   1_554 S
C466   H468    1.109   .     S
C466   H467    1.104   .     S
C466   C1099   1.520   .     S
C466   H1105   1.108   .     S
H469   C1738   1.108   1_554 S
O470   C471    1.433   .     S
C471   H473    1.103   .     S
C471   C474    1.546   .     S
C471   H472    1.102   .     S
C474   H476    1.110   .     S
C474   H475    1.105   .     S
C474   C1749   1.520   1_554 S
C477   H478    1.109   .     S
C477   H479    1.108   .     S
C477   H480    1.108   .     S
C477   C1110   1.520   .     S
C486   H487    1.103   .     S
C486   C489    1.524   .     S
C486   O61     1.418   1_565 S
C486   H170    1.107   1_465 S
C489   C492    1.520   .     S
C489   H596    1.098   1_455 S
C489   H597    1.111   1_455 S
H490   C595    1.098   .     S
H491   C595    1.111   .     S
C492   H493    1.108   .     S
C492   H495    1.109   .     S
C492   H494    1.110   .     S
O496   C73     1.410   1_565 S
C497   C500    1.529   .     S
C497   H604    1.101   .     S
C497   H605    1.089   .     S
H498   C603    1.101   1_455 S
H499   C603    1.089   1_455 S
C500   C503    1.529   .     S
C500   H501    1.108   .     S
C500   H502    1.107   .     S
C503   H505    1.109   .     S
C503   H506    1.110   .     S
C503   H1140   1.106   .     S
H504   C1775   1.106   1_554 S
O507   C508    1.417   .     S
O507   C31     1.387   1_565 S
C508   C511    1.532   .     S
C508   H509    1.113   .     S
C508   H86     1.115   1_565 S
C511   H512    1.100   .     S
C511   H513    1.111   .     S
C511   C1786   1.513   1_554 S
C514   H516    1.110   .     S
C514   H517    1.108   .     S
C514   H515    1.106   .     S
C514   C1147   1.513   .     S
O518   C519    1.416   .     S
C519   H520    1.112   .     S
C519   C522    1.525   .     S
C519   H521    1.118   .     S
C522   C1161   1.521   .     S
H523   C98     1.111   1_565 S
H524   C98     1.110   1_565 S
C525   H526    1.109   .     S
C525   H527    1.101   .     S
C525   H528    1.109   .     S
C525   C1794   1.521   1_554 S
F529   N1093   1.333   .     S
F530   N1730   1.330   1_554 S
O531   C535    1.306   .     A
O531   Cu543   1.996   .     S
O532   C536    1.308   .     A
O532   Cu544   1.996   .     S
O533   Cu544   1.994   .     S
O533   C535    1.315   .     A
O534   Cu543   1.994   .     S
O534   C536    1.313   .     A
C535   C561    1.458   .     S
C536   C562    1.453   .     S
O537   C541    1.322   .     A
O537   Cu543   1.978   .     S
O538   C542    1.319   .     A
O538   Cu544   1.978   .     S
O539   Cu544   1.958   .     S
O539   C541    1.302   .     A
O540   C542    1.305   .     A
O540   Cu543   1.958   .     S
C541   C548    1.458   .     S
C542   C547    1.458   .     S
Cu543  Cu544   2.743   .     S
Cu543  N564    2.062   .     S
Cu544  N563    2.062   .     S
C545   C555    1.418   .     A
C545   O565    1.382   .     S
C545   C547    1.401   .     A
C546   C556    1.416   .     A
C546   O576    1.389   .     S
C546   C548    1.408   .     A
C547   C549    1.389   .     A
C548   C550    1.393   .     A
C549   F587    1.357   .     S
C549   C551    1.402   .     A
C550   C552    1.402   .     A
C550   F588    1.359   .     S
C551   C557    1.395   .     A
C551   C553    1.410   .     A
C552   C558    1.404   .     A
C552   C554    1.411   .     A
C553   C555    1.417   .     A
C553   C448    1.412   1_655 S
C554   C556    1.422   .     A
C555   C560    1.415   .     A
C556   C559    1.415   .     A
C557   F589    1.352   .     S
C557   C453    1.406   1_655 S
C558   F590    1.357   .     S
C559   O591    1.393   .     S
C560   O602    1.392   .     S
C560   C452    1.412   1_655 S
C562   C137    1.362   1_565 S
C562   O200    1.387   1_565 S
N563   N1836   1.306   1_554 S
N563   F1907   1.333   1_554 S
N564   N1199   1.306   .     S
N564   F1272   1.330   .     S
O565   C566    1.428   .     S
C566   H567    1.100   .     S
C566   C569    1.562   .     S
C566   H568    1.105   .     S
C569   H571    1.109   .     S
C569   H570    1.105   .     S
C569   C1844   1.520   1_554 S
C572   H574    1.109   .     S
C572   H573    1.104   .     S
C572   C1205   1.520   .     S
C572   H1211   1.108   .     S
H575   C1844   1.108   1_554 S
O576   C577    1.433   .     S
C577   H579    1.103   .     S
C577   C580    1.546   .     S
C577   H578    1.102   .     S
C580   H582    1.110   .     S
C580   H581    1.105   .     S
C580   C1855   1.520   1_554 S
C583   H584    1.109   .     S
C583   H585    1.108   .     S
C583   H586    1.108   .     S
C583   C1216   1.520   .     S
C592   H593    1.103   .     S
C592   C595    1.524   .     S
C592   O167    1.418   1_565 S
C592   H64     1.107   1_565 S
H594   C274    1.107   1_655 S
C595   C598    1.520   .     S
H596   C489    1.098   1_655 S
H597   C489    1.111   1_655 S
C598   H599    1.108   .     S
C598   H601    1.109   .     S
C598   H600    1.110   .     S
O602   C179    1.410   1_565 S
C603   C606    1.529   .     S
C603   H498    1.101   1_655 S
C603   H499    1.089   1_655 S
C606   C609    1.529   .     S
C606   H607    1.108   .     S
C606   H608    1.107   .     S
C609   H611    1.109   .     S
C609   H612    1.110   .     S
C609   H1246   1.106   .     S
H610   C1881   1.106   1_554 S
O613   C614    1.417   .     S
O613   C137    1.387   1_565 S
C614   C617    1.532   .     S
C614   H615    1.113   .     S
C614   H192    1.115   1_565 S
C617   H618    1.100   .     S
C617   H619    1.111   .     S
C617   C1892   1.513   1_554 S
C620   H622    1.110   .     S
C620   H623    1.108   .     S
C620   H621    1.106   .     S
C620   C1253   1.513   .     S
O624   C625    1.416   .     S
C625   H626    1.112   .     S
C625   C628    1.525   .     S
C625   H627    1.118   .     S
C628   C1267   1.521   .     S
H629   C204    1.111   1_565 S
H630   C204    1.110   1_565 S
C631   H632    1.109   .     S
C631   H633    1.101   .     S
C631   H634    1.109   .     S
C631   C1900   1.521   1_554 S
F635   N1199   1.333   .     S
F636   N1836   1.330   1_554 S
O637   C641    1.306   .     A
O637   Cu649   1.996   .     S
O638   C642    1.308   .     A
O638   Cu650   1.996   .     S
O639   Cu650   1.994   .     S
O639   C641    1.315   .     A
O640   Cu649   1.994   .     S
O640   C642    1.313   .     A
C641   C667    1.458   .     S
C642   C668    1.453   .     S
O643   C647    1.322   .     A
O643   Cu649   1.978   .     S
O644   C648    1.319   .     A
O644   Cu650   1.978   .     S
O645   Cu650   1.958   .     S
O645   C647    1.302   .     A
O646   C648    1.305   .     A
O646   Cu649   1.958   .     S
C647   C654    1.458   .     S
C648   C653    1.458   .     S
Cu649  Cu650   2.743   .     S
Cu649  N670    2.062   .     S
Cu650  N669    2.062   .     S
C651   C661    1.418   .     A
C651   O671    1.382   .     S
C651   C653    1.401   .     A
C652   C662    1.416   .     A
C652   O682    1.389   .     S
C652   C654    1.408   .     A
C653   C655    1.389   .     A
C654   C656    1.393   .     A
C655   F693    1.357   .     S
C655   C657    1.402   .     A
C656   C658    1.402   .     A
C656   F694    1.359   .     S
C657   C663    1.395   .     A
C657   C659    1.410   .     A
C658   C664    1.404   .     A
C658   C660    1.411   .     A
C659   C661    1.417   .     A
C659   C766    1.412   .     S
C660   C662    1.422   .     A
C660   C765    1.412   1_455 S
C661   C666    1.415   .     A
C662   C665    1.415   .     A
C663   F695    1.352   .     S
C663   C771    1.406   .     S
C664   F696    1.357   .     S
C664   C772    1.412   1_455 S
C665   O697    1.393   .     S
C665   C769    1.406   1_455 S
C666   O708    1.392   .     S
C666   C770    1.412   .     S
C667   C1092   1.362   1_545 S
C667   O1143   1.387   1_545 S
C668   C879    1.362   .     S
C668   O942    1.387   .     S
N670   N1305   1.306   .     S
N670   F1378   1.330   .     S
O671   C672    1.428   .     S
C672   H673    1.100   .     S
C672   C675    1.562   .     S
C672   H674    1.105   .     S
C675   H677    1.109   .     S
C675   H676    1.105   .     S
C678   H680    1.109   .     S
C678   H679    1.104   .     S
C678   C1311   1.520   .     S
C678   H1317   1.108   .     S
O682   C683    1.433   .     S
C683   H685    1.103   .     S
C683   C686    1.546   .     S
C683   H684    1.102   .     S
C686   H688    1.110   .     S
C686   H687    1.105   .     S
C689   H690    1.109   .     S
C689   H691    1.108   .     S
C689   H692    1.108   .     S
C689   C1322   1.520   .     S
O697   C1122   1.418   1_545 S
C698   H699    1.103   .     S
C698   C701    1.524   .     S
C698   O909    1.418   .     S
C698   H1018   1.107   1_455 S
H700   C1228   1.107   1_545 S
C701   C704    1.520   .     S
C701   H808    1.098   1_455 S
C701   H809    1.111   1_455 S
H702   C807    1.098   .     S
H703   C807    1.111   .     S
C704   H705    1.108   .     S
C704   H707    1.109   .     S
C704   H706    1.110   .     S
O708   C921    1.410   .     S
C709   C712    1.529   .     S
C709   O1132   1.410   1_545 S
C709   H816    1.101   .     S
C709   H817    1.089   .     S
H710   C815    1.101   1_455 S
H711   C815    1.089   1_455 S
C712   C715    1.529   .     S
C712   H713    1.108   .     S
C712   H714    1.107   .     S
C715   H717    1.109   .     S
C715   H718    1.110   .     S
C715   H1352   1.106   .     S
O719   C720    1.417   .     S
O719   C879    1.387   .     S
C720   C723    1.532   .     S
C720   H721    1.113   .     S
C720   H934    1.115   .     S
H722   C1144   1.115   1_545 S
C723   H724    1.100   .     S
C723   H725    1.111   .     S
C726   H728    1.110   .     S
C726   H729    1.108   .     S
C726   H727    1.106   .     S
C726   C1359   1.513   .     S
O730   C731    1.416   .     S
O730   C1092   1.387   1_545 S
C731   H732    1.112   .     S
C731   C734    1.525   .     S
C731   H733    1.118   .     S
C734   H1159   1.111   1_545 S
C734   H1160   1.110   1_545 S
C734   C1373   1.521   .     S
H735   C946    1.111   .     S
H736   C946    1.110   .     S
C737   H738    1.109   .     S
C737   H739    1.101   .     S
C737   H740    1.109   .     S
F741   N1305   1.333   .     S
O743   C747    1.306   .     A
O743   Cu755   1.996   .     S
O744   C748    1.308   .     A
O744   Cu756   1.996   .     S
O745   Cu756   1.994   .     S
O745   C747    1.315   .     A
O746   Cu755   1.994   .     S
O746   C748    1.313   .     A
C747   C773    1.458   .     S
C748   C774    1.453   .     S
O749   C753    1.322   .     A
O749   Cu755   1.978   .     S
O750   C754    1.319   .     A
O750   Cu756   1.978   .     S
O751   Cu756   1.958   .     S
O751   C753    1.302   .     A
O752   C754    1.305   .     A
O752   Cu755   1.958   .     S
C753   C760    1.458   .     S
C754   C759    1.458   .     S
Cu755  Cu756   2.743   .     S
Cu755  N776    2.062   .     S
Cu756  N775    2.062   .     S
C757   C767    1.418   .     A
C757   O777    1.382   .     S
C757   C759    1.401   .     A
C758   C768    1.416   .     A
C758   O788    1.389   .     S
C758   C760    1.408   .     A
C759   C761    1.389   .     A
C760   C762    1.393   .     A
C761   F799    1.357   .     S
C761   C763    1.402   .     A
C762   C764    1.402   .     A
C762   F800    1.359   .     S
C763   C769    1.395   .     A
C763   C765    1.410   .     A
C764   C770    1.404   .     A
C764   C766    1.411   .     A
C765   C767    1.417   .     A
C765   C660    1.412   1_655 S
C766   C768    1.422   .     A
C767   C772    1.415   .     A
C768   C771    1.415   .     A
C769   F801    1.352   .     S
C769   C665    1.406   1_655 S
C770   F802    1.357   .     S
C771   O803    1.393   .     S
C772   O814    1.392   .     S
C772   C664    1.412   1_655 S
C773   C1198   1.362   1_545 S
C773   O1249   1.387   1_545 S
C774   C985    1.362   .     S
C774   O1048   1.387   .     S
N776   N1411   1.306   .     S
N776   F1484   1.330   .     S
O777   C778    1.428   .     S
C778   H779    1.100   .     S
C778   C781    1.562   .     S
C778   H780    1.105   .     S
C781   H783    1.109   .     S
C781   H782    1.105   .     S
C784   H786    1.109   .     S
C784   H785    1.104   .     S
C784   C1417   1.520   .     S
C784   H1423   1.108   .     S
O788   C789    1.433   .     S
C789   H791    1.103   .     S
C789   C792    1.546   .     S
C789   H790    1.102   .     S
C792   H794    1.110   .     S
C792   H793    1.105   .     S
C795   H796    1.109   .     S
C795   H797    1.108   .     S
C795   H798    1.108   .     S
C795   C1428   1.520   .     S
O803   C1228   1.418   1_545 S
C804   H805    1.103   .     S
C804   C807    1.524   .     S
C804   O1015   1.418   .     S
C804   H912    1.107   .     S
H806   C1122   1.107   1_645 S
C807   C810    1.520   .     S
H808   C701    1.098   1_655 S
H809   C701    1.111   1_655 S
C810   H811    1.108   .     S
C810   H813    1.109   .     S
C810   H812    1.110   .     S
O814   C1027   1.410   .     S
C815   C818    1.529   .     S
C815   O1238   1.410   1_545 S
C815   H710    1.101   1_655 S
C815   H711    1.089   1_655 S
C818   C821    1.529   .     S
C818   H819    1.108   .     S
C818   H820    1.107   .     S
C821   H823    1.109   .     S
C821   H824    1.110   .     S
C821   H1458   1.106   .     S
O825   C826    1.417   .     S
O825   C985    1.387   .     S
C826   C829    1.532   .     S
C826   H827    1.113   .     S
C826   H1040   1.115   .     S
H828   C1250   1.115   1_545 S
C829   H830    1.100   .     S
C829   H831    1.111   .     S
C832   H834    1.110   .     S
C832   H835    1.108   .     S
C832   H833    1.106   .     S
C832   C1465   1.513   .     S
O836   C837    1.416   .     S
O836   C1198   1.387   1_545 S
C837   H838    1.112   .     S
C837   C840    1.525   .     S
C837   H839    1.118   .     S
C840   H1265   1.111   1_545 S
C840   H1266   1.110   1_545 S
C840   C1479   1.521   .     S
H841   C1052   1.111   .     S
H842   C1052   1.110   .     S
C843   H844    1.109   .     S
C843   H845    1.101   .     S
C843   H846    1.109   .     S
F847   N1411   1.333   .     S
O849   C853    1.306   .     A
O849   Cu861   1.996   .     S
O850   C854    1.308   .     A
O850   Cu862   1.996   .     S
O851   Cu862   1.994   .     S
O851   C853    1.315   .     A
O852   Cu861   1.994   .     S
O852   C854    1.313   .     A
C853   C879    1.458   .     S
C854   C880    1.453   .     S
O855   C859    1.322   .     A
O855   Cu861   1.978   .     S
O856   C860    1.319   .     A
O856   Cu862   1.978   .     S
O857   Cu862   1.958   .     S
O857   C859    1.302   .     A
O858   C860    1.305   .     A
O858   Cu861   1.958   .     S
C859   C866    1.458   .     S
C860   C865    1.458   .     S
Cu861  Cu862   2.743   .     S
Cu861  N882    2.062   .     S
Cu862  N881    2.062   .     S
C863   C873    1.418   .     A
C863   O883    1.382   .     S
C863   C865    1.401   .     A
C864   C874    1.416   .     A
C864   O894    1.389   .     S
C864   C866    1.408   .     A
C865   C867    1.389   .     A
C866   C868    1.393   .     A
C867   F905    1.357   .     S
C867   C869    1.402   .     A
C868   C870    1.402   .     A
C868   F906    1.359   .     S
C869   C875    1.395   .     A
C869   C871    1.410   .     A
C870   C876    1.404   .     A
C870   C872    1.411   .     A
C871   C873    1.417   .     A
C871   C978    1.412   .     S
C872   C874    1.422   .     A
C872   C977    1.412   1_455 S
C873   C878    1.415   .     A
C874   C877    1.415   .     A
C875   F907    1.352   .     S
C875   C983    1.406   .     S
C876   F908    1.357   .     S
C876   C984    1.412   1_455 S
C877   O909    1.393   .     S
C877   C981    1.406   1_455 S
C878   O920    1.392   .     S
C878   C982    1.412   .     S
C880   C1091   1.362   .     S
C880   O1154   1.387   .     S
N882   N1517   1.306   .     S
N882   F1590   1.330   .     S
O883   C884    1.428   .     S
C884   H885    1.100   .     S
C884   C887    1.562   .     S
C884   H886    1.105   .     S
C887   H889    1.109   .     S
C887   H888    1.105   .     S
C890   H892    1.109   .     S
C890   H891    1.104   .     S
C890   C1523   1.520   .     S
C890   H1529   1.108   .     S
O894   C895    1.433   .     S
C895   H897    1.103   .     S
C895   C898    1.546   .     S
C895   H896    1.102   .     S
C898   H900    1.110   .     S
C898   H899    1.105   .     S
C901   H902    1.109   .     S
C901   H903    1.108   .     S
C901   H904    1.108   .     S
C901   C1534   1.520   .     S
C910   H911    1.103   .     S
C910   C913    1.524   .     S
C910   O1121   1.418   .     S
C910   H1230   1.107   1_455 S
C913   C916    1.520   .     S
C913   H1020   1.098   1_455 S
C913   H1021   1.111   1_455 S
H914   C1019   1.098   .     S
H915   C1019   1.111   .     S
C916   H917    1.108   .     S
C916   H919    1.109   .     S
C916   H918    1.110   .     S
O920   C1133   1.410   .     S
C921   C924    1.529   .     S
C921   H1028   1.101   .     S
C921   H1029   1.089   .     S
H922   C1027   1.101   1_455 S
H923   C1027   1.089   1_455 S
C924   C927    1.529   .     S
C924   H925    1.108   .     S
C924   H926    1.107   .     S
C927   H929    1.109   .     S
C927   H930    1.110   .     S
C927   H1564   1.106   .     S
O931   C932    1.417   .     S
O931   C1091   1.387   .     S
C932   C935    1.532   .     S
C932   H933    1.113   .     S
C932   H1146   1.115   .     S
C935   H936    1.100   .     S
C935   H937    1.111   .     S
C938   H940    1.110   .     S
C938   H941    1.108   .     S
C938   H939    1.106   .     S
C938   C1571   1.513   .     S
O942   C943    1.416   .     S
C943   H944    1.112   .     S
C943   C946    1.525   .     S
C943   H945    1.118   .     S
C946   C1585   1.521   .     S
H947   C1158   1.111   .     S
H948   C1158   1.110   .     S
C949   H950    1.109   .     S
C949   H951    1.101   .     S
C949   H952    1.109   .     S
F953   N1517   1.333   .     S
O955   C959    1.306   .     A
O955   Cu967   1.996   .     S
O956   C960    1.308   .     A
O956   Cu968   1.996   .     S
O957   Cu968   1.994   .     S
O957   C959    1.315   .     A
O958   Cu967   1.994   .     S
O958   C960    1.313   .     A
C959   C985    1.458   .     S
C960   C986    1.453   .     S
O961   C965    1.322   .     A
O961   Cu967   1.978   .     S
O962   C966    1.319   .     A
O962   Cu968   1.978   .     S
O963   Cu968   1.958   .     S
O963   C965    1.302   .     A
O964   C966    1.305   .     A
O964   Cu967   1.958   .     S
C965   C972    1.458   .     S
C966   C971    1.458   .     S
Cu967  Cu968   2.743   .     S
Cu967  N988    2.062   .     S
Cu968  N987    2.062   .     S
C969   C979    1.418   .     A
C969   O989    1.382   .     S
C969   C971    1.401   .     A
C970   C980    1.416   .     A
C970   O1000   1.389   .     S
C970   C972    1.408   .     A
C971   C973    1.389   .     A
C972   C974    1.393   .     A
C973   F1011   1.357   .     S
C973   C975    1.402   .     A
C974   C976    1.402   .     A
C974   F1012   1.359   .     S
C975   C981    1.395   .     A
C975   C977    1.410   .     A
C976   C982    1.404   .     A
C976   C978    1.411   .     A
C977   C979    1.417   .     A
C977   C872    1.412   1_655 S
C978   C980    1.422   .     A
C979   C984    1.415   .     A
C980   C983    1.415   .     A
C981   F1013   1.352   .     S
C981   C877    1.406   1_655 S
C982   F1014   1.357   .     S
C983   O1015   1.393   .     S
C984   O1026   1.392   .     S
C984   C876    1.412   1_655 S
C986   C1197   1.362   .     S
C986   O1260   1.387   .     S
N988   N1623   1.306   .     S
N988   F1696   1.330   .     S
O989   C990    1.428   .     S
C990   H991    1.100   .     S
C990   C993    1.562   .     S
C990   H992    1.105   .     S
C993   H995    1.109   .     S
C993   H994    1.105   .     S
C996   H998    1.109   .     S
C996   H997    1.104   .     S
C996   C1629   1.520   .     S
C996   H1635   1.108   .     S
O1000  C1001   1.433   .     S
C1001  H1003   1.103   .     S
C1001  C1004   1.546   .     S
C1001  H1002   1.102   .     S
C1004  H1006   1.110   .     S
C1004  H1005   1.105   .     S
C1007  H1008   1.109   .     S
C1007  H1009   1.108   .     S
C1007  H1010   1.108   .     S
C1007  C1640   1.520   .     S
C1016  H1017   1.103   .     S
C1016  C1019   1.524   .     S
C1016  O1227   1.418   .     S
C1016  H1124   1.107   .     S
H1018  C698    1.107   1_655 S
C1019  C1022   1.520   .     S
H1020  C913    1.098   1_655 S
H1021  C913    1.111   1_655 S
C1022  H1023   1.108   .     S
C1022  H1025   1.109   .     S
C1022  H1024   1.110   .     S
O1026  C1239   1.410   .     S
C1027  C1030   1.529   .     S
C1027  H922    1.101   1_655 S
C1027  H923    1.089   1_655 S
C1030  C1033   1.529   .     S
C1030  H1031   1.108   .     S
C1030  H1032   1.107   .     S
C1033  H1035   1.109   .     S
C1033  H1036   1.110   .     S
C1033  H1670   1.106   .     S
O1037  C1038   1.417   .     S
O1037  C1197   1.387   .     S
C1038  C1041   1.532   .     S
C1038  H1039   1.113   .     S
C1038  H1252   1.115   .     S
C1041  H1042   1.100   .     S
C1041  H1043   1.111   .     S
C1044  H1046   1.110   .     S
C1044  H1047   1.108   .     S
C1044  H1045   1.106   .     S
C1044  C1677   1.513   .     S
O1048  C1049   1.416   .     S
C1049  H1050   1.112   .     S
C1049  C1052   1.525   .     S
C1049  H1051   1.118   .     S
C1052  C1691   1.521   .     S
H1053  C1264   1.111   .     S
H1054  C1264   1.110   .     S
C1055  H1056   1.109   .     S
C1055  H1057   1.101   .     S
C1055  H1058   1.109   .     S
F1059  N1623   1.333   .     S
O1061  C1065   1.306   .     A
O1061  Cu1073  1.996   .     S
O1062  C1066   1.308   .     A
O1062  Cu1074  1.996   .     S
O1063  Cu1074  1.994   .     S
O1063  C1065   1.315   .     A
O1064  Cu1073  1.994   .     S
O1064  C1066   1.313   .     A
C1065  C1091   1.458   .     S
C1066  C1092   1.453   .     S
O1067  C1071   1.322   .     A
O1067  Cu1073  1.978   .     S
O1068  C1072   1.319   .     A
O1068  Cu1074  1.978   .     S
O1069  Cu1074  1.958   .     S
O1069  C1071   1.302   .     A
O1070  C1072   1.305   .     A
O1070  Cu1073  1.958   .     S
C1071  C1078   1.458   .     S
C1072  C1077   1.458   .     S
Cu1073 Cu1074  2.743   .     S
Cu1073 N1094   2.062   .     S
Cu1074 N1093   2.062   .     S
C1075  C1085   1.418   .     A
C1075  O1095   1.382   .     S
C1075  C1077   1.401   .     A
C1076  C1086   1.416   .     A
C1076  O1106   1.389   .     S
C1076  C1078   1.408   .     A
C1077  C1079   1.389   .     A
C1078  C1080   1.393   .     A
C1079  F1117   1.357   .     S
C1079  C1081   1.402   .     A
C1080  C1082   1.402   .     A
C1080  F1118   1.359   .     S
C1081  C1087   1.395   .     A
C1081  C1083   1.410   .     A
C1082  C1088   1.404   .     A
C1082  C1084   1.411   .     A
C1083  C1085   1.417   .     A
C1083  C1190   1.412   .     S
C1084  C1086   1.422   .     A
C1084  C1189   1.412   1_455 S
C1085  C1090   1.415   .     A
C1086  C1089   1.415   .     A
C1087  F1119   1.352   .     S
C1087  C1195   1.406   .     S
C1088  F1120   1.357   .     S
C1088  C1196   1.412   1_455 S
C1089  O1121   1.393   .     S
C1089  C1193   1.406   1_455 S
C1090  O1132   1.392   .     S
C1090  C1194   1.412   .     S
C1092  C667    1.362   1_565 S
C1092  O730    1.387   1_565 S
N1094  N1729   1.306   .     S
N1094  F1802   1.330   .     S
O1095  C1096   1.428   .     S
C1096  H1097   1.100   .     S
C1096  C1099   1.562   .     S
C1096  H1098   1.105   .     S
C1099  H1101   1.109   .     S
C1099  H1100   1.105   .     S
C1102  H1104   1.109   .     S
C1102  H1103   1.104   .     S
C1102  C1735   1.520   .     S
C1102  H1741   1.108   .     S
O1106  C1107   1.433   .     S
C1107  H1109   1.103   .     S
C1107  C1110   1.546   .     S
C1107  H1108   1.102   .     S
C1110  H1112   1.110   .     S
C1110  H1111   1.105   .     S
C1113  H1114   1.109   .     S
C1113  H1115   1.108   .     S
C1113  H1116   1.108   .     S
C1113  C1746   1.520   .     S
C1122  H1123   1.103   .     S
C1122  C1125   1.524   .     S
C1122  O697    1.418   1_565 S
C1122  H806    1.107   1_465 S
C1125  C1128   1.520   .     S
C1125  H1232   1.098   1_455 S
C1125  H1233   1.111   1_455 S
H1126  C1231   1.098   .     S
H1127  C1231   1.111   .     S
C1128  H1129   1.108   .     S
C1128  H1131   1.109   .     S
C1128  H1130   1.110   .     S
O1132  C709    1.410   1_565 S
C1133  C1136   1.529   .     S
C1133  H1240   1.101   .     S
C1133  H1241   1.089   .     S
H1134  C1239   1.101   1_455 S
H1135  C1239   1.089   1_455 S
C1136  C1139   1.529   .     S
C1136  H1137   1.108   .     S
C1136  H1138   1.107   .     S
C1139  H1141   1.109   .     S
C1139  H1142   1.110   .     S
C1139  H1776   1.106   .     S
O1143  C1144   1.417   .     S
O1143  C667    1.387   1_565 S
C1144  C1147   1.532   .     S
C1144  H1145   1.113   .     S
C1144  H722    1.115   1_565 S
C1147  H1148   1.100   .     S
C1147  H1149   1.111   .     S
C1150  H1152   1.110   .     S
C1150  H1153   1.108   .     S
C1150  H1151   1.106   .     S
C1150  C1783   1.513   .     S
O1154  C1155   1.416   .     S
C1155  H1156   1.112   .     S
C1155  C1158   1.525   .     S
C1155  H1157   1.118   .     S
C1158  C1797   1.521   .     S
H1159  C734    1.111   1_565 S
H1160  C734    1.110   1_565 S
C1161  H1162   1.109   .     S
C1161  H1163   1.101   .     S
C1161  H1164   1.109   .     S
F1165  N1729   1.333   .     S
O1167  C1171   1.306   .     A
O1167  Cu1179  1.996   .     S
O1168  C1172   1.308   .     A
O1168  Cu1180  1.996   .     S
O1169  Cu1180  1.994   .     S
O1169  C1171   1.315   .     A
O1170  Cu1179  1.994   .     S
O1170  C1172   1.313   .     A
C1171  C1197   1.458   .     S
C1172  C1198   1.453   .     S
O1173  C1177   1.322   .     A
O1173  Cu1179  1.978   .     S
O1174  C1178   1.319   .     A
O1174  Cu1180  1.978   .     S
O1175  Cu1180  1.958   .     S
O1175  C1177   1.302   .     A
O1176  C1178   1.305   .     A
O1176  Cu1179  1.958   .     S
C1177  C1184   1.458   .     S
C1178  C1183   1.458   .     S
Cu1179 Cu1180  2.743   .     S
Cu1179 N1200   2.062   .     S
Cu1180 N1199   2.062   .     S
C1181  C1191   1.418   .     A
C1181  O1201   1.382   .     S
C1181  C1183   1.401   .     A
C1182  C1192   1.416   .     A
C1182  O1212   1.389   .     S
C1182  C1184   1.408   .     A
C1183  C1185   1.389   .     A
C1184  C1186   1.393   .     A
C1185  F1223   1.357   .     S
C1185  C1187   1.402   .     A
C1186  C1188   1.402   .     A
C1186  F1224   1.359   .     S
C1187  C1193   1.395   .     A
C1187  C1189   1.410   .     A
C1188  C1194   1.404   .     A
C1188  C1190   1.411   .     A
C1189  C1191   1.417   .     A
C1189  C1084   1.412   1_655 S
C1190  C1192   1.422   .     A
C1191  C1196   1.415   .     A
C1192  C1195   1.415   .     A
C1193  F1225   1.352   .     S
C1193  C1089   1.406   1_655 S
C1194  F1226   1.357   .     S
C1195  O1227   1.393   .     S
C1196  O1238   1.392   .     S
C1196  C1088   1.412   1_655 S
C1198  C773    1.362   1_565 S
C1198  O836    1.387   1_565 S
N1200  N1835   1.306   .     S
N1200  F1908   1.330   .     S
O1201  C1202   1.428   .     S
C1202  H1203   1.100   .     S
C1202  C1205   1.562   .     S
C1202  H1204   1.105   .     S
C1205  H1207   1.109   .     S
C1205  H1206   1.105   .     S
C1208  H1210   1.109   .     S
C1208  H1209   1.104   .     S
C1208  C1841   1.520   .     S
C1208  H1847   1.108   .     S
O1212  C1213   1.433   .     S
C1213  H1215   1.103   .     S
C1213  C1216   1.546   .     S
C1213  H1214   1.102   .     S
C1216  H1218   1.110   .     S
C1216  H1217   1.105   .     S
C1219  H1220   1.109   .     S
C1219  H1221   1.108   .     S
C1219  H1222   1.108   .     S
C1219  C1852   1.520   .     S
C1228  H1229   1.103   .     S
C1228  C1231   1.524   .     S
C1228  O803    1.418   1_565 S
C1228  H700    1.107   1_565 S
H1230  C910    1.107   1_655 S
C1231  C1234   1.520   .     S
H1232  C1125   1.098   1_655 S
H1233  C1125   1.111   1_655 S
C1234  H1235   1.108   .     S
C1234  H1237   1.109   .     S
C1234  H1236   1.110   .     S
O1238  C815    1.410   1_565 S
C1239  C1242   1.529   .     S
C1239  H1134   1.101   1_655 S
C1239  H1135   1.089   1_655 S
C1242  C1245   1.529   .     S
C1242  H1243   1.108   .     S
C1242  H1244   1.107   .     S
C1245  H1247   1.109   .     S
C1245  H1248   1.110   .     S
C1245  H1882   1.106   .     S
O1249  C1250   1.417   .     S
O1249  C773    1.387   1_565 S
C1250  C1253   1.532   .     S
C1250  H1251   1.113   .     S
C1250  H828    1.115   1_565 S
C1253  H1254   1.100   .     S
C1253  H1255   1.111   .     S
C1256  H1258   1.110   .     S
C1256  H1259   1.108   .     S
C1256  H1257   1.106   .     S
C1256  C1889   1.513   .     S
O1260  C1261   1.416   .     S
C1261  H1262   1.112   .     S
C1261  C1264   1.525   .     S
C1261  H1263   1.118   .     S
C1264  C1903   1.521   .     S
H1265  C840    1.111   1_565 S
H1266  C840    1.110   1_565 S
C1267  H1268   1.109   .     S
C1267  H1269   1.101   .     S
C1267  H1270   1.109   .     S
F1271  N1835   1.333   .     S
O1273  C1277   1.306   .     A
O1273  Cu1285  1.996   .     S
O1274  C1278   1.308   .     A
O1274  Cu1286  1.996   .     S
O1275  Cu1286  1.994   .     S
O1275  C1277   1.315   .     A
O1276  Cu1285  1.994   .     S
O1276  C1278   1.313   .     A
C1277  C1303   1.458   .     S
C1278  C1304   1.453   .     S
O1279  C1283   1.322   .     A
O1279  Cu1285  1.978   .     S
O1280  C1284   1.319   .     A
O1280  Cu1286  1.978   .     S
O1281  Cu1286  1.958   .     S
O1281  C1283   1.302   .     A
O1282  C1284   1.305   .     A
O1282  Cu1285  1.958   .     S
C1283  C1290   1.458   .     S
C1284  C1289   1.458   .     S
Cu1285 Cu1286  2.743   .     S
Cu1285 N1306   2.062   .     S
Cu1286 N1305   2.062   .     S
C1287  C1297   1.418   .     A
C1287  O1307   1.382   .     S
C1287  C1289   1.401   .     A
C1288  C1298   1.416   .     A
C1288  O1318   1.389   .     S
C1288  C1290   1.408   .     A
C1289  C1291   1.389   .     A
C1290  C1292   1.393   .     A
C1291  F1329   1.357   .     S
C1291  C1293   1.402   .     A
C1292  C1294   1.402   .     A
C1292  F1330   1.359   .     S
C1293  C1299   1.395   .     A
C1293  C1295   1.410   .     A
C1294  C1300   1.404   .     A
C1294  C1296   1.411   .     A
C1295  C1297   1.417   .     A
C1295  C1402   1.412   .     S
C1296  C1298   1.422   .     A
C1296  C1401   1.412   1_455 S
C1297  C1302   1.415   .     A
C1298  C1301   1.415   .     A
C1299  F1331   1.352   .     S
C1299  C1407   1.406   .     S
C1300  F1332   1.357   .     S
C1300  C1408   1.412   1_455 S
C1301  O1333   1.393   .     S
C1301  C1405   1.406   1_455 S
C1302  O1344   1.392   .     S
C1302  C1406   1.412   .     S
C1303  C1728   1.362   1_545 S
C1303  O1779   1.387   1_545 S
C1304  C1515   1.362   .     S
C1304  O1578   1.387   .     S
N1306  N33     1.306   1_556 S
N1306  F106    1.330   1_556 S
O1307  C1308   1.428   .     S
C1308  H1309   1.100   .     S
C1308  C1311   1.562   .     S
C1308  H1310   1.105   .     S
C1311  H1313   1.109   .     S
C1311  H1312   1.105   .     S
C1314  H1316   1.109   .     S
C1314  H1315   1.104   .     S
C1314  C39     1.520   1_556 S
C1314  H45     1.108   1_556 S
O1318  C1319   1.433   .     S
C1319  H1321   1.103   .     S
C1319  C1322   1.546   .     S
C1319  H1320   1.102   .     S
C1322  H1324   1.110   .     S
C1322  H1323   1.105   .     S
C1325  H1326   1.109   .     S
C1325  H1327   1.108   .     S
C1325  H1328   1.108   .     S
C1325  C50     1.520   1_556 S
O1333  C1758   1.418   1_545 S
C1334  H1335   1.103   .     S
C1334  C1337   1.524   .     S
C1334  O1545   1.418   .     S
C1334  H1654   1.107   1_455 S
H1336  C1864   1.107   1_545 S
C1337  C1340   1.520   .     S
C1337  H1444   1.098   1_455 S
C1337  H1445   1.111   1_455 S
H1338  C1443   1.098   .     S
H1339  C1443   1.111   .     S
C1340  H1341   1.108   .     S
C1340  H1343   1.109   .     S
C1340  H1342   1.110   .     S
O1344  C1557   1.410   .     S
C1345  C1348   1.529   .     S
C1345  O1768   1.410   1_545 S
C1345  H1452   1.101   .     S
C1345  H1453   1.089   .     S
H1346  C1451   1.101   1_455 S
H1347  C1451   1.089   1_455 S
C1348  C1351   1.529   .     S
C1348  H1349   1.108   .     S
C1348  H1350   1.107   .     S
C1351  H1353   1.109   .     S
C1351  H1354   1.110   .     S
C1351  H80     1.106   1_556 S
O1355  C1356   1.417   .     S
O1355  C1515   1.387   .     S
C1356  C1359   1.532   .     S
C1356  H1357   1.113   .     S
C1356  H1570   1.115   .     S
H1358  C1780   1.115   1_545 S
C1359  H1360   1.100   .     S
C1359  H1361   1.111   .     S
C1362  H1364   1.110   .     S
C1362  H1365   1.108   .     S
C1362  H1363   1.106   .     S
C1362  C87     1.513   1_556 S
O1366  C1367   1.416   .     S
O1366  C1728   1.387   1_545 S
C1367  H1368   1.112   .     S
C1367  C1370   1.525   .     S
C1367  H1369   1.118   .     S
C1370  H1795   1.111   1_545 S
C1370  H1796   1.110   1_545 S
C1370  C101    1.521   1_556 S
H1371  C1582   1.111   .     S
H1372  C1582   1.110   .     S
C1373  H1374   1.109   .     S
C1373  H1375   1.101   .     S
C1373  H1376   1.109   .     S
F1377  N33     1.333   1_556 S
O1379  C1383   1.306   .     A
O1379  Cu1391  1.996   .     S
O1380  C1384   1.308   .     A
O1380  Cu1392  1.996   .     S
O1381  Cu1392  1.994   .     S
O1381  C1383   1.315   .     A
O1382  Cu1391  1.994   .     S
O1382  C1384   1.313   .     A
C1383  C1409   1.458   .     S
C1384  C1410   1.453   .     S
O1385  C1389   1.322   .     A
O1385  Cu1391  1.978   .     S
O1386  C1390   1.319   .     A
O1386  Cu1392  1.978   .     S
O1387  Cu1392  1.958   .     S
O1387  C1389   1.302   .     A
O1388  C1390   1.305   .     A
O1388  Cu1391  1.958   .     S
C1389  C1396   1.458   .     S
C1390  C1395   1.458   .     S
Cu1391 Cu1392  2.743   .     S
Cu1391 N1412   2.062   .     S
Cu1392 N1411   2.062   .     S
C1393  C1403   1.418   .     A
C1393  O1413   1.382   .     S
C1393  C1395   1.401   .     A
C1394  C1404   1.416   .     A
C1394  O1424   1.389   .     S
C1394  C1396   1.408   .     A
C1395  C1397   1.389   .     A
C1396  C1398   1.393   .     A
C1397  F1435   1.357   .     S
C1397  C1399   1.402   .     A
C1398  C1400   1.402   .     A
C1398  F1436   1.359   .     S
C1399  C1405   1.395   .     A
C1399  C1401   1.410   .     A
C1400  C1406   1.404   .     A
C1400  C1402   1.411   .     A
C1401  C1403   1.417   .     A
C1401  C1296   1.412   1_655 S
C1402  C1404   1.422   .     A
C1403  C1408   1.415   .     A
C1404  C1407   1.415   .     A
C1405  F1437   1.352   .     S
C1405  C1301   1.406   1_655 S
C1406  F1438   1.357   .     S
C1407  O1439   1.393   .     S
C1408  O1450   1.392   .     S
C1408  C1300   1.412   1_655 S
C1409  C1834   1.362   1_545 S
C1409  O1885   1.387   1_545 S
C1410  C1621   1.362   .     S
C1410  O1684   1.387   .     S
N1412  N139    1.306   1_556 S
N1412  F212    1.330   1_556 S
O1413  C1414   1.428   .     S
C1414  H1415   1.100   .     S
C1414  C1417   1.562   .     S
C1414  H1416   1.105   .     S
C1417  H1419   1.109   .     S
C1417  H1418   1.105   .     S
C1420  H1422   1.109   .     S
C1420  H1421   1.104   .     S
C1420  C145    1.520   1_556 S
C1420  H151    1.108   1_556 S
O1424  C1425   1.433   .     S
C1425  H1427   1.103   .     S
C1425  C1428   1.546   .     S
C1425  H1426   1.102   .     S
C1428  H1430   1.110   .     S
C1428  H1429   1.105   .     S
C1431  H1432   1.109   .     S
C1431  H1433   1.108   .     S
C1431  H1434   1.108   .     S
C1431  C156    1.520   1_556 S
O1439  C1864   1.418   1_545 S
C1440  H1441   1.103   .     S
C1440  C1443   1.524   .     S
C1440  O1651   1.418   .     S
C1440  H1548   1.107   .     S
H1442  C1758   1.107   1_645 S
C1443  C1446   1.520   .     S
H1444  C1337   1.098   1_655 S
H1445  C1337   1.111   1_655 S
C1446  H1447   1.108   .     S
C1446  H1449   1.109   .     S
C1446  H1448   1.110   .     S
O1450  C1663   1.410   .     S
C1451  C1454   1.529   .     S
C1451  O1874   1.410   1_545 S
C1451  H1346   1.101   1_655 S
C1451  H1347   1.089   1_655 S
C1454  C1457   1.529   .     S
C1454  H1455   1.108   .     S
C1454  H1456   1.107   .     S
C1457  H1459   1.109   .     S
C1457  H1460   1.110   .     S
C1457  H186    1.106   1_556 S
O1461  C1462   1.417   .     S
O1461  C1621   1.387   .     S
C1462  C1465   1.532   .     S
C1462  H1463   1.113   .     S
C1462  H1676   1.115   .     S
H1464  C1886   1.115   1_545 S
C1465  H1466   1.100   .     S
C1465  H1467   1.111   .     S
C1468  H1470   1.110   .     S
C1468  H1471   1.108   .     S
C1468  H1469   1.106   .     S
C1468  C193    1.513   1_556 S
O1472  C1473   1.416   .     S
O1472  C1834   1.387   1_545 S
C1473  H1474   1.112   .     S
C1473  C1476   1.525   .     S
C1473  H1475   1.118   .     S
C1476  H1901   1.111   1_545 S
C1476  H1902   1.110   1_545 S
C1476  C207    1.521   1_556 S
H1477  C1688   1.111   .     S
H1478  C1688   1.110   .     S
C1479  H1480   1.109   .     S
C1479  H1481   1.101   .     S
C1479  H1482   1.109   .     S
F1483  N139    1.333   1_556 S
O1485  C1489   1.306   .     A
O1485  Cu1497  1.996   .     S
O1486  C1490   1.308   .     A
O1486  Cu1498  1.996   .     S
O1487  Cu1498  1.994   .     S
O1487  C1489   1.315   .     A
O1488  Cu1497  1.994   .     S
O1488  C1490   1.313   .     A
C1489  C1515   1.458   .     S
C1490  C1516   1.453   .     S
O1491  C1495   1.322   .     A
O1491  Cu1497  1.978   .     S
O1492  C1496   1.319   .     A
O1492  Cu1498  1.978   .     S
O1493  Cu1498  1.958   .     S
O1493  C1495   1.302   .     A
O1494  C1496   1.305   .     A
O1494  Cu1497  1.958   .     S
C1495  C1502   1.458   .     S
C1496  C1501   1.458   .     S
Cu1497 Cu1498  2.743   .     S
Cu1497 N1518   2.062   .     S
Cu1498 N1517   2.062   .     S
C1499  C1509   1.418   .     A
C1499  O1519   1.382   .     S
C1499  C1501   1.401   .     A
C1500  C1510   1.416   .     A
C1500  O1530   1.389   .     S
C1500  C1502   1.408   .     A
C1501  C1503   1.389   .     A
C1502  C1504   1.393   .     A
C1503  F1541   1.357   .     S
C1503  C1505   1.402   .     A
C1504  C1506   1.402   .     A
C1504  F1542   1.359   .     S
C1505  C1511   1.395   .     A
C1505  C1507   1.410   .     A
C1506  C1512   1.404   .     A
C1506  C1508   1.411   .     A
C1507  C1509   1.417   .     A
C1507  C1614   1.412   .     S
C1508  C1510   1.422   .     A
C1508  C1613   1.412   1_455 S
C1509  C1514   1.415   .     A
C1510  C1513   1.415   .     A
C1511  F1543   1.352   .     S
C1511  C1619   1.406   .     S
C1512  F1544   1.357   .     S
C1512  C1620   1.412   1_455 S
C1513  O1545   1.393   .     S
C1513  C1617   1.406   1_455 S
C1514  O1556   1.392   .     S
C1514  C1618   1.412   .     S
C1516  C1727   1.362   .     S
C1516  O1790   1.387   .     S
N1518  N245    1.306   1_556 S
N1518  F318    1.330   1_556 S
O1519  C1520   1.428   .     S
C1520  H1521   1.100   .     S
C1520  C1523   1.562   .     S
C1520  H1522   1.105   .     S
C1523  H1525   1.109   .     S
C1523  H1524   1.105   .     S
C1526  H1528   1.109   .     S
C1526  H1527   1.104   .     S
C1526  C251    1.520   1_556 S
C1526  H257    1.108   1_556 S
O1530  C1531   1.433   .     S
C1531  H1533   1.103   .     S
C1531  C1534   1.546   .     S
C1531  H1532   1.102   .     S
C1534  H1536   1.110   .     S
C1534  H1535   1.105   .     S
C1537  H1538   1.109   .     S
C1537  H1539   1.108   .     S
C1537  H1540   1.108   .     S
C1537  C262    1.520   1_556 S
C1546  H1547   1.103   .     S
C1546  C1549   1.524   .     S
C1546  O1757   1.418   .     S
C1546  H1866   1.107   1_455 S
C1549  C1552   1.520   .     S
C1549  H1656   1.098   1_455 S
C1549  H1657   1.111   1_455 S
H1550  C1655   1.098   .     S
H1551  C1655   1.111   .     S
C1552  H1553   1.108   .     S
C1552  H1555   1.109   .     S
C1552  H1554   1.110   .     S
O1556  C1769   1.410   .     S
C1557  C1560   1.529   .     S
C1557  H1664   1.101   .     S
C1557  H1665   1.089   .     S
H1558  C1663   1.101   1_455 S
H1559  C1663   1.089   1_455 S
C1560  C1563   1.529   .     S
C1560  H1561   1.108   .     S
C1560  H1562   1.107   .     S
C1563  H1565   1.109   .     S
C1563  H1566   1.110   .     S
C1563  H292    1.106   1_556 S
O1567  C1568   1.417   .     S
O1567  C1727   1.387   .     S
C1568  C1571   1.532   .     S
C1568  H1569   1.113   .     S
C1568  H1782   1.115   .     S
C1571  H1572   1.100   .     S
C1571  H1573   1.111   .     S
C1574  H1576   1.110   .     S
C1574  H1577   1.108   .     S
C1574  H1575   1.106   .     S
C1574  C299    1.513   1_556 S
O1578  C1579   1.416   .     S
C1579  H1580   1.112   .     S
C1579  C1582   1.525   .     S
C1579  H1581   1.118   .     S
C1582  C313    1.521   1_556 S
H1583  C1794   1.111   .     S
H1584  C1794   1.110   .     S
C1585  H1586   1.109   .     S
C1585  H1587   1.101   .     S
C1585  H1588   1.109   .     S
F1589  N245    1.333   1_556 S
O1591  C1595   1.306   .     A
O1591  Cu1603  1.996   .     S
O1592  C1596   1.308   .     A
O1592  Cu1604  1.996   .     S
O1593  Cu1604  1.994   .     S
O1593  C1595   1.315   .     A
O1594  Cu1603  1.994   .     S
O1594  C1596   1.313   .     A
C1595  C1621   1.458   .     S
C1596  C1622   1.453   .     S
O1597  C1601   1.322   .     A
O1597  Cu1603  1.978   .     S
O1598  C1602   1.319   .     A
O1598  Cu1604  1.978   .     S
O1599  Cu1604  1.958   .     S
O1599  C1601   1.302   .     A
O1600  C1602   1.305   .     A
O1600  Cu1603  1.958   .     S
C1601  C1608   1.458   .     S
C1602  C1607   1.458   .     S
Cu1603 Cu1604  2.743   .     S
Cu1603 N1624   2.062   .     S
Cu1604 N1623   2.062   .     S
C1605  C1615   1.418   .     A
C1605  O1625   1.382   .     S
C1605  C1607   1.401   .     A
C1606  C1616   1.416   .     A
C1606  O1636   1.389   .     S
C1606  C1608   1.408   .     A
C1607  C1609   1.389   .     A
C1608  C1610   1.393   .     A
C1609  F1647   1.357   .     S
C1609  C1611   1.402   .     A
C1610  C1612   1.402   .     A
C1610  F1648   1.359   .     S
C1611  C1617   1.395   .     A
C1611  C1613   1.410   .     A
C1612  C1618   1.404   .     A
C1612  C1614   1.411   .     A
C1613  C1615   1.417   .     A
C1613  C1508   1.412   1_655 S
C1614  C1616   1.422   .     A
C1615  C1620   1.415   .     A
C1616  C1619   1.415   .     A
C1617  F1649   1.352   .     S
C1617  C1513   1.406   1_655 S
C1618  F1650   1.357   .     S
C1619  O1651   1.393   .     S
C1620  O1662   1.392   .     S
C1620  C1512   1.412   1_655 S
C1622  C1833   1.362   .     S
C1622  O1896   1.387   .     S
N1624  N351    1.306   1_556 S
N1624  F424    1.330   1_556 S
O1625  C1626   1.428   .     S
C1626  H1627   1.100   .     S
C1626  C1629   1.562   .     S
C1626  H1628   1.105   .     S
C1629  H1631   1.109   .     S
C1629  H1630   1.105   .     S
C1632  H1634   1.109   .     S
C1632  H1633   1.104   .     S
C1632  C357    1.520   1_556 S
C1632  H363    1.108   1_556 S
O1636  C1637   1.433   .     S
C1637  H1639   1.103   .     S
C1637  C1640   1.546   .     S
C1637  H1638   1.102   .     S
C1640  H1642   1.110   .     S
C1640  H1641   1.105   .     S
C1643  H1644   1.109   .     S
C1643  H1645   1.108   .     S
C1643  H1646   1.108   .     S
C1643  C368    1.520   1_556 S
C1652  H1653   1.103   .     S
C1652  C1655   1.524   .     S
C1652  O1863   1.418   .     S
C1652  H1760   1.107   .     S
H1654  C1334   1.107   1_655 S
C1655  C1658   1.520   .     S
H1656  C1549   1.098   1_655 S
H1657  C1549   1.111   1_655 S
C1658  H1659   1.108   .     S
C1658  H1661   1.109   .     S
C1658  H1660   1.110   .     S
O1662  C1875   1.410   .     S
C1663  C1666   1.529   .     S
C1663  H1558   1.101   1_655 S
C1663  H1559   1.089   1_655 S
C1666  C1669   1.529   .     S
C1666  H1667   1.108   .     S
C1666  H1668   1.107   .     S
C1669  H1671   1.109   .     S
C1669  H1672   1.110   .     S
C1669  H398    1.106   1_556 S
O1673  C1674   1.417   .     S
O1673  C1833   1.387   .     S
C1674  C1677   1.532   .     S
C1674  H1675   1.113   .     S
C1674  H1888   1.115   .     S
C1677  H1678   1.100   .     S
C1677  H1679   1.111   .     S
C1680  H1682   1.110   .     S
C1680  H1683   1.108   .     S
C1680  H1681   1.106   .     S
C1680  C405    1.513   1_556 S
O1684  C1685   1.416   .     S
C1685  H1686   1.112   .     S
C1685  C1688   1.525   .     S
C1685  H1687   1.118   .     S
C1688  C419    1.521   1_556 S
H1689  C1900   1.111   .     S
H1690  C1900   1.110   .     S
C1691  H1692   1.109   .     S
C1691  H1693   1.101   .     S
C1691  H1694   1.109   .     S
F1695  N351    1.333   1_556 S
O1697  C1701   1.306   .     A
O1697  Cu1709  1.996   .     S
O1698  C1702   1.308   .     A
O1698  Cu1710  1.996   .     S
O1699  Cu1710  1.994   .     S
O1699  C1701   1.315   .     A
O1700  Cu1709  1.994   .     S
O1700  C1702   1.313   .     A
C1701  C1727   1.458   .     S
C1702  C1728   1.453   .     S
O1703  C1707   1.322   .     A
O1703  Cu1709  1.978   .     S
O1704  C1708   1.319   .     A
O1704  Cu1710  1.978   .     S
O1705  Cu1710  1.958   .     S
O1705  C1707   1.302   .     A
O1706  C1708   1.305   .     A
O1706  Cu1709  1.958   .     S
C1707  C1714   1.458   .     S
C1708  C1713   1.458   .     S
Cu1709 Cu1710  2.743   .     S
Cu1709 N1730   2.062   .     S
Cu1710 N1729   2.062   .     S
C1711  C1721   1.418   .     A
C1711  O1731   1.382   .     S
C1711  C1713   1.401   .     A
C1712  C1722   1.416   .     A
C1712  O1742   1.389   .     S
C1712  C1714   1.408   .     A
C1713  C1715   1.389   .     A
C1714  C1716   1.393   .     A
C1715  F1753   1.357   .     S
C1715  C1717   1.402   .     A
C1716  C1718   1.402   .     A
C1716  F1754   1.359   .     S
C1717  C1723   1.395   .     A
C1717  C1719   1.410   .     A
C1718  C1724   1.404   .     A
C1718  C1720   1.411   .     A
C1719  C1721   1.417   .     A
C1719  C1826   1.412   .     S
C1720  C1722   1.422   .     A
C1720  C1825   1.412   1_455 S
C1721  C1726   1.415   .     A
C1722  C1725   1.415   .     A
C1723  F1755   1.352   .     S
C1723  C1831   1.406   .     S
C1724  F1756   1.357   .     S
C1724  C1832   1.412   1_455 S
C1725  O1757   1.393   .     S
C1725  C1829   1.406   1_455 S
C1726  O1768   1.392   .     S
C1726  C1830   1.412   .     S
C1728  C1303   1.362   1_565 S
C1728  O1366   1.387   1_565 S
N1730  N457    1.306   1_556 S
N1730  F530    1.330   1_556 S
O1731  C1732   1.428   .     S
C1732  H1733   1.100   .     S
C1732  C1735   1.562   .     S
C1732  H1734   1.105   .     S
C1735  H1737   1.109   .     S
C1735  H1736   1.105   .     S
C1738  H1740   1.109   .     S
C1738  H1739   1.104   .     S
C1738  C463    1.520   1_556 S
C1738  H469    1.108   1_556 S
O1742  C1743   1.433   .     S
C1743  H1745   1.103   .     S
C1743  C1746   1.546   .     S
C1743  H1744   1.102   .     S
C1746  H1748   1.110   .     S
C1746  H1747   1.105   .     S
C1749  H1750   1.109   .     S
C1749  H1751   1.108   .     S
C1749  H1752   1.108   .     S
C1749  C474    1.520   1_556 S
C1758  H1759   1.103   .     S
C1758  C1761   1.524   .     S
C1758  O1333   1.418   1_565 S
C1758  H1442   1.107   1_465 S
C1761  C1764   1.520   .     S
C1761  H1868   1.098   1_455 S
C1761  H1869   1.111   1_455 S
H1762  C1867   1.098   .     S
H1763  C1867   1.111   .     S
C1764  H1765   1.108   .     S
C1764  H1767   1.109   .     S
C1764  H1766   1.110   .     S
O1768  C1345   1.410   1_565 S
C1769  C1772   1.529   .     S
C1769  H1876   1.101   .     S
C1769  H1877   1.089   .     S
H1770  C1875   1.101   1_455 S
H1771  C1875   1.089   1_455 S
C1772  C1775   1.529   .     S
C1772  H1773   1.108   .     S
C1772  H1774   1.107   .     S
C1775  H1777   1.109   .     S
C1775  H1778   1.110   .     S
C1775  H504    1.106   1_556 S
O1779  C1780   1.417   .     S
O1779  C1303   1.387   1_565 S
C1780  C1783   1.532   .     S
C1780  H1781   1.113   .     S
C1780  H1358   1.115   1_565 S
C1783  H1784   1.100   .     S
C1783  H1785   1.111   .     S
C1786  H1788   1.110   .     S
C1786  H1789   1.108   .     S
C1786  H1787   1.106   .     S
C1786  C511    1.513   1_556 S
O1790  C1791   1.416   .     S
C1791  H1792   1.112   .     S
C1791  C1794   1.525   .     S
C1791  H1793   1.118   .     S
C1794  C525    1.521   1_556 S
H1795  C1370   1.111   1_565 S
H1796  C1370   1.110   1_565 S
C1797  H1798   1.109   .     S
C1797  H1799   1.101   .     S
C1797  H1800   1.109   .     S
F1801  N457    1.333   1_556 S
O1803  C1807   1.306   .     A
O1803  Cu1815  1.996   .     S
O1804  C1808   1.308   .     A
O1804  Cu1816  1.996   .     S
O1805  Cu1816  1.994   .     S
O1805  C1807   1.315   .     A
O1806  Cu1815  1.994   .     S
O1806  C1808   1.313   .     A
C1807  C1833   1.458   .     S
C1808  C1834   1.453   .     S
O1809  C1813   1.322   .     A
O1809  Cu1815  1.978   .     S
O1810  C1814   1.319   .     A
O1810  Cu1816  1.978   .     S
O1811  Cu1816  1.958   .     S
O1811  C1813   1.302   .     A
O1812  C1814   1.305   .     A
O1812  Cu1815  1.958   .     S
C1813  C1820   1.458   .     S
C1814  C1819   1.458   .     S
Cu1815 Cu1816  2.743   .     S
Cu1815 N1836   2.062   .     S
Cu1816 N1835   2.062   .     S
C1817  C1827   1.418   .     A
C1817  O1837   1.382   .     S
C1817  C1819   1.401   .     A
C1818  C1828   1.416   .     A
C1818  O1848   1.389   .     S
C1818  C1820   1.408   .     A
C1819  C1821   1.389   .     A
C1820  C1822   1.393   .     A
C1821  F1859   1.357   .     S
C1821  C1823   1.402   .     A
C1822  C1824   1.402   .     A
C1822  F1860   1.359   .     S
C1823  C1829   1.395   .     A
C1823  C1825   1.410   .     A
C1824  C1830   1.404   .     A
C1824  C1826   1.411   .     A
C1825  C1827   1.417   .     A
C1825  C1720   1.412   1_655 S
C1826  C1828   1.422   .     A
C1827  C1832   1.415   .     A
C1828  C1831   1.415   .     A
C1829  F1861   1.352   .     S
C1829  C1725   1.406   1_655 S
C1830  F1862   1.357   .     S
C1831  O1863   1.393   .     S
C1832  O1874   1.392   .     S
C1832  C1724   1.412   1_655 S
C1834  C1409   1.362   1_565 S
C1834  O1472   1.387   1_565 S
N1836  N563    1.306   1_556 S
N1836  F636    1.330   1_556 S
O1837  C1838   1.428   .     S
C1838  H1839   1.100   .     S
C1838  C1841   1.562   .     S
C1838  H1840   1.105   .     S
C1841  H1843   1.109   .     S
C1841  H1842   1.105   .     S
C1844  H1846   1.109   .     S
C1844  H1845   1.104   .     S
C1844  C569    1.520   1_556 S
C1844  H575    1.108   1_556 S
O1848  C1849   1.433   .     S
C1849  H1851   1.103   .     S
C1849  C1852   1.546   .     S
C1849  H1850   1.102   .     S
C1852  H1854   1.110   .     S
C1852  H1853   1.105   .     S
C1855  H1856   1.109   .     S
C1855  H1857   1.108   .     S
C1855  H1858   1.108   .     S
C1855  C580    1.520   1_556 S
C1864  H1865   1.103   .     S
C1864  C1867   1.524   .     S
C1864  O1439   1.418   1_565 S
C1864  H1336   1.107   1_565 S
H1866  C1546   1.107   1_655 S
C1867  C1870   1.520   .     S
H1868  C1761   1.098   1_655 S
H1869  C1761   1.111   1_655 S
C1870  H1871   1.108   .     S
C1870  H1873   1.109   .     S
C1870  H1872   1.110   .     S
O1874  C1451   1.410   1_565 S
C1875  C1878   1.529   .     S
C1875  H1770   1.101   1_655 S
C1875  H1771   1.089   1_655 S
C1878  C1881   1.529   .     S
C1878  H1879   1.108   .     S
C1878  H1880   1.107   .     S
C1881  H1883   1.109   .     S
C1881  H1884   1.110   .     S
C1881  H610    1.106   1_556 S
O1885  C1886   1.417   .     S
O1885  C1409   1.387   1_565 S
C1886  C1889   1.532   .     S
C1886  H1887   1.113   .     S
C1886  H1464   1.115   1_565 S
C1889  H1890   1.100   .     S
C1889  H1891   1.111   .     S
C1892  H1894   1.110   .     S
C1892  H1895   1.108   .     S
C1892  H1893   1.106   .     S
C1892  C617    1.513   1_556 S
O1896  C1897   1.416   .     S
C1897  H1898   1.112   .     S
C1897  C1900   1.525   .     S
C1897  H1899   1.118   .     S
C1900  C631    1.521   1_556 S
H1901  C1476   1.111   1_565 S
H1902  C1476   1.110   1_565 S
C1903  H1904   1.109   .     S
C1903  H1905   1.101   .     S
C1903  H1906   1.109   .     S
F1907  N563    1.333   1_556 S
