data_str_m1_o1_o17_pcu_sym.89
_audit_creation_date              2020-01-03
_audit_creation_method            'Materials Studio'
_symmetry_space_group_name_H-M    'P1'
_symmetry_Int_Tables_number       1
_symmetry_cell_setting            triclinic
loop_
_symmetry_equiv_pos_as_xyz
  x,y,z
_cell_length_a                    36.6690
_cell_length_b                    36.6690
_cell_length_c                    34.2502
_cell_angle_alpha                 90.0000
_cell_angle_beta                  90.0000
_cell_angle_gamma                 90.0000
loop_
_atom_site_label
_atom_site_type_symbol
_atom_site_fract_x
_atom_site_fract_y
_atom_site_fract_z
_atom_site_U_iso_or_equiv
_atom_site_adp_type
_atom_site_occupancy
C1     C     0.01014   0.28161   0.41845   0.00000  Uiso   1.00
C2     C     0.26014   0.46839   0.08155   0.00000  Uiso   1.00
C3     C     0.22059   0.48386   0.54100   0.00000  Uiso   1.00
C4     C     0.01614   0.27941   0.45900   0.00000  Uiso   1.00
C5     C     0.48386   0.22059   0.54100   0.00000  Uiso   1.00
C6     C     0.22059   0.48386   0.45900   0.00000  Uiso   1.00
C7     C     0.27941   0.01614   0.54100   0.00000  Uiso   1.00
C8     C     0.26614   0.47059   0.95900   0.00000  Uiso   1.00
C9     C     0.23386   0.02941   0.04100   0.00000  Uiso   1.00
C10    C     0.02941   0.23386   0.95900   0.00000  Uiso   1.00
C11    C     0.47059   0.26614   0.04100   0.00000  Uiso   1.00
C12    C     0.23386   0.02941   0.95900   0.00000  Uiso   1.00
C13    C     0.46839   0.26014   0.91845   0.00000  Uiso   1.00
C14    C     0.26614   0.47059   0.04100   0.00000  Uiso   1.00
C15    C     0.47059   0.26614   0.95900   0.00000  Uiso   1.00
C16    C     0.02941   0.23386   0.04100   0.00000  Uiso   1.00
C17    C     0.09818   0.34800   0.24992   0.00000  Uiso   1.00
C18    C     0.40182   0.15200   0.75008   0.00000  Uiso   1.00
C19    C     0.15182   0.09800   0.25008   0.00000  Uiso   1.00
C20    C     0.34818   0.40200   0.74992   0.00000  Uiso   1.00
C21    C     0.40182   0.15200   0.24992   0.00000  Uiso   1.00
C22    C     0.09818   0.34800   0.75008   0.00000  Uiso   1.00
C23    C     0.34818   0.40200   0.25008   0.00000  Uiso   1.00
C24    C     0.03161   0.23986   0.08155   0.00000  Uiso   1.00
C25    C     0.15182   0.09800   0.74992   0.00000  Uiso   1.00
C26    C     0.09800   0.15182   0.74992   0.00000  Uiso   1.00
C27    C     0.40200   0.34818   0.25008   0.00000  Uiso   1.00
C28    C     0.15200   0.40182   0.75008   0.00000  Uiso   1.00
C29    C     0.34800   0.09818   0.24992   0.00000  Uiso   1.00
C30    C     0.40200   0.34818   0.74992   0.00000  Uiso   1.00
C31    C     0.09800   0.15182   0.25008   0.00000  Uiso   1.00
C32    C     0.34800   0.09818   0.75008   0.00000  Uiso   1.00
C33    C     0.15200   0.40182   0.24992   0.00000  Uiso   1.00
C34    C     0.00000   0.25000   0.47953   0.00000  Uiso   1.00
C35    C     0.26014   0.46839   0.91845   0.00000  Uiso   1.00
C36    C     0.00000   0.25000   0.52047   0.00000  Uiso   1.00
C37    C     0.25000   0.00000   0.47953   0.00000  Uiso   1.00
C38    C     0.25000   0.00000   0.52047   0.00000  Uiso   1.00
C39    C     0.25000  -0.00000   0.97953   0.00000  Uiso   1.00
C40    C     0.25000  -0.00000   0.02047   0.00000  Uiso   1.00
C41    C     0.00000   0.25000   0.97953   0.00000  Uiso   1.00
C42    C     0.00000   0.25000   0.02047   0.00000  Uiso   1.00
C43    C     0.23986   0.03161   0.08155   0.00000  Uiso   1.00
C44    C     0.03161   0.23986   0.91845   0.00000  Uiso   1.00
C45    C     0.46839   0.26014   0.08155   0.00000  Uiso   1.00
C46    C     0.00000   0.25000   0.39825   0.00000  Uiso   1.00
C47    C     0.00000   0.25000   0.60176   0.00000  Uiso   1.00
C48    C     0.25000   0.00000   0.39824   0.00000  Uiso   1.00
C49    C     0.48986   0.21839   0.58155   0.00000  Uiso   1.00
C50    C     0.25000  -0.00000   0.60176   0.00000  Uiso   1.00
C51    C     0.25000   0.00000   0.89825   0.00000  Uiso   1.00
C52    C     0.25000   0.00000   0.10175   0.00000  Uiso   1.00
C53    C     0.00000   0.25000   0.89825   0.00000  Uiso   1.00
C54    C     0.00000   0.25000   0.10176   0.00000  Uiso   1.00
C55    C     0.46110   0.19587   0.47937   0.00000  Uiso   1.00
C56    C     0.03891   0.30413   0.52063   0.00000  Uiso   1.00
C57    C     0.30413   0.03890   0.47937   0.00000  Uiso   1.00
C58    C     0.19587   0.46110   0.52063   0.00000  Uiso   1.00
C59    C     0.03890   0.30413   0.47937   0.00000  Uiso   1.00
C60    C     0.21839   0.48986   0.41845   0.00000  Uiso   1.00
C61    C     0.46110   0.19587   0.52063   0.00000  Uiso   1.00
C62    C     0.19587   0.46110   0.47937   0.00000  Uiso   1.00
C63    C     0.30413   0.03890   0.52063   0.00000  Uiso   1.00
C64    C     0.28891   0.44587   0.97937   0.00000  Uiso   1.00
C65    C     0.21109   0.05413   0.02063   0.00000  Uiso   1.00
C66    C     0.05413   0.21109   0.97937   0.00000  Uiso   1.00
C67    C     0.44587   0.28891   0.02063   0.00000  Uiso   1.00
C68    C     0.21109   0.05413   0.97937   0.00000  Uiso   1.00
C69    C     0.28891   0.44587   0.02063   0.00000  Uiso   1.00
C70    C     0.44587   0.28891   0.97937   0.00000  Uiso   1.00
C71    C     0.28161   0.01014   0.58155   0.00000  Uiso   1.00
C72    C     0.05413   0.21109   0.02063   0.00000  Uiso   1.00
C73    C     0.25000   0.00000   0.35584   0.00000  Uiso   1.00
C74    C     0.25000  -0.00000   0.64416   0.00000  Uiso   1.00
C75    C     0.00000   0.25000   0.35584   0.00000  Uiso   1.00
C76    C     0.00000   0.25000   0.64416   0.00000  Uiso   1.00
C77    C     0.00000   0.25000   0.85584   0.00000  Uiso   1.00
C78    C     0.00000   0.25000   0.14416   0.00000  Uiso   1.00
C79    C     0.25000   0.00000   0.85584   0.00000  Uiso   1.00
C80    C     0.25000   0.00000   0.14416   0.00000  Uiso   1.00
C81    C     0.17995   0.07000   0.25003   0.00000  Uiso   1.00
C82    C     0.48986   0.21839   0.41845   0.00000  Uiso   1.00
C83    C     0.32006   0.43000   0.74997   0.00000  Uiso   1.00
C84    C     0.42995   0.18000   0.24997   0.00000  Uiso   1.00
C85    C     0.07006   0.32000   0.75003   0.00000  Uiso   1.00
C86    C     0.32006   0.43000   0.25003   0.00000  Uiso   1.00
C87    C     0.17995   0.07000   0.74997   0.00000  Uiso   1.00
C88    C     0.07006   0.32000   0.24997   0.00000  Uiso   1.00
C89    C     0.42995   0.18000   0.75003   0.00000  Uiso   1.00
C90    C     0.18000   0.42994   0.75003   0.00000  Uiso   1.00
C91    C     0.32000   0.07006   0.24997   0.00000  Uiso   1.00
C92    C     0.43000   0.32006   0.74997   0.00000  Uiso   1.00
C93    C     0.01014   0.28161   0.58155   0.00000  Uiso   1.00
C94    C     0.07000   0.17994   0.25003   0.00000  Uiso   1.00
C95    C     0.32000   0.07006   0.75003   0.00000  Uiso   1.00
C96    C     0.18000   0.42994   0.24997   0.00000  Uiso   1.00
C97    C     0.07000   0.17994   0.74997   0.00000  Uiso   1.00
C98    C     0.43000   0.32006   0.25003   0.00000  Uiso   1.00
C99    C     0.14031   0.38663   0.21430   0.00000  Uiso   1.00
C100   C     0.35969   0.11337   0.78570   0.00000  Uiso   1.00
C101   C     0.11304   0.13996   0.21446   0.00000  Uiso   1.00
C102   C     0.38696   0.36004   0.78554   0.00000  Uiso   1.00
C103   C     0.35969   0.11337   0.21430   0.00000  Uiso   1.00
C104   C     0.28161   0.01014   0.41845   0.00000  Uiso   1.00
C105   C     0.14031   0.38663   0.78570   0.00000  Uiso   1.00
C106   C     0.38696   0.36004   0.21446   0.00000  Uiso   1.00
C107   C     0.11304   0.13996   0.78554   0.00000  Uiso   1.00
C108   C     0.13996   0.11304   0.78554   0.00000  Uiso   1.00
C109   C     0.36004   0.38696   0.21446   0.00000  Uiso   1.00
C110   C     0.11337   0.35969   0.78570   0.00000  Uiso   1.00
C111   C     0.38663   0.14031   0.21430   0.00000  Uiso   1.00
C112   C     0.36004   0.38696   0.78554   0.00000  Uiso   1.00
C113   C     0.13996   0.11304   0.21446   0.00000  Uiso   1.00
C114   C     0.38663   0.14031   0.78570   0.00000  Uiso   1.00
C115   C     0.21839   0.48986   0.58155   0.00000  Uiso   1.00
C116   C     0.11337   0.35969   0.21430   0.00000  Uiso   1.00
C117   C     0.38996   0.13696   0.71446   0.00000  Uiso   1.00
C118   C     0.11004   0.36304   0.28554   0.00000  Uiso   1.00
C119   C     0.36337   0.39031   0.71430   0.00000  Uiso   1.00
C120   C     0.13663   0.10969   0.28570   0.00000  Uiso   1.00
C121   C     0.11004   0.36304   0.71446   0.00000  Uiso   1.00
C122   C     0.38996   0.13696   0.28554   0.00000  Uiso   1.00
C123   C     0.13663   0.10969   0.71430   0.00000  Uiso   1.00
C124   C     0.36337   0.39031   0.28570   0.00000  Uiso   1.00
C125   C     0.39031   0.36337   0.28570   0.00000  Uiso   1.00
C126   C     0.23986   0.03161   0.91845   0.00000  Uiso   1.00
C127   C     0.10969   0.13663   0.71430   0.00000  Uiso   1.00
C128   C     0.36304   0.11004   0.28554   0.00000  Uiso   1.00
C129   C     0.13696   0.38996   0.71446   0.00000  Uiso   1.00
C130   C     0.10969   0.13663   0.28570   0.00000  Uiso   1.00
C131   C     0.39031   0.36337   0.71430   0.00000  Uiso   1.00
C132   C     0.13696   0.38996   0.28554   0.00000  Uiso   1.00
C133   C     0.36304   0.11004   0.71446   0.00000  Uiso   1.00
C134   C     0.48386   0.22059   0.45900   0.00000  Uiso   1.00
C135   C     0.01614   0.27941   0.54100   0.00000  Uiso   1.00
C136   C     0.27942   0.01614   0.45900   0.00000  Uiso   1.00
Cl137  Cl    0.16056   0.39982   0.16952   0.00000  Uiso   1.00
Cl138  Cl    0.34022   0.40043   0.16960   0.00000  Uiso   1.00
Cl139  Cl    0.10018   0.33944   0.83048   0.00000  Uiso   1.00
Cl140  Cl    0.39982   0.16056   0.16952   0.00000  Uiso   1.00
Cl141  Cl    0.34021   0.40043   0.83040   0.00000  Uiso   1.00
Cl142  Cl    0.15978   0.09957   0.16960   0.00000  Uiso   1.00
Cl143  Cl    0.39982   0.16056   0.83048   0.00000  Uiso   1.00
Cl144  Cl    0.10018   0.33944   0.16952   0.00000  Uiso   1.00
Cl145  Cl    0.40979   0.15043   0.66960   0.00000  Uiso   1.00
Cl146  Cl    0.09021   0.34957   0.33040   0.00000  Uiso   1.00
Cl147  Cl    0.35018   0.41056   0.66952   0.00000  Uiso   1.00
Cl148  Cl    0.33944   0.10018   0.83048   0.00000  Uiso   1.00
Cl149  Cl    0.14983   0.08944   0.33048   0.00000  Uiso   1.00
Cl150  Cl    0.09022   0.34957   0.66960   0.00000  Uiso   1.00
Cl151  Cl    0.40978   0.15043   0.33040   0.00000  Uiso   1.00
Cl152  Cl    0.14983   0.08944   0.66952   0.00000  Uiso   1.00
Cl153  Cl    0.35018   0.41056   0.33048   0.00000  Uiso   1.00
Cl154  Cl    0.41056   0.35018   0.33048   0.00000  Uiso   1.00
Cl155  Cl    0.08944   0.14982   0.66952   0.00000  Uiso   1.00
Cl156  Cl    0.34957   0.09022   0.33040   0.00000  Uiso   1.00
Cl157  Cl    0.15043   0.40978   0.66960   0.00000  Uiso   1.00
Cl158  Cl    0.08944   0.14982   0.33048   0.00000  Uiso   1.00
Cl159  Cl    0.09957   0.15978   0.16960   0.00000  Uiso   1.00
Cl160  Cl    0.41056   0.35018   0.66952   0.00000  Uiso   1.00
Cl161  Cl    0.15043   0.40979   0.33040   0.00000  Uiso   1.00
Cl162  Cl    0.34957   0.09021   0.66960   0.00000  Uiso   1.00
Cl163  Cl    0.40043   0.34021   0.83040   0.00000  Uiso   1.00
Cl164  Cl    0.33944   0.10018   0.16952   0.00000  Uiso   1.00
Cl165  Cl    0.16056   0.39982   0.83048   0.00000  Uiso   1.00
Cl166  Cl    0.40043   0.34021   0.16960   0.00000  Uiso   1.00
Cl167  Cl    0.09957   0.15978   0.83041   0.00000  Uiso   1.00
Cl168  Cl    0.15978   0.09957   0.83041   0.00000  Uiso   1.00
I169   I     0.41836   0.16746   0.44887   0.00000  Uiso   1.00
I170   I     0.16835   0.08254   0.05113   0.00000  Uiso   1.00
I171   I     0.08254   0.16835   0.94887   0.00000  Uiso   1.00
I172   I     0.41746   0.33165   0.05113   0.00000  Uiso   1.00
I173   I     0.16835   0.08254   0.94887   0.00000  Uiso   1.00
I174   I     0.33165   0.41746   0.05113   0.00000  Uiso   1.00
I175   I     0.41746   0.33165   0.94887   0.00000  Uiso   1.00
I176   I     0.08254   0.16835   0.05113   0.00000  Uiso   1.00
I177   I     0.00370   0.33288   0.38909   0.00000  Uiso   1.00
I178   I     0.49630   0.16712   0.61092   0.00000  Uiso   1.00
I179   I     0.16712   0.49630   0.38908   0.00000  Uiso   1.00
I180   I     0.08165   0.33254   0.55113   0.00000  Uiso   1.00
I181   I     0.33288   0.00370   0.61092   0.00000  Uiso   1.00
I182   I     0.49630   0.16712   0.38908   0.00000  Uiso   1.00
I183   I     0.00370   0.33288   0.61092   0.00000  Uiso   1.00
I184   I     0.33288   0.00370   0.38908   0.00000  Uiso   1.00
I185   I     0.16712   0.49630   0.61092   0.00000  Uiso   1.00
I186   I     0.24630   0.08288   0.88909   0.00000  Uiso   1.00
I187   I     0.25370   0.41712   0.11092   0.00000  Uiso   1.00
I188   I     0.41712   0.25370   0.88909   0.00000  Uiso   1.00
I189   I     0.08288   0.24630   0.11092   0.00000  Uiso   1.00
I190   I     0.25370   0.41712   0.88909   0.00000  Uiso   1.00
I191   I     0.33254   0.08164   0.44887   0.00000  Uiso   1.00
I192   I     0.24630   0.08288   0.11092   0.00000  Uiso   1.00
I193   I     0.08288   0.24630   0.88908   0.00000  Uiso   1.00
I194   I     0.41712   0.25370   0.11091   0.00000  Uiso   1.00
I195   I     0.16746   0.41836   0.55113   0.00000  Uiso   1.00
I196   I     0.08164   0.33254   0.44887   0.00000  Uiso   1.00
I197   I     0.41836   0.16746   0.55113   0.00000  Uiso   1.00
I198   I     0.16746   0.41836   0.44887   0.00000  Uiso   1.00
I199   I     0.33254   0.08164   0.55113   0.00000  Uiso   1.00
I200   I     0.33165   0.41746   0.94887   0.00000  Uiso   1.00
O201   O     0.25000   0.00000   0.25000   0.00000  Uiso   1.00
O202   O     0.25000   0.46963   0.66245   0.00000  Uiso   1.00
O203   O     0.46964   0.25000   0.33755   0.00000  Uiso   1.00
O204   O     0.03037   0.25000   0.66245   0.00000  Uiso   1.00
O205   O     0.00000   0.21964   0.83755   0.00000  Uiso   1.00
O206   O     0.00000   0.28036   0.16245   0.00000  Uiso   1.00
O207   O     0.28037   0.00000   0.83755   0.00000  Uiso   1.00
O208   O     0.21964   0.00000   0.16245   0.00000  Uiso   1.00
O209   O     0.00000   0.28036   0.83755   0.00000  Uiso   1.00
O210   O     0.00000   0.21963   0.16245   0.00000  Uiso   1.00
O211   O     0.21964   0.00000   0.83755   0.00000  Uiso   1.00
O212   O     0.25000   0.00000   0.75000   0.00000  Uiso   1.00
O213   O     0.28037   0.00000   0.16245   0.00000  Uiso   1.00
O214   O     0.20725   0.07308   0.27302   0.00000  Uiso   1.00
O215   O     0.29276   0.42693   0.72698   0.00000  Uiso   1.00
O216   O     0.42693   0.20725   0.27302   0.00000  Uiso   1.00
O217   O     0.07308   0.29275   0.72698   0.00000  Uiso   1.00
O218   O     0.29276   0.42693   0.27302   0.00000  Uiso   1.00
O219   O     0.20725   0.07308   0.72698   0.00000  Uiso   1.00
O220   O     0.07308   0.29275   0.27302   0.00000  Uiso   1.00
O221   O     0.42693   0.20725   0.72698   0.00000  Uiso   1.00
O222   O     0.20725   0.42692   0.72698   0.00000  Uiso   1.00
O223   O     0.00000   0.25000   0.25000   0.00000  Uiso   1.00
O224   O     0.29276   0.07308   0.27302   0.00000  Uiso   1.00
O225   O     0.42693   0.29276   0.72698   0.00000  Uiso   1.00
O226   O     0.07308   0.20724   0.27302   0.00000  Uiso   1.00
O227   O     0.29276   0.07308   0.72698   0.00000  Uiso   1.00
O228   O     0.20725   0.42692   0.27302   0.00000  Uiso   1.00
O229   O     0.07308   0.20724   0.72698   0.00000  Uiso   1.00
O230   O     0.42693   0.29276   0.27302   0.00000  Uiso   1.00
O231   O     0.45725   0.32308   0.77302   0.00000  Uiso   1.00
O232   O     0.04276   0.17692   0.22698   0.00000  Uiso   1.00
O233   O     0.17693   0.45724   0.77302   0.00000  Uiso   1.00
O234   O     0.00000   0.25000   0.75000   0.00000  Uiso   1.00
O235   O     0.32308   0.04276   0.22698   0.00000  Uiso   1.00
O236   O     0.04276   0.17692   0.77302   0.00000  Uiso   1.00
O237   O     0.45725   0.32308   0.22698   0.00000  Uiso   1.00
O238   O     0.32308   0.04276   0.77302   0.00000  Uiso   1.00
O239   O     0.17693   0.45724   0.22698   0.00000  Uiso   1.00
O240   O     0.45725   0.17693   0.22698   0.00000  Uiso   1.00
O241   O     0.04276   0.32307   0.77302   0.00000  Uiso   1.00
O242   O     0.17693   0.04276   0.22698   0.00000  Uiso   1.00
O243   O     0.32308   0.45725   0.77302   0.00000  Uiso   1.00
O244   O     0.04276   0.32307   0.22698   0.00000  Uiso   1.00
O245   O     0.25000   0.46963   0.33755   0.00000  Uiso   1.00
O246   O     0.45725   0.17693   0.77302   0.00000  Uiso   1.00
O247   O     0.32308   0.45725   0.22698   0.00000  Uiso   1.00
O248   O     0.17693   0.04276   0.77302   0.00000  Uiso   1.00
O249   O     0.25000   0.03037   0.66245   0.00000  Uiso   1.00
O250   O     0.03037   0.25000   0.33755   0.00000  Uiso   1.00
O251   O     0.46964   0.25000   0.66245   0.00000  Uiso   1.00
O252   O     0.25000   0.03037   0.33755   0.00000  Uiso   1.00
Zn253  Zn    0.20660   0.00000   0.21735   0.00000  Uiso   1.00
Zn254  Zn    0.04341   0.25000   0.28265   0.00000  Uiso   1.00
Zn255  Zn    0.25000   0.45659   0.71735   0.00000  Uiso   1.00
Zn256  Zn    0.25000   0.04341   0.28265   0.00000  Uiso   1.00
Zn257  Zn    0.04341   0.25000   0.71735   0.00000  Uiso   1.00
Zn258  Zn    0.45660   0.25000   0.28265   0.00000  Uiso   1.00
Zn259  Zn    0.25000   0.04341   0.71735   0.00000  Uiso   1.00
Zn260  Zn    0.25000   0.45659   0.28265   0.00000  Uiso   1.00
Zn261  Zn    0.29341   0.00000   0.78265   0.00000  Uiso   1.00
Zn262  Zn    0.00000   0.20659   0.21735   0.00000  Uiso   1.00
Zn263  Zn    0.00000   0.29340   0.78265   0.00000  Uiso   1.00
Zn264  Zn    0.29341   0.00000   0.21735   0.00000  Uiso   1.00
Zn265  Zn    0.20660   0.00000   0.78265   0.00000  Uiso   1.00
Zn266  Zn    0.00000   0.29340   0.21735   0.00000  Uiso   1.00
Zn267  Zn    0.00000   0.20659   0.78265   0.00000  Uiso   1.00
Zn268  Zn    0.45660   0.25000   0.71735   0.00000  Uiso   1.00
C269   C     0.51014   0.28161   0.41845   0.00000  Uiso   1.00
C270   C     0.76014   0.46839   0.08155   0.00000  Uiso   1.00
C271   C     0.72059   0.48386   0.54100   0.00000  Uiso   1.00
C272   C     0.51614   0.27941   0.45900   0.00000  Uiso   1.00
C273   C     0.98386   0.22059   0.54100   0.00000  Uiso   1.00
C274   C     0.72059   0.48386   0.45900   0.00000  Uiso   1.00
C275   C     0.77941   0.01614   0.54100   0.00000  Uiso   1.00
C276   C     0.76614   0.47059   0.95900   0.00000  Uiso   1.00
C277   C     0.73386   0.02941   0.04100   0.00000  Uiso   1.00
C278   C     0.52941   0.23386   0.95900   0.00000  Uiso   1.00
C279   C     0.97059   0.26614   0.04100   0.00000  Uiso   1.00
C280   C     0.73386   0.02941   0.95900   0.00000  Uiso   1.00
C281   C     0.96839   0.26014   0.91845   0.00000  Uiso   1.00
C282   C     0.76614   0.47059   0.04100   0.00000  Uiso   1.00
C283   C     0.97059   0.26614   0.95900   0.00000  Uiso   1.00
C284   C     0.52941   0.23386   0.04100   0.00000  Uiso   1.00
C285   C     0.59818   0.34800   0.24992   0.00000  Uiso   1.00
C286   C     0.90182   0.15200   0.75008   0.00000  Uiso   1.00
C287   C     0.65182   0.09800   0.25008   0.00000  Uiso   1.00
C288   C     0.84818   0.40200   0.74992   0.00000  Uiso   1.00
C289   C     0.90182   0.15200   0.24992   0.00000  Uiso   1.00
C290   C     0.59818   0.34800   0.75008   0.00000  Uiso   1.00
C291   C     0.84818   0.40200   0.25008   0.00000  Uiso   1.00
C292   C     0.53161   0.23986   0.08155   0.00000  Uiso   1.00
C293   C     0.65182   0.09800   0.74992   0.00000  Uiso   1.00
C294   C     0.59800   0.15182   0.74992   0.00000  Uiso   1.00
C295   C     0.90200   0.34818   0.25008   0.00000  Uiso   1.00
C296   C     0.65200   0.40182   0.75008   0.00000  Uiso   1.00
C297   C     0.84800   0.09818   0.24992   0.00000  Uiso   1.00
C298   C     0.90200   0.34818   0.74992   0.00000  Uiso   1.00
C299   C     0.59800   0.15182   0.25008   0.00000  Uiso   1.00
C300   C     0.84800   0.09818   0.75008   0.00000  Uiso   1.00
C301   C     0.65200   0.40182   0.24992   0.00000  Uiso   1.00
C302   C     0.50000   0.25000   0.47953   0.00000  Uiso   1.00
C303   C     0.76014   0.46839   0.91845   0.00000  Uiso   1.00
C304   C     0.50000   0.25000   0.52047   0.00000  Uiso   1.00
C305   C     0.75000   0.00000   0.47953   0.00000  Uiso   1.00
C306   C     0.75000   0.00000   0.52047   0.00000  Uiso   1.00
C307   C     0.75000  -0.00000   0.97953   0.00000  Uiso   1.00
C308   C     0.75000  -0.00000   0.02047   0.00000  Uiso   1.00
C309   C     0.50000   0.25000   0.97953   0.00000  Uiso   1.00
C310   C     0.50000   0.25000   0.02047   0.00000  Uiso   1.00
C311   C     0.73986   0.03161   0.08155   0.00000  Uiso   1.00
C312   C     0.53161   0.23986   0.91845   0.00000  Uiso   1.00
C313   C     0.96839   0.26014   0.08155   0.00000  Uiso   1.00
C314   C     0.50000   0.25000   0.39825   0.00000  Uiso   1.00
C315   C     0.50000   0.25000   0.60176   0.00000  Uiso   1.00
C316   C     0.75000   0.00000   0.39824   0.00000  Uiso   1.00
C317   C     0.98986   0.21839   0.58155   0.00000  Uiso   1.00
C318   C     0.75000  -0.00000   0.60176   0.00000  Uiso   1.00
C319   C     0.75000   0.00000   0.89825   0.00000  Uiso   1.00
C320   C     0.75000   0.00000   0.10175   0.00000  Uiso   1.00
C321   C     0.50000   0.25000   0.89825   0.00000  Uiso   1.00
C322   C     0.50000   0.25000   0.10176   0.00000  Uiso   1.00
C323   C     0.96110   0.19587   0.47937   0.00000  Uiso   1.00
C324   C     0.53891   0.30413   0.52063   0.00000  Uiso   1.00
C325   C     0.80413   0.03890   0.47937   0.00000  Uiso   1.00
C326   C     0.69587   0.46110   0.52063   0.00000  Uiso   1.00
C327   C     0.53890   0.30413   0.47937   0.00000  Uiso   1.00
C328   C     0.71839   0.48986   0.41845   0.00000  Uiso   1.00
C329   C     0.96110   0.19587   0.52063   0.00000  Uiso   1.00
C330   C     0.69587   0.46110   0.47937   0.00000  Uiso   1.00
C331   C     0.80413   0.03890   0.52063   0.00000  Uiso   1.00
C332   C     0.78891   0.44587   0.97937   0.00000  Uiso   1.00
C333   C     0.71109   0.05413   0.02063   0.00000  Uiso   1.00
C334   C     0.55413   0.21109   0.97937   0.00000  Uiso   1.00
C335   C     0.94587   0.28891   0.02063   0.00000  Uiso   1.00
C336   C     0.71109   0.05413   0.97937   0.00000  Uiso   1.00
C337   C     0.78891   0.44587   0.02063   0.00000  Uiso   1.00
C338   C     0.94587   0.28891   0.97937   0.00000  Uiso   1.00
C339   C     0.78161   0.01014   0.58155   0.00000  Uiso   1.00
C340   C     0.55413   0.21109   0.02063   0.00000  Uiso   1.00
C341   C     0.75000   0.00000   0.35584   0.00000  Uiso   1.00
C342   C     0.75000  -0.00000   0.64416   0.00000  Uiso   1.00
C343   C     0.50000   0.25000   0.35584   0.00000  Uiso   1.00
C344   C     0.50000   0.25000   0.64416   0.00000  Uiso   1.00
C345   C     0.50000   0.25000   0.85584   0.00000  Uiso   1.00
C346   C     0.50000   0.25000   0.14416   0.00000  Uiso   1.00
C347   C     0.75000   0.00000   0.85584   0.00000  Uiso   1.00
C348   C     0.75000   0.00000   0.14416   0.00000  Uiso   1.00
C349   C     0.67995   0.07000   0.25003   0.00000  Uiso   1.00
C350   C     0.98986   0.21839   0.41845   0.00000  Uiso   1.00
C351   C     0.82006   0.43000   0.74997   0.00000  Uiso   1.00
C352   C     0.92995   0.18000   0.24997   0.00000  Uiso   1.00
C353   C     0.57006   0.32000   0.75003   0.00000  Uiso   1.00
C354   C     0.82006   0.43000   0.25003   0.00000  Uiso   1.00
C355   C     0.67995   0.07000   0.74997   0.00000  Uiso   1.00
C356   C     0.57006   0.32000   0.24997   0.00000  Uiso   1.00
C357   C     0.92995   0.18000   0.75003   0.00000  Uiso   1.00
C358   C     0.68000   0.42994   0.75003   0.00000  Uiso   1.00
C359   C     0.82000   0.07006   0.24997   0.00000  Uiso   1.00
C360   C     0.93000   0.32006   0.74997   0.00000  Uiso   1.00
C361   C     0.51014   0.28161   0.58155   0.00000  Uiso   1.00
C362   C     0.57000   0.17994   0.25003   0.00000  Uiso   1.00
C363   C     0.82000   0.07006   0.75003   0.00000  Uiso   1.00
C364   C     0.68000   0.42994   0.24997   0.00000  Uiso   1.00
C365   C     0.57000   0.17994   0.74997   0.00000  Uiso   1.00
C366   C     0.93000   0.32006   0.25003   0.00000  Uiso   1.00
C367   C     0.64031   0.38663   0.21430   0.00000  Uiso   1.00
C368   C     0.85969   0.11337   0.78570   0.00000  Uiso   1.00
C369   C     0.61304   0.13996   0.21446   0.00000  Uiso   1.00
C370   C     0.88696   0.36004   0.78554   0.00000  Uiso   1.00
C371   C     0.85969   0.11337   0.21430   0.00000  Uiso   1.00
C372   C     0.78161   0.01014   0.41845   0.00000  Uiso   1.00
C373   C     0.64031   0.38663   0.78570   0.00000  Uiso   1.00
C374   C     0.88696   0.36004   0.21446   0.00000  Uiso   1.00
C375   C     0.61304   0.13996   0.78554   0.00000  Uiso   1.00
C376   C     0.63996   0.11304   0.78554   0.00000  Uiso   1.00
C377   C     0.86004   0.38696   0.21446   0.00000  Uiso   1.00
C378   C     0.61337   0.35969   0.78570   0.00000  Uiso   1.00
C379   C     0.88663   0.14031   0.21430   0.00000  Uiso   1.00
C380   C     0.86004   0.38696   0.78554   0.00000  Uiso   1.00
C381   C     0.63996   0.11304   0.21446   0.00000  Uiso   1.00
C382   C     0.88663   0.14031   0.78570   0.00000  Uiso   1.00
C383   C     0.71839   0.48986   0.58155   0.00000  Uiso   1.00
C384   C     0.61337   0.35969   0.21430   0.00000  Uiso   1.00
C385   C     0.88996   0.13696   0.71446   0.00000  Uiso   1.00
C386   C     0.61004   0.36304   0.28554   0.00000  Uiso   1.00
C387   C     0.86337   0.39031   0.71430   0.00000  Uiso   1.00
C388   C     0.63663   0.10969   0.28570   0.00000  Uiso   1.00
C389   C     0.61004   0.36304   0.71446   0.00000  Uiso   1.00
C390   C     0.88996   0.13696   0.28554   0.00000  Uiso   1.00
C391   C     0.63663   0.10969   0.71430   0.00000  Uiso   1.00
C392   C     0.86337   0.39031   0.28570   0.00000  Uiso   1.00
C393   C     0.89031   0.36337   0.28570   0.00000  Uiso   1.00
C394   C     0.73986   0.03161   0.91845   0.00000  Uiso   1.00
C395   C     0.60969   0.13663   0.71430   0.00000  Uiso   1.00
C396   C     0.86304   0.11004   0.28554   0.00000  Uiso   1.00
C397   C     0.63696   0.38996   0.71446   0.00000  Uiso   1.00
C398   C     0.60969   0.13663   0.28570   0.00000  Uiso   1.00
C399   C     0.89031   0.36337   0.71430   0.00000  Uiso   1.00
C400   C     0.63696   0.38996   0.28554   0.00000  Uiso   1.00
C401   C     0.86304   0.11004   0.71446   0.00000  Uiso   1.00
C402   C     0.98386   0.22059   0.45900   0.00000  Uiso   1.00
C403   C     0.51614   0.27941   0.54100   0.00000  Uiso   1.00
C404   C     0.77942   0.01614   0.45900   0.00000  Uiso   1.00
Cl405  Cl    0.66056   0.39982   0.16952   0.00000  Uiso   1.00
Cl406  Cl    0.84022   0.40043   0.16960   0.00000  Uiso   1.00
Cl407  Cl    0.60018   0.33944   0.83048   0.00000  Uiso   1.00
Cl408  Cl    0.89982   0.16056   0.16952   0.00000  Uiso   1.00
Cl409  Cl    0.84021   0.40043   0.83040   0.00000  Uiso   1.00
Cl410  Cl    0.65978   0.09957   0.16960   0.00000  Uiso   1.00
Cl411  Cl    0.89982   0.16056   0.83048   0.00000  Uiso   1.00
Cl412  Cl    0.60018   0.33944   0.16952   0.00000  Uiso   1.00
Cl413  Cl    0.90979   0.15043   0.66960   0.00000  Uiso   1.00
Cl414  Cl    0.59021   0.34957   0.33040   0.00000  Uiso   1.00
Cl415  Cl    0.85018   0.41056   0.66952   0.00000  Uiso   1.00
Cl416  Cl    0.83944   0.10018   0.83048   0.00000  Uiso   1.00
Cl417  Cl    0.64983   0.08944   0.33048   0.00000  Uiso   1.00
Cl418  Cl    0.59022   0.34957   0.66960   0.00000  Uiso   1.00
Cl419  Cl    0.90978   0.15043   0.33040   0.00000  Uiso   1.00
Cl420  Cl    0.64983   0.08944   0.66952   0.00000  Uiso   1.00
Cl421  Cl    0.85018   0.41056   0.33048   0.00000  Uiso   1.00
Cl422  Cl    0.91056   0.35018   0.33048   0.00000  Uiso   1.00
Cl423  Cl    0.58944   0.14982   0.66952   0.00000  Uiso   1.00
Cl424  Cl    0.84957   0.09022   0.33040   0.00000  Uiso   1.00
Cl425  Cl    0.65043   0.40978   0.66960   0.00000  Uiso   1.00
Cl426  Cl    0.58944   0.14982   0.33048   0.00000  Uiso   1.00
Cl427  Cl    0.59957   0.15978   0.16960   0.00000  Uiso   1.00
Cl428  Cl    0.91056   0.35018   0.66952   0.00000  Uiso   1.00
Cl429  Cl    0.65043   0.40979   0.33040   0.00000  Uiso   1.00
Cl430  Cl    0.84957   0.09021   0.66960   0.00000  Uiso   1.00
Cl431  Cl    0.90043   0.34021   0.83040   0.00000  Uiso   1.00
Cl432  Cl    0.83944   0.10018   0.16952   0.00000  Uiso   1.00
Cl433  Cl    0.66056   0.39982   0.83048   0.00000  Uiso   1.00
Cl434  Cl    0.90043   0.34021   0.16960   0.00000  Uiso   1.00
Cl435  Cl    0.59957   0.15978   0.83041   0.00000  Uiso   1.00
Cl436  Cl    0.65978   0.09957   0.83041   0.00000  Uiso   1.00
I437   I     0.91836   0.16746   0.44887   0.00000  Uiso   1.00
I438   I     0.66835   0.08254   0.05113   0.00000  Uiso   1.00
I439   I     0.58254   0.16835   0.94887   0.00000  Uiso   1.00
I440   I     0.91746   0.33165   0.05113   0.00000  Uiso   1.00
I441   I     0.66835   0.08254   0.94887   0.00000  Uiso   1.00
I442   I     0.83165   0.41746   0.05113   0.00000  Uiso   1.00
I443   I     0.91746   0.33165   0.94887   0.00000  Uiso   1.00
I444   I     0.58254   0.16835   0.05113   0.00000  Uiso   1.00
I445   I     0.50370   0.33288   0.38909   0.00000  Uiso   1.00
I446   I     0.99630   0.16712   0.61092   0.00000  Uiso   1.00
I447   I     0.66712   0.49630   0.38908   0.00000  Uiso   1.00
I448   I     0.58165   0.33254   0.55113   0.00000  Uiso   1.00
I449   I     0.83288   0.00370   0.61092   0.00000  Uiso   1.00
I450   I     0.99630   0.16712   0.38908   0.00000  Uiso   1.00
I451   I     0.50370   0.33288   0.61092   0.00000  Uiso   1.00
I452   I     0.83288   0.00370   0.38908   0.00000  Uiso   1.00
I453   I     0.66712   0.49630   0.61092   0.00000  Uiso   1.00
I454   I     0.74630   0.08288   0.88909   0.00000  Uiso   1.00
I455   I     0.75370   0.41712   0.11092   0.00000  Uiso   1.00
I456   I     0.91712   0.25370   0.88909   0.00000  Uiso   1.00
I457   I     0.58288   0.24630   0.11092   0.00000  Uiso   1.00
I458   I     0.75370   0.41712   0.88909   0.00000  Uiso   1.00
I459   I     0.83254   0.08164   0.44887   0.00000  Uiso   1.00
I460   I     0.74630   0.08288   0.11092   0.00000  Uiso   1.00
I461   I     0.58288   0.24630   0.88908   0.00000  Uiso   1.00
I462   I     0.91712   0.25370   0.11091   0.00000  Uiso   1.00
I463   I     0.66746   0.41836   0.55113   0.00000  Uiso   1.00
I464   I     0.58164   0.33254   0.44887   0.00000  Uiso   1.00
I465   I     0.91836   0.16746   0.55113   0.00000  Uiso   1.00
I466   I     0.66746   0.41836   0.44887   0.00000  Uiso   1.00
I467   I     0.83254   0.08164   0.55113   0.00000  Uiso   1.00
I468   I     0.83165   0.41746   0.94887   0.00000  Uiso   1.00
O469   O     0.75000   0.00000   0.25000   0.00000  Uiso   1.00
O470   O     0.75000   0.46963   0.66245   0.00000  Uiso   1.00
O471   O     0.96964   0.25000   0.33755   0.00000  Uiso   1.00
O472   O     0.53037   0.25000   0.66245   0.00000  Uiso   1.00
O473   O     0.50000   0.21964   0.83755   0.00000  Uiso   1.00
O474   O     0.50000   0.28036   0.16245   0.00000  Uiso   1.00
O475   O     0.78037   0.00000   0.83755   0.00000  Uiso   1.00
O476   O     0.71964   0.00000   0.16245   0.00000  Uiso   1.00
O477   O     0.50000   0.28036   0.83755   0.00000  Uiso   1.00
O478   O     0.50000   0.21963   0.16245   0.00000  Uiso   1.00
O479   O     0.71964   0.00000   0.83755   0.00000  Uiso   1.00
O480   O     0.75000   0.00000   0.75000   0.00000  Uiso   1.00
O481   O     0.78037   0.00000   0.16245   0.00000  Uiso   1.00
O482   O     0.70725   0.07308   0.27302   0.00000  Uiso   1.00
O483   O     0.79276   0.42693   0.72698   0.00000  Uiso   1.00
O484   O     0.92693   0.20725   0.27302   0.00000  Uiso   1.00
O485   O     0.57308   0.29275   0.72698   0.00000  Uiso   1.00
O486   O     0.79276   0.42693   0.27302   0.00000  Uiso   1.00
O487   O     0.70725   0.07308   0.72698   0.00000  Uiso   1.00
O488   O     0.57308   0.29275   0.27302   0.00000  Uiso   1.00
O489   O     0.92693   0.20725   0.72698   0.00000  Uiso   1.00
O490   O     0.70725   0.42692   0.72698   0.00000  Uiso   1.00
O491   O     0.50000   0.25000   0.25000   0.00000  Uiso   1.00
O492   O     0.79276   0.07308   0.27302   0.00000  Uiso   1.00
O493   O     0.92693   0.29276   0.72698   0.00000  Uiso   1.00
O494   O     0.57308   0.20724   0.27302   0.00000  Uiso   1.00
O495   O     0.79276   0.07308   0.72698   0.00000  Uiso   1.00
O496   O     0.70725   0.42692   0.27302   0.00000  Uiso   1.00
O497   O     0.57308   0.20724   0.72698   0.00000  Uiso   1.00
O498   O     0.92693   0.29276   0.27302   0.00000  Uiso   1.00
O499   O     0.95725   0.32308   0.77302   0.00000  Uiso   1.00
O500   O     0.54276   0.17692   0.22698   0.00000  Uiso   1.00
O501   O     0.67693   0.45724   0.77302   0.00000  Uiso   1.00
O502   O     0.50000   0.25000   0.75000   0.00000  Uiso   1.00
O503   O     0.82308   0.04276   0.22698   0.00000  Uiso   1.00
O504   O     0.54276   0.17692   0.77302   0.00000  Uiso   1.00
O505   O     0.95725   0.32308   0.22698   0.00000  Uiso   1.00
O506   O     0.82308   0.04276   0.77302   0.00000  Uiso   1.00
O507   O     0.67693   0.45724   0.22698   0.00000  Uiso   1.00
O508   O     0.95725   0.17693   0.22698   0.00000  Uiso   1.00
O509   O     0.54276   0.32307   0.77302   0.00000  Uiso   1.00
O510   O     0.67693   0.04276   0.22698   0.00000  Uiso   1.00
O511   O     0.82308   0.45725   0.77302   0.00000  Uiso   1.00
O512   O     0.54276   0.32307   0.22698   0.00000  Uiso   1.00
O513   O     0.75000   0.46963   0.33755   0.00000  Uiso   1.00
O514   O     0.95725   0.17693   0.77302   0.00000  Uiso   1.00
O515   O     0.82308   0.45725   0.22698   0.00000  Uiso   1.00
O516   O     0.67693   0.04276   0.77302   0.00000  Uiso   1.00
O517   O     0.75000   0.03037   0.66245   0.00000  Uiso   1.00
O518   O     0.53037   0.25000   0.33755   0.00000  Uiso   1.00
O519   O     0.96964   0.25000   0.66245   0.00000  Uiso   1.00
O520   O     0.75000   0.03037   0.33755   0.00000  Uiso   1.00
Zn521  Zn    0.70660   0.00000   0.21735   0.00000  Uiso   1.00
Zn522  Zn    0.54341   0.25000   0.28265   0.00000  Uiso   1.00
Zn523  Zn    0.75000   0.45659   0.71735   0.00000  Uiso   1.00
Zn524  Zn    0.75000   0.04341   0.28265   0.00000  Uiso   1.00
Zn525  Zn    0.54341   0.25000   0.71735   0.00000  Uiso   1.00
Zn526  Zn    0.95660   0.25000   0.28265   0.00000  Uiso   1.00
Zn527  Zn    0.75000   0.04341   0.71735   0.00000  Uiso   1.00
Zn528  Zn    0.75000   0.45659   0.28265   0.00000  Uiso   1.00
Zn529  Zn    0.79341   0.00000   0.78265   0.00000  Uiso   1.00
Zn530  Zn    0.50000   0.20659   0.21735   0.00000  Uiso   1.00
Zn531  Zn    0.50000   0.29340   0.78265   0.00000  Uiso   1.00
Zn532  Zn    0.79341   0.00000   0.21735   0.00000  Uiso   1.00
Zn533  Zn    0.70660   0.00000   0.78265   0.00000  Uiso   1.00
Zn534  Zn    0.50000   0.29340   0.21735   0.00000  Uiso   1.00
Zn535  Zn    0.50000   0.20659   0.78265   0.00000  Uiso   1.00
Zn536  Zn    0.95660   0.25000   0.71735   0.00000  Uiso   1.00
C537   C     0.01014   0.78161   0.41845   0.00000  Uiso   1.00
C538   C     0.26014   0.96839   0.08155   0.00000  Uiso   1.00
C539   C     0.22059   0.98386   0.54100   0.00000  Uiso   1.00
C540   C     0.01614   0.77941   0.45900   0.00000  Uiso   1.00
C541   C     0.48386   0.72059   0.54100   0.00000  Uiso   1.00
C542   C     0.22059   0.98386   0.45900   0.00000  Uiso   1.00
C543   C     0.27941   0.51614   0.54100   0.00000  Uiso   1.00
C544   C     0.26614   0.97059   0.95900   0.00000  Uiso   1.00
C545   C     0.23386   0.52941   0.04100   0.00000  Uiso   1.00
C546   C     0.02941   0.73386   0.95900   0.00000  Uiso   1.00
C547   C     0.47059   0.76614   0.04100   0.00000  Uiso   1.00
C548   C     0.23386   0.52941   0.95900   0.00000  Uiso   1.00
C549   C     0.46839   0.76014   0.91845   0.00000  Uiso   1.00
C550   C     0.26614   0.97059   0.04100   0.00000  Uiso   1.00
C551   C     0.47059   0.76614   0.95900   0.00000  Uiso   1.00
C552   C     0.02941   0.73386   0.04100   0.00000  Uiso   1.00
C553   C     0.09818   0.84800   0.24992   0.00000  Uiso   1.00
C554   C     0.40182   0.65200   0.75008   0.00000  Uiso   1.00
C555   C     0.15182   0.59800   0.25008   0.00000  Uiso   1.00
C556   C     0.34818   0.90200   0.74992   0.00000  Uiso   1.00
C557   C     0.40182   0.65200   0.24992   0.00000  Uiso   1.00
C558   C     0.09818   0.84800   0.75008   0.00000  Uiso   1.00
C559   C     0.34818   0.90200   0.25008   0.00000  Uiso   1.00
C560   C     0.03161   0.73986   0.08155   0.00000  Uiso   1.00
C561   C     0.15182   0.59800   0.74992   0.00000  Uiso   1.00
C562   C     0.09800   0.65182   0.74992   0.00000  Uiso   1.00
C563   C     0.40200   0.84818   0.25008   0.00000  Uiso   1.00
C564   C     0.15200   0.90182   0.75008   0.00000  Uiso   1.00
C565   C     0.34800   0.59818   0.24992   0.00000  Uiso   1.00
C566   C     0.40200   0.84818   0.74992   0.00000  Uiso   1.00
C567   C     0.09800   0.65182   0.25008   0.00000  Uiso   1.00
C568   C     0.34800   0.59818   0.75008   0.00000  Uiso   1.00
C569   C     0.15200   0.90182   0.24992   0.00000  Uiso   1.00
C570   C     0.00000   0.75000   0.47953   0.00000  Uiso   1.00
C571   C     0.26014   0.96839   0.91845   0.00000  Uiso   1.00
C572   C     0.00000   0.75000   0.52047   0.00000  Uiso   1.00
C573   C     0.25000   0.50000   0.47953   0.00000  Uiso   1.00
C574   C     0.25000   0.50000   0.52047   0.00000  Uiso   1.00
C575   C     0.25000   0.50000   0.97953   0.00000  Uiso   1.00
C576   C     0.25000   0.50000   0.02047   0.00000  Uiso   1.00
C577   C     0.00000   0.75000   0.97953   0.00000  Uiso   1.00
C578   C     0.00000   0.75000   0.02047   0.00000  Uiso   1.00
C579   C     0.23986   0.53161   0.08155   0.00000  Uiso   1.00
C580   C     0.03161   0.73986   0.91845   0.00000  Uiso   1.00
C581   C     0.46839   0.76014   0.08155   0.00000  Uiso   1.00
C582   C     0.00000   0.75000   0.39825   0.00000  Uiso   1.00
C583   C     0.00000   0.75000   0.60176   0.00000  Uiso   1.00
C584   C     0.25000   0.50000   0.39824   0.00000  Uiso   1.00
C585   C     0.48986   0.71839   0.58155   0.00000  Uiso   1.00
C586   C     0.25000   0.50000   0.60176   0.00000  Uiso   1.00
C587   C     0.25000   0.50000   0.89825   0.00000  Uiso   1.00
C588   C     0.25000   0.50000   0.10175   0.00000  Uiso   1.00
C589   C     0.00000   0.75000   0.89825   0.00000  Uiso   1.00
C590   C     0.00000   0.75000   0.10176   0.00000  Uiso   1.00
C591   C     0.46110   0.69587   0.47937   0.00000  Uiso   1.00
C592   C     0.03891   0.80413   0.52063   0.00000  Uiso   1.00
C593   C     0.30413   0.53890   0.47937   0.00000  Uiso   1.00
C594   C     0.19587   0.96110   0.52063   0.00000  Uiso   1.00
C595   C     0.03890   0.80413   0.47937   0.00000  Uiso   1.00
C596   C     0.21839   0.98986   0.41845   0.00000  Uiso   1.00
C597   C     0.46110   0.69587   0.52063   0.00000  Uiso   1.00
C598   C     0.19587   0.96110   0.47937   0.00000  Uiso   1.00
C599   C     0.30413   0.53890   0.52063   0.00000  Uiso   1.00
C600   C     0.28891   0.94587   0.97937   0.00000  Uiso   1.00
C601   C     0.21109   0.55413   0.02063   0.00000  Uiso   1.00
C602   C     0.05413   0.71109   0.97937   0.00000  Uiso   1.00
C603   C     0.44587   0.78891   0.02063   0.00000  Uiso   1.00
C604   C     0.21109   0.55413   0.97937   0.00000  Uiso   1.00
C605   C     0.28891   0.94587   0.02063   0.00000  Uiso   1.00
C606   C     0.44587   0.78891   0.97937   0.00000  Uiso   1.00
C607   C     0.28161   0.51014   0.58155   0.00000  Uiso   1.00
C608   C     0.05413   0.71109   0.02063   0.00000  Uiso   1.00
C609   C     0.25000   0.50000   0.35584   0.00000  Uiso   1.00
C610   C     0.25000   0.50000   0.64416   0.00000  Uiso   1.00
C611   C     0.00000   0.75000   0.35584   0.00000  Uiso   1.00
C612   C     0.00000   0.75000   0.64416   0.00000  Uiso   1.00
C613   C     0.00000   0.75000   0.85584   0.00000  Uiso   1.00
C614   C     0.00000   0.75000   0.14416   0.00000  Uiso   1.00
C615   C     0.25000   0.50000   0.85584   0.00000  Uiso   1.00
C616   C     0.25000   0.50000   0.14416   0.00000  Uiso   1.00
C617   C     0.17995   0.57000   0.25003   0.00000  Uiso   1.00
C618   C     0.48986   0.71839   0.41845   0.00000  Uiso   1.00
C619   C     0.32006   0.93000   0.74997   0.00000  Uiso   1.00
C620   C     0.42995   0.68000   0.24997   0.00000  Uiso   1.00
C621   C     0.07006   0.82000   0.75003   0.00000  Uiso   1.00
C622   C     0.32006   0.93000   0.25003   0.00000  Uiso   1.00
C623   C     0.17995   0.57000   0.74997   0.00000  Uiso   1.00
C624   C     0.07006   0.82000   0.24997   0.00000  Uiso   1.00
C625   C     0.42995   0.68000   0.75003   0.00000  Uiso   1.00
C626   C     0.18000   0.92994   0.75003   0.00000  Uiso   1.00
C627   C     0.32000   0.57006   0.24997   0.00000  Uiso   1.00
C628   C     0.43000   0.82006   0.74997   0.00000  Uiso   1.00
C629   C     0.01014   0.78161   0.58155   0.00000  Uiso   1.00
C630   C     0.07000   0.67994   0.25003   0.00000  Uiso   1.00
C631   C     0.32000   0.57006   0.75003   0.00000  Uiso   1.00
C632   C     0.18000   0.92994   0.24997   0.00000  Uiso   1.00
C633   C     0.07000   0.67994   0.74997   0.00000  Uiso   1.00
C634   C     0.43000   0.82006   0.25003   0.00000  Uiso   1.00
C635   C     0.14031   0.88663   0.21430   0.00000  Uiso   1.00
C636   C     0.35969   0.61337   0.78570   0.00000  Uiso   1.00
C637   C     0.11304   0.63996   0.21446   0.00000  Uiso   1.00
C638   C     0.38696   0.86004   0.78554   0.00000  Uiso   1.00
C639   C     0.35969   0.61337   0.21430   0.00000  Uiso   1.00
C640   C     0.28161   0.51014   0.41845   0.00000  Uiso   1.00
C641   C     0.14031   0.88663   0.78570   0.00000  Uiso   1.00
C642   C     0.38696   0.86004   0.21446   0.00000  Uiso   1.00
C643   C     0.11304   0.63996   0.78554   0.00000  Uiso   1.00
C644   C     0.13996   0.61304   0.78554   0.00000  Uiso   1.00
C645   C     0.36004   0.88696   0.21446   0.00000  Uiso   1.00
C646   C     0.11337   0.85969   0.78570   0.00000  Uiso   1.00
C647   C     0.38663   0.64031   0.21430   0.00000  Uiso   1.00
C648   C     0.36004   0.88696   0.78554   0.00000  Uiso   1.00
C649   C     0.13996   0.61304   0.21446   0.00000  Uiso   1.00
C650   C     0.38663   0.64031   0.78570   0.00000  Uiso   1.00
C651   C     0.21839   0.98986   0.58155   0.00000  Uiso   1.00
C652   C     0.11337   0.85969   0.21430   0.00000  Uiso   1.00
C653   C     0.38996   0.63696   0.71446   0.00000  Uiso   1.00
C654   C     0.11004   0.86304   0.28554   0.00000  Uiso   1.00
C655   C     0.36337   0.89031   0.71430   0.00000  Uiso   1.00
C656   C     0.13663   0.60969   0.28570   0.00000  Uiso   1.00
C657   C     0.11004   0.86304   0.71446   0.00000  Uiso   1.00
C658   C     0.38996   0.63696   0.28554   0.00000  Uiso   1.00
C659   C     0.13663   0.60969   0.71430   0.00000  Uiso   1.00
C660   C     0.36337   0.89031   0.28570   0.00000  Uiso   1.00
C661   C     0.39031   0.86337   0.28570   0.00000  Uiso   1.00
C662   C     0.23986   0.53161   0.91845   0.00000  Uiso   1.00
C663   C     0.10969   0.63663   0.71430   0.00000  Uiso   1.00
C664   C     0.36304   0.61004   0.28554   0.00000  Uiso   1.00
C665   C     0.13696   0.88996   0.71446   0.00000  Uiso   1.00
C666   C     0.10969   0.63663   0.28570   0.00000  Uiso   1.00
C667   C     0.39031   0.86337   0.71430   0.00000  Uiso   1.00
C668   C     0.13696   0.88996   0.28554   0.00000  Uiso   1.00
C669   C     0.36304   0.61004   0.71446   0.00000  Uiso   1.00
C670   C     0.48386   0.72059   0.45900   0.00000  Uiso   1.00
C671   C     0.01614   0.77941   0.54100   0.00000  Uiso   1.00
C672   C     0.27942   0.51614   0.45900   0.00000  Uiso   1.00
Cl673  Cl    0.16056   0.89982   0.16952   0.00000  Uiso   1.00
Cl674  Cl    0.34022   0.90043   0.16960   0.00000  Uiso   1.00
Cl675  Cl    0.10018   0.83944   0.83048   0.00000  Uiso   1.00
Cl676  Cl    0.39982   0.66056   0.16952   0.00000  Uiso   1.00
Cl677  Cl    0.34021   0.90043   0.83040   0.00000  Uiso   1.00
Cl678  Cl    0.15978   0.59957   0.16960   0.00000  Uiso   1.00
Cl679  Cl    0.39982   0.66056   0.83048   0.00000  Uiso   1.00
Cl680  Cl    0.10018   0.83944   0.16952   0.00000  Uiso   1.00
Cl681  Cl    0.40979   0.65043   0.66960   0.00000  Uiso   1.00
Cl682  Cl    0.09021   0.84957   0.33040   0.00000  Uiso   1.00
Cl683  Cl    0.35018   0.91056   0.66952   0.00000  Uiso   1.00
Cl684  Cl    0.33944   0.60018   0.83048   0.00000  Uiso   1.00
Cl685  Cl    0.14983   0.58944   0.33048   0.00000  Uiso   1.00
Cl686  Cl    0.09022   0.84957   0.66960   0.00000  Uiso   1.00
Cl687  Cl    0.40978   0.65043   0.33040   0.00000  Uiso   1.00
Cl688  Cl    0.14983   0.58944   0.66952   0.00000  Uiso   1.00
Cl689  Cl    0.35018   0.91056   0.33048   0.00000  Uiso   1.00
Cl690  Cl    0.41056   0.85018   0.33048   0.00000  Uiso   1.00
Cl691  Cl    0.08944   0.64982   0.66952   0.00000  Uiso   1.00
Cl692  Cl    0.34957   0.59022   0.33040   0.00000  Uiso   1.00
Cl693  Cl    0.15043   0.90978   0.66960   0.00000  Uiso   1.00
Cl694  Cl    0.08944   0.64982   0.33048   0.00000  Uiso   1.00
Cl695  Cl    0.09957   0.65978   0.16960   0.00000  Uiso   1.00
Cl696  Cl    0.41056   0.85018   0.66952   0.00000  Uiso   1.00
Cl697  Cl    0.15043   0.90979   0.33040   0.00000  Uiso   1.00
Cl698  Cl    0.34957   0.59021   0.66960   0.00000  Uiso   1.00
Cl699  Cl    0.40043   0.84021   0.83040   0.00000  Uiso   1.00
Cl700  Cl    0.33944   0.60018   0.16952   0.00000  Uiso   1.00
Cl701  Cl    0.16056   0.89982   0.83048   0.00000  Uiso   1.00
Cl702  Cl    0.40043   0.84021   0.16960   0.00000  Uiso   1.00
Cl703  Cl    0.09957   0.65978   0.83041   0.00000  Uiso   1.00
Cl704  Cl    0.15978   0.59957   0.83041   0.00000  Uiso   1.00
I705   I     0.41836   0.66746   0.44887   0.00000  Uiso   1.00
I706   I     0.16835   0.58254   0.05113   0.00000  Uiso   1.00
I707   I     0.08254   0.66835   0.94887   0.00000  Uiso   1.00
I708   I     0.41746   0.83165   0.05113   0.00000  Uiso   1.00
I709   I     0.16835   0.58254   0.94887   0.00000  Uiso   1.00
I710   I     0.33165   0.91746   0.05113   0.00000  Uiso   1.00
I711   I     0.41746   0.83165   0.94887   0.00000  Uiso   1.00
I712   I     0.08254   0.66835   0.05113   0.00000  Uiso   1.00
I713   I     0.00370   0.83288   0.38909   0.00000  Uiso   1.00
I714   I     0.49630   0.66712   0.61092   0.00000  Uiso   1.00
I715   I     0.16712   0.99630   0.38908   0.00000  Uiso   1.00
I716   I     0.08165   0.83254   0.55113   0.00000  Uiso   1.00
I717   I     0.33288   0.50370   0.61092   0.00000  Uiso   1.00
I718   I     0.49630   0.66712   0.38908   0.00000  Uiso   1.00
I719   I     0.00370   0.83288   0.61092   0.00000  Uiso   1.00
I720   I     0.33288   0.50370   0.38908   0.00000  Uiso   1.00
I721   I     0.16712   0.99630   0.61092   0.00000  Uiso   1.00
I722   I     0.24630   0.58288   0.88909   0.00000  Uiso   1.00
I723   I     0.25370   0.91712   0.11092   0.00000  Uiso   1.00
I724   I     0.41712   0.75370   0.88909   0.00000  Uiso   1.00
I725   I     0.08288   0.74630   0.11092   0.00000  Uiso   1.00
I726   I     0.25370   0.91712   0.88909   0.00000  Uiso   1.00
I727   I     0.33254   0.58164   0.44887   0.00000  Uiso   1.00
I728   I     0.24630   0.58288   0.11092   0.00000  Uiso   1.00
I729   I     0.08288   0.74630   0.88908   0.00000  Uiso   1.00
I730   I     0.41712   0.75370   0.11091   0.00000  Uiso   1.00
I731   I     0.16746   0.91836   0.55113   0.00000  Uiso   1.00
I732   I     0.08164   0.83254   0.44887   0.00000  Uiso   1.00
I733   I     0.41836   0.66746   0.55113   0.00000  Uiso   1.00
I734   I     0.16746   0.91836   0.44887   0.00000  Uiso   1.00
I735   I     0.33254   0.58164   0.55113   0.00000  Uiso   1.00
I736   I     0.33165   0.91746   0.94887   0.00000  Uiso   1.00
O737   O     0.25000   0.50000   0.25000   0.00000  Uiso   1.00
O738   O     0.25000   0.96963   0.66245   0.00000  Uiso   1.00
O739   O     0.46964   0.75000   0.33755   0.00000  Uiso   1.00
O740   O     0.03037   0.75000   0.66245   0.00000  Uiso   1.00
O741   O     0.00000   0.71964   0.83755   0.00000  Uiso   1.00
O742   O     0.00000   0.78036   0.16245   0.00000  Uiso   1.00
O743   O     0.28037   0.50000   0.83755   0.00000  Uiso   1.00
O744   O     0.21964   0.50000   0.16245   0.00000  Uiso   1.00
O745   O     0.00000   0.78036   0.83755   0.00000  Uiso   1.00
O746   O     0.00000   0.71963   0.16245   0.00000  Uiso   1.00
O747   O     0.21964   0.50000   0.83755   0.00000  Uiso   1.00
O748   O     0.25000   0.50000   0.75000   0.00000  Uiso   1.00
O749   O     0.28037   0.50000   0.16245   0.00000  Uiso   1.00
O750   O     0.20725   0.57308   0.27302   0.00000  Uiso   1.00
O751   O     0.29276   0.92693   0.72698   0.00000  Uiso   1.00
O752   O     0.42693   0.70725   0.27302   0.00000  Uiso   1.00
O753   O     0.07308   0.79275   0.72698   0.00000  Uiso   1.00
O754   O     0.29276   0.92693   0.27302   0.00000  Uiso   1.00
O755   O     0.20725   0.57308   0.72698   0.00000  Uiso   1.00
O756   O     0.07308   0.79275   0.27302   0.00000  Uiso   1.00
O757   O     0.42693   0.70725   0.72698   0.00000  Uiso   1.00
O758   O     0.20725   0.92692   0.72698   0.00000  Uiso   1.00
O759   O     0.00000   0.75000   0.25000   0.00000  Uiso   1.00
O760   O     0.29276   0.57308   0.27302   0.00000  Uiso   1.00
O761   O     0.42693   0.79276   0.72698   0.00000  Uiso   1.00
O762   O     0.07308   0.70724   0.27302   0.00000  Uiso   1.00
O763   O     0.29276   0.57308   0.72698   0.00000  Uiso   1.00
O764   O     0.20725   0.92692   0.27302   0.00000  Uiso   1.00
O765   O     0.07308   0.70724   0.72698   0.00000  Uiso   1.00
O766   O     0.42693   0.79276   0.27302   0.00000  Uiso   1.00
O767   O     0.45725   0.82308   0.77302   0.00000  Uiso   1.00
O768   O     0.04276   0.67692   0.22698   0.00000  Uiso   1.00
O769   O     0.17693   0.95724   0.77302   0.00000  Uiso   1.00
O770   O     0.00000   0.75000   0.75000   0.00000  Uiso   1.00
O771   O     0.32308   0.54276   0.22698   0.00000  Uiso   1.00
O772   O     0.04276   0.67692   0.77302   0.00000  Uiso   1.00
O773   O     0.45725   0.82308   0.22698   0.00000  Uiso   1.00
O774   O     0.32308   0.54276   0.77302   0.00000  Uiso   1.00
O775   O     0.17693   0.95724   0.22698   0.00000  Uiso   1.00
O776   O     0.45725   0.67693   0.22698   0.00000  Uiso   1.00
O777   O     0.04276   0.82307   0.77302   0.00000  Uiso   1.00
O778   O     0.17693   0.54276   0.22698   0.00000  Uiso   1.00
O779   O     0.32308   0.95725   0.77302   0.00000  Uiso   1.00
O780   O     0.04276   0.82307   0.22698   0.00000  Uiso   1.00
O781   O     0.25000   0.96963   0.33755   0.00000  Uiso   1.00
O782   O     0.45725   0.67693   0.77302   0.00000  Uiso   1.00
O783   O     0.32308   0.95725   0.22698   0.00000  Uiso   1.00
O784   O     0.17693   0.54276   0.77302   0.00000  Uiso   1.00
O785   O     0.25000   0.53037   0.66245   0.00000  Uiso   1.00
O786   O     0.03037   0.75000   0.33755   0.00000  Uiso   1.00
O787   O     0.46964   0.75000   0.66245   0.00000  Uiso   1.00
O788   O     0.25000   0.53037   0.33755   0.00000  Uiso   1.00
Zn789  Zn    0.20660   0.50000   0.21735   0.00000  Uiso   1.00
Zn790  Zn    0.04341   0.75000   0.28265   0.00000  Uiso   1.00
Zn791  Zn    0.25000   0.95659   0.71735   0.00000  Uiso   1.00
Zn792  Zn    0.25000   0.54341   0.28265   0.00000  Uiso   1.00
Zn793  Zn    0.04341   0.75000   0.71735   0.00000  Uiso   1.00
Zn794  Zn    0.45660   0.75000   0.28265   0.00000  Uiso   1.00
Zn795  Zn    0.25000   0.54341   0.71735   0.00000  Uiso   1.00
Zn796  Zn    0.25000   0.95659   0.28265   0.00000  Uiso   1.00
Zn797  Zn    0.29341   0.50000   0.78265   0.00000  Uiso   1.00
Zn798  Zn    0.00000   0.70659   0.21735   0.00000  Uiso   1.00
Zn799  Zn    0.00000   0.79340   0.78265   0.00000  Uiso   1.00
Zn800  Zn    0.29341   0.50000   0.21735   0.00000  Uiso   1.00
Zn801  Zn    0.20660   0.50000   0.78265   0.00000  Uiso   1.00
Zn802  Zn    0.00000   0.79340   0.21735   0.00000  Uiso   1.00
Zn803  Zn    0.00000   0.70659   0.78265   0.00000  Uiso   1.00
Zn804  Zn    0.45660   0.75000   0.71735   0.00000  Uiso   1.00
C805   C     0.51014   0.78161   0.41845   0.00000  Uiso   1.00
C806   C     0.76014   0.96839   0.08155   0.00000  Uiso   1.00
C807   C     0.72059   0.98386   0.54100   0.00000  Uiso   1.00
C808   C     0.51614   0.77941   0.45900   0.00000  Uiso   1.00
C809   C     0.98386   0.72059   0.54100   0.00000  Uiso   1.00
C810   C     0.72059   0.98386   0.45900   0.00000  Uiso   1.00
C811   C     0.77941   0.51614   0.54100   0.00000  Uiso   1.00
C812   C     0.76614   0.97059   0.95900   0.00000  Uiso   1.00
C813   C     0.73386   0.52941   0.04100   0.00000  Uiso   1.00
C814   C     0.52941   0.73386   0.95900   0.00000  Uiso   1.00
C815   C     0.97059   0.76614   0.04100   0.00000  Uiso   1.00
C816   C     0.73386   0.52941   0.95900   0.00000  Uiso   1.00
C817   C     0.96839   0.76014   0.91845   0.00000  Uiso   1.00
C818   C     0.76614   0.97059   0.04100   0.00000  Uiso   1.00
C819   C     0.97059   0.76614   0.95900   0.00000  Uiso   1.00
C820   C     0.52941   0.73386   0.04100   0.00000  Uiso   1.00
C821   C     0.59818   0.84800   0.24992   0.00000  Uiso   1.00
C822   C     0.90182   0.65200   0.75008   0.00000  Uiso   1.00
C823   C     0.65182   0.59800   0.25008   0.00000  Uiso   1.00
C824   C     0.84818   0.90200   0.74992   0.00000  Uiso   1.00
C825   C     0.90182   0.65200   0.24992   0.00000  Uiso   1.00
C826   C     0.59818   0.84800   0.75008   0.00000  Uiso   1.00
C827   C     0.84818   0.90200   0.25008   0.00000  Uiso   1.00
C828   C     0.53161   0.73986   0.08155   0.00000  Uiso   1.00
C829   C     0.65182   0.59800   0.74992   0.00000  Uiso   1.00
C830   C     0.59800   0.65182   0.74992   0.00000  Uiso   1.00
C831   C     0.90200   0.84818   0.25008   0.00000  Uiso   1.00
C832   C     0.65200   0.90182   0.75008   0.00000  Uiso   1.00
C833   C     0.84800   0.59818   0.24992   0.00000  Uiso   1.00
C834   C     0.90200   0.84818   0.74992   0.00000  Uiso   1.00
C835   C     0.59800   0.65182   0.25008   0.00000  Uiso   1.00
C836   C     0.84800   0.59818   0.75008   0.00000  Uiso   1.00
C837   C     0.65200   0.90182   0.24992   0.00000  Uiso   1.00
C838   C     0.50000   0.75000   0.47953   0.00000  Uiso   1.00
C839   C     0.76014   0.96839   0.91845   0.00000  Uiso   1.00
C840   C     0.50000   0.75000   0.52047   0.00000  Uiso   1.00
C841   C     0.75000   0.50000   0.47953   0.00000  Uiso   1.00
C842   C     0.75000   0.50000   0.52047   0.00000  Uiso   1.00
C843   C     0.75000   0.50000   0.97953   0.00000  Uiso   1.00
C844   C     0.75000   0.50000   0.02047   0.00000  Uiso   1.00
C845   C     0.50000   0.75000   0.97953   0.00000  Uiso   1.00
C846   C     0.50000   0.75000   0.02047   0.00000  Uiso   1.00
C847   C     0.73986   0.53161   0.08155   0.00000  Uiso   1.00
C848   C     0.53161   0.73986   0.91845   0.00000  Uiso   1.00
C849   C     0.96839   0.76014   0.08155   0.00000  Uiso   1.00
C850   C     0.50000   0.75000   0.39825   0.00000  Uiso   1.00
C851   C     0.50000   0.75000   0.60176   0.00000  Uiso   1.00
C852   C     0.75000   0.50000   0.39824   0.00000  Uiso   1.00
C853   C     0.98986   0.71839   0.58155   0.00000  Uiso   1.00
C854   C     0.75000   0.50000   0.60176   0.00000  Uiso   1.00
C855   C     0.75000   0.50000   0.89825   0.00000  Uiso   1.00
C856   C     0.75000   0.50000   0.10175   0.00000  Uiso   1.00
C857   C     0.50000   0.75000   0.89825   0.00000  Uiso   1.00
C858   C     0.50000   0.75000   0.10176   0.00000  Uiso   1.00
C859   C     0.96110   0.69587   0.47937   0.00000  Uiso   1.00
C860   C     0.53891   0.80413   0.52063   0.00000  Uiso   1.00
C861   C     0.80413   0.53890   0.47937   0.00000  Uiso   1.00
C862   C     0.69587   0.96110   0.52063   0.00000  Uiso   1.00
C863   C     0.53890   0.80413   0.47937   0.00000  Uiso   1.00
C864   C     0.71839   0.98986   0.41845   0.00000  Uiso   1.00
C865   C     0.96110   0.69587   0.52063   0.00000  Uiso   1.00
C866   C     0.69587   0.96110   0.47937   0.00000  Uiso   1.00
C867   C     0.80413   0.53890   0.52063   0.00000  Uiso   1.00
C868   C     0.78891   0.94587   0.97937   0.00000  Uiso   1.00
C869   C     0.71109   0.55413   0.02063   0.00000  Uiso   1.00
C870   C     0.55413   0.71109   0.97937   0.00000  Uiso   1.00
C871   C     0.94587   0.78891   0.02063   0.00000  Uiso   1.00
C872   C     0.71109   0.55413   0.97937   0.00000  Uiso   1.00
C873   C     0.78891   0.94587   0.02063   0.00000  Uiso   1.00
C874   C     0.94587   0.78891   0.97937   0.00000  Uiso   1.00
C875   C     0.78161   0.51014   0.58155   0.00000  Uiso   1.00
C876   C     0.55413   0.71109   0.02063   0.00000  Uiso   1.00
C877   C     0.75000   0.50000   0.35584   0.00000  Uiso   1.00
C878   C     0.75000   0.50000   0.64416   0.00000  Uiso   1.00
C879   C     0.50000   0.75000   0.35584   0.00000  Uiso   1.00
C880   C     0.50000   0.75000   0.64416   0.00000  Uiso   1.00
C881   C     0.50000   0.75000   0.85584   0.00000  Uiso   1.00
C882   C     0.50000   0.75000   0.14416   0.00000  Uiso   1.00
C883   C     0.75000   0.50000   0.85584   0.00000  Uiso   1.00
C884   C     0.75000   0.50000   0.14416   0.00000  Uiso   1.00
C885   C     0.67995   0.57000   0.25003   0.00000  Uiso   1.00
C886   C     0.98986   0.71839   0.41845   0.00000  Uiso   1.00
C887   C     0.82006   0.93000   0.74997   0.00000  Uiso   1.00
C888   C     0.92995   0.68000   0.24997   0.00000  Uiso   1.00
C889   C     0.57006   0.82000   0.75003   0.00000  Uiso   1.00
C890   C     0.82006   0.93000   0.25003   0.00000  Uiso   1.00
C891   C     0.67995   0.57000   0.74997   0.00000  Uiso   1.00
C892   C     0.57006   0.82000   0.24997   0.00000  Uiso   1.00
C893   C     0.92995   0.68000   0.75003   0.00000  Uiso   1.00
C894   C     0.68000   0.92994   0.75003   0.00000  Uiso   1.00
C895   C     0.82000   0.57006   0.24997   0.00000  Uiso   1.00
C896   C     0.93000   0.82006   0.74997   0.00000  Uiso   1.00
C897   C     0.51014   0.78161   0.58155   0.00000  Uiso   1.00
C898   C     0.57000   0.67994   0.25003   0.00000  Uiso   1.00
C899   C     0.82000   0.57006   0.75003   0.00000  Uiso   1.00
C900   C     0.68000   0.92994   0.24997   0.00000  Uiso   1.00
C901   C     0.57000   0.67994   0.74997   0.00000  Uiso   1.00
C902   C     0.93000   0.82006   0.25003   0.00000  Uiso   1.00
C903   C     0.64031   0.88663   0.21430   0.00000  Uiso   1.00
C904   C     0.85969   0.61337   0.78570   0.00000  Uiso   1.00
C905   C     0.61304   0.63996   0.21446   0.00000  Uiso   1.00
C906   C     0.88696   0.86004   0.78554   0.00000  Uiso   1.00
C907   C     0.85969   0.61337   0.21430   0.00000  Uiso   1.00
C908   C     0.78161   0.51014   0.41845   0.00000  Uiso   1.00
C909   C     0.64031   0.88663   0.78570   0.00000  Uiso   1.00
C910   C     0.88696   0.86004   0.21446   0.00000  Uiso   1.00
C911   C     0.61304   0.63996   0.78554   0.00000  Uiso   1.00
C912   C     0.63996   0.61304   0.78554   0.00000  Uiso   1.00
C913   C     0.86004   0.88696   0.21446   0.00000  Uiso   1.00
C914   C     0.61337   0.85969   0.78570   0.00000  Uiso   1.00
C915   C     0.88663   0.64031   0.21430   0.00000  Uiso   1.00
C916   C     0.86004   0.88696   0.78554   0.00000  Uiso   1.00
C917   C     0.63996   0.61304   0.21446   0.00000  Uiso   1.00
C918   C     0.88663   0.64031   0.78570   0.00000  Uiso   1.00
C919   C     0.71839   0.98986   0.58155   0.00000  Uiso   1.00
C920   C     0.61337   0.85969   0.21430   0.00000  Uiso   1.00
C921   C     0.88996   0.63696   0.71446   0.00000  Uiso   1.00
C922   C     0.61004   0.86304   0.28554   0.00000  Uiso   1.00
C923   C     0.86337   0.89031   0.71430   0.00000  Uiso   1.00
C924   C     0.63663   0.60969   0.28570   0.00000  Uiso   1.00
C925   C     0.61004   0.86304   0.71446   0.00000  Uiso   1.00
C926   C     0.88996   0.63696   0.28554   0.00000  Uiso   1.00
C927   C     0.63663   0.60969   0.71430   0.00000  Uiso   1.00
C928   C     0.86337   0.89031   0.28570   0.00000  Uiso   1.00
C929   C     0.89031   0.86337   0.28570   0.00000  Uiso   1.00
C930   C     0.73986   0.53161   0.91845   0.00000  Uiso   1.00
C931   C     0.60969   0.63663   0.71430   0.00000  Uiso   1.00
C932   C     0.86304   0.61004   0.28554   0.00000  Uiso   1.00
C933   C     0.63696   0.88996   0.71446   0.00000  Uiso   1.00
C934   C     0.60969   0.63663   0.28570   0.00000  Uiso   1.00
C935   C     0.89031   0.86337   0.71430   0.00000  Uiso   1.00
C936   C     0.63696   0.88996   0.28554   0.00000  Uiso   1.00
C937   C     0.86304   0.61004   0.71446   0.00000  Uiso   1.00
C938   C     0.98386   0.72059   0.45900   0.00000  Uiso   1.00
C939   C     0.51614   0.77941   0.54100   0.00000  Uiso   1.00
C940   C     0.77942   0.51614   0.45900   0.00000  Uiso   1.00
Cl941  Cl    0.66056   0.89982   0.16952   0.00000  Uiso   1.00
Cl942  Cl    0.84022   0.90043   0.16960   0.00000  Uiso   1.00
Cl943  Cl    0.60018   0.83944   0.83048   0.00000  Uiso   1.00
Cl944  Cl    0.89982   0.66056   0.16952   0.00000  Uiso   1.00
Cl945  Cl    0.84021   0.90043   0.83040   0.00000  Uiso   1.00
Cl946  Cl    0.65978   0.59957   0.16960   0.00000  Uiso   1.00
Cl947  Cl    0.89982   0.66056   0.83048   0.00000  Uiso   1.00
Cl948  Cl    0.60018   0.83944   0.16952   0.00000  Uiso   1.00
Cl949  Cl    0.90979   0.65043   0.66960   0.00000  Uiso   1.00
Cl950  Cl    0.59021   0.84957   0.33040   0.00000  Uiso   1.00
Cl951  Cl    0.85018   0.91056   0.66952   0.00000  Uiso   1.00
Cl952  Cl    0.83944   0.60018   0.83048   0.00000  Uiso   1.00
Cl953  Cl    0.64983   0.58944   0.33048   0.00000  Uiso   1.00
Cl954  Cl    0.59022   0.84957   0.66960   0.00000  Uiso   1.00
Cl955  Cl    0.90978   0.65043   0.33040   0.00000  Uiso   1.00
Cl956  Cl    0.64983   0.58944   0.66952   0.00000  Uiso   1.00
Cl957  Cl    0.85018   0.91056   0.33048   0.00000  Uiso   1.00
Cl958  Cl    0.91056   0.85018   0.33048   0.00000  Uiso   1.00
Cl959  Cl    0.58944   0.64982   0.66952   0.00000  Uiso   1.00
Cl960  Cl    0.84957   0.59022   0.33040   0.00000  Uiso   1.00
Cl961  Cl    0.65043   0.90978   0.66960   0.00000  Uiso   1.00
Cl962  Cl    0.58944   0.64982   0.33048   0.00000  Uiso   1.00
Cl963  Cl    0.59957   0.65978   0.16960   0.00000  Uiso   1.00
Cl964  Cl    0.91056   0.85018   0.66952   0.00000  Uiso   1.00
Cl965  Cl    0.65043   0.90979   0.33040   0.00000  Uiso   1.00
Cl966  Cl    0.84957   0.59021   0.66960   0.00000  Uiso   1.00
Cl967  Cl    0.90043   0.84021   0.83040   0.00000  Uiso   1.00
Cl968  Cl    0.83944   0.60018   0.16952   0.00000  Uiso   1.00
Cl969  Cl    0.66056   0.89982   0.83048   0.00000  Uiso   1.00
Cl970  Cl    0.90043   0.84021   0.16960   0.00000  Uiso   1.00
Cl971  Cl    0.59957   0.65978   0.83041   0.00000  Uiso   1.00
Cl972  Cl    0.65978   0.59957   0.83041   0.00000  Uiso   1.00
I973   I     0.91836   0.66746   0.44887   0.00000  Uiso   1.00
I974   I     0.66835   0.58254   0.05113   0.00000  Uiso   1.00
I975   I     0.58254   0.66835   0.94887   0.00000  Uiso   1.00
I976   I     0.91746   0.83165   0.05113   0.00000  Uiso   1.00
I977   I     0.66835   0.58254   0.94887   0.00000  Uiso   1.00
I978   I     0.83165   0.91746   0.05113   0.00000  Uiso   1.00
I979   I     0.91746   0.83165   0.94887   0.00000  Uiso   1.00
I980   I     0.58254   0.66835   0.05113   0.00000  Uiso   1.00
I981   I     0.50370   0.83288   0.38909   0.00000  Uiso   1.00
I982   I     0.99630   0.66712   0.61092   0.00000  Uiso   1.00
I983   I     0.66712   0.99630   0.38908   0.00000  Uiso   1.00
I984   I     0.58165   0.83254   0.55113   0.00000  Uiso   1.00
I985   I     0.83288   0.50370   0.61092   0.00000  Uiso   1.00
I986   I     0.99630   0.66712   0.38908   0.00000  Uiso   1.00
I987   I     0.50370   0.83288   0.61092   0.00000  Uiso   1.00
I988   I     0.83288   0.50370   0.38908   0.00000  Uiso   1.00
I989   I     0.66712   0.99630   0.61092   0.00000  Uiso   1.00
I990   I     0.74630   0.58288   0.88909   0.00000  Uiso   1.00
I991   I     0.75370   0.91712   0.11092   0.00000  Uiso   1.00
I992   I     0.91712   0.75370   0.88909   0.00000  Uiso   1.00
I993   I     0.58288   0.74630   0.11092   0.00000  Uiso   1.00
I994   I     0.75370   0.91712   0.88909   0.00000  Uiso   1.00
I995   I     0.83254   0.58164   0.44887   0.00000  Uiso   1.00
I996   I     0.74630   0.58288   0.11092   0.00000  Uiso   1.00
I997   I     0.58288   0.74630   0.88908   0.00000  Uiso   1.00
I998   I     0.91712   0.75370   0.11091   0.00000  Uiso   1.00
I999   I     0.66746   0.91836   0.55113   0.00000  Uiso   1.00
I1000  I     0.58164   0.83254   0.44887   0.00000  Uiso   1.00
I1001  I     0.91836   0.66746   0.55113   0.00000  Uiso   1.00
I1002  I     0.66746   0.91836   0.44887   0.00000  Uiso   1.00
I1003  I     0.83254   0.58164   0.55113   0.00000  Uiso   1.00
I1004  I     0.83165   0.91746   0.94887   0.00000  Uiso   1.00
O1005  O     0.75000   0.50000   0.25000   0.00000  Uiso   1.00
O1006  O     0.75000   0.96963   0.66245   0.00000  Uiso   1.00
O1007  O     0.96964   0.75000   0.33755   0.00000  Uiso   1.00
O1008  O     0.53037   0.75000   0.66245   0.00000  Uiso   1.00
O1009  O     0.50000   0.71964   0.83755   0.00000  Uiso   1.00
O1010  O     0.50000   0.78036   0.16245   0.00000  Uiso   1.00
O1011  O     0.78037   0.50000   0.83755   0.00000  Uiso   1.00
O1012  O     0.71964   0.50000   0.16245   0.00000  Uiso   1.00
O1013  O     0.50000   0.78036   0.83755   0.00000  Uiso   1.00
O1014  O     0.50000   0.71963   0.16245   0.00000  Uiso   1.00
O1015  O     0.71964   0.50000   0.83755   0.00000  Uiso   1.00
O1016  O     0.75000   0.50000   0.75000   0.00000  Uiso   1.00
O1017  O     0.78037   0.50000   0.16245   0.00000  Uiso   1.00
O1018  O     0.70725   0.57308   0.27302   0.00000  Uiso   1.00
O1019  O     0.79276   0.92693   0.72698   0.00000  Uiso   1.00
O1020  O     0.92693   0.70725   0.27302   0.00000  Uiso   1.00
O1021  O     0.57308   0.79275   0.72698   0.00000  Uiso   1.00
O1022  O     0.79276   0.92693   0.27302   0.00000  Uiso   1.00
O1023  O     0.70725   0.57308   0.72698   0.00000  Uiso   1.00
O1024  O     0.57308   0.79275   0.27302   0.00000  Uiso   1.00
O1025  O     0.92693   0.70725   0.72698   0.00000  Uiso   1.00
O1026  O     0.70725   0.92692   0.72698   0.00000  Uiso   1.00
O1027  O     0.50000   0.75000   0.25000   0.00000  Uiso   1.00
O1028  O     0.79276   0.57308   0.27302   0.00000  Uiso   1.00
O1029  O     0.92693   0.79276   0.72698   0.00000  Uiso   1.00
O1030  O     0.57308   0.70724   0.27302   0.00000  Uiso   1.00
O1031  O     0.79276   0.57308   0.72698   0.00000  Uiso   1.00
O1032  O     0.70725   0.92692   0.27302   0.00000  Uiso   1.00
O1033  O     0.57308   0.70724   0.72698   0.00000  Uiso   1.00
O1034  O     0.92693   0.79276   0.27302   0.00000  Uiso   1.00
O1035  O     0.95725   0.82308   0.77302   0.00000  Uiso   1.00
O1036  O     0.54276   0.67692   0.22698   0.00000  Uiso   1.00
O1037  O     0.67693   0.95724   0.77302   0.00000  Uiso   1.00
O1038  O     0.50000   0.75000   0.75000   0.00000  Uiso   1.00
O1039  O     0.82308   0.54276   0.22698   0.00000  Uiso   1.00
O1040  O     0.54276   0.67692   0.77302   0.00000  Uiso   1.00
O1041  O     0.95725   0.82308   0.22698   0.00000  Uiso   1.00
O1042  O     0.82308   0.54276   0.77302   0.00000  Uiso   1.00
O1043  O     0.67693   0.95724   0.22698   0.00000  Uiso   1.00
O1044  O     0.95725   0.67693   0.22698   0.00000  Uiso   1.00
O1045  O     0.54276   0.82307   0.77302   0.00000  Uiso   1.00
O1046  O     0.67693   0.54276   0.22698   0.00000  Uiso   1.00
O1047  O     0.82308   0.95725   0.77302   0.00000  Uiso   1.00
O1048  O     0.54276   0.82307   0.22698   0.00000  Uiso   1.00
O1049  O     0.75000   0.96963   0.33755   0.00000  Uiso   1.00
O1050  O     0.95725   0.67693   0.77302   0.00000  Uiso   1.00
O1051  O     0.82308   0.95725   0.22698   0.00000  Uiso   1.00
O1052  O     0.67693   0.54276   0.77302   0.00000  Uiso   1.00
O1053  O     0.75000   0.53037   0.66245   0.00000  Uiso   1.00
O1054  O     0.53037   0.75000   0.33755   0.00000  Uiso   1.00
O1055  O     0.96964   0.75000   0.66245   0.00000  Uiso   1.00
O1056  O     0.75000   0.53037   0.33755   0.00000  Uiso   1.00
Zn1057 Zn    0.70660   0.50000   0.21735   0.00000  Uiso   1.00
Zn1058 Zn    0.54341   0.75000   0.28265   0.00000  Uiso   1.00
Zn1059 Zn    0.75000   0.95659   0.71735   0.00000  Uiso   1.00
Zn1060 Zn    0.75000   0.54341   0.28265   0.00000  Uiso   1.00
Zn1061 Zn    0.54341   0.75000   0.71735   0.00000  Uiso   1.00
Zn1062 Zn    0.95660   0.75000   0.28265   0.00000  Uiso   1.00
Zn1063 Zn    0.75000   0.54341   0.71735   0.00000  Uiso   1.00
Zn1064 Zn    0.75000   0.95659   0.28265   0.00000  Uiso   1.00
Zn1065 Zn    0.79341   0.50000   0.78265   0.00000  Uiso   1.00
Zn1066 Zn    0.50000   0.70659   0.21735   0.00000  Uiso   1.00
Zn1067 Zn    0.50000   0.79340   0.78265   0.00000  Uiso   1.00
Zn1068 Zn    0.79341   0.50000   0.21735   0.00000  Uiso   1.00
Zn1069 Zn    0.70660   0.50000   0.78265   0.00000  Uiso   1.00
Zn1070 Zn    0.50000   0.79340   0.21735   0.00000  Uiso   1.00
Zn1071 Zn    0.50000   0.70659   0.78265   0.00000  Uiso   1.00
Zn1072 Zn    0.95660   0.75000   0.71735   0.00000  Uiso   1.00
loop_
_geom_bond_atom_site_label_1
_geom_bond_atom_site_label_2
_geom_bond_distance
_geom_bond_site_symmetry_2
_ccdc_geom_bond_type
C1     I177    2.145   .     S
C1     C4      1.408   .     A
C1     C46     1.400   .     A
C2     I187    2.145   .     S
C2     C14     1.408   .     A
C2     C588    1.400   .     S
C3     C115    1.408   .     A
C3     C58     1.416   .     A
C3     C574    1.417   .     S
C4     C59     1.416   .     A
C4     C34     1.417   .     A
C5     C304    1.417   .     A
C5     C49     1.408   .     A
C5     C61     1.416   .     A
C6     C60     1.408   .     A
C6     C62     1.416   .     A
C6     C573    1.417   .     S
C7     C71     1.408   .     A
C7     C38     1.417   .     A
C7     C63     1.416   .     A
C8     C575    1.417   .     A
C8     C35     1.408   .     A
C8     C64     1.416   .     A
C9     C43     1.408   .     A
C9     C65     1.416   .     A
C9     C40     1.417   .     S
C10    C41     1.417   .     A
C10    C66     1.416   .     A
C10    C44     1.408   .     A
C11    C67     1.416   .     A
C11    C45     1.408   .     A
C11    C310    1.417   .     S
C12    C68     1.416   .     A
C12    C126    1.408   .     A
C12    C39     1.417   .     S
C13    I188    2.145   .     S
C13    C15     1.408   .     A
C13    C321    1.400   .     S
C14    C576    1.417   .     A
C14    C69     1.416   .     A
C15    C70     1.416   .     A
C15    C309    1.417   .     S
C16    C72     1.416   .     A
C16    C24     1.408   .     A
C16    C42     1.417   .     A
C17    C88     1.455   .     S
C17    C118    1.408   .     A
C17    C116    1.408   .     A
C18    C114    1.408   .     A
C18    C89     1.455   .     S
C18    C117    1.408   .     A
C19    C120    1.408   .     A
C19    C113    1.408   .     A
C19    C81     1.455   .     S
C20    C112    1.408   .     A
C20    C83     1.455   .     S
C20    C119    1.408   .     A
C21    C122    1.408   .     A
C21    C111    1.408   .     A
C21    C84     1.455   .     S
C22    C85     1.455   .     S
C22    C110    1.408   .     A
C22    C121    1.408   .     A
C23    C86     1.455   .     S
C23    C109    1.408   .     A
C23    C124    1.408   .     A
C24    I189    2.145   .     S
C24    C54     1.400   .     A
C25    C108    1.408   .     A
C25    C123    1.408   .     A
C25    C87     1.455   .     S
C26    C127    1.408   .     A
C26    C107    1.408   .     A
C26    C97     1.455   .     S
C27    C98     1.455   .     S
C27    C106    1.408   .     A
C27    C125    1.408   .     A
C28    C129    1.408   .     A
C28    C105    1.408   .     A
C28    C90     1.455   .     S
C29    C103    1.408   .     A
C29    C128    1.408   .     A
C29    C91     1.455   .     S
C30    C131    1.408   .     A
C30    C92     1.455   .     S
C30    C102    1.408   .     A
C31    C130    1.408   .     A
C31    C94     1.455   .     S
C31    C101    1.408   .     A
C32    C133    1.408   .     A
C32    C100    1.408   .     A
C32    C95     1.455   .     S
C33    C99     1.408   .     A
C33    C132    1.408   .     A
C33    C96     1.455   .     S
C34    C36     1.402   .     S
C34    C402    1.417   1_455 S
C35    I190    2.145   .     S
C35    C587    1.400   .     S
C36    C273    1.417   1_455 A
C36    C135    1.417   .     S
C37    C38     1.402   .     A
C37    C136    1.417   .     A
C37    C542    1.417   1_545 S
C38    C539    1.417   1_545 S
C39    C544    1.417   1_545 A
C39    C40     1.402   1_556 S
C40    C550    1.417   1_545 A
C40    C39     1.402   1_554 S
C41    C283    1.417   1_455 S
C41    C42     1.402   1_556 S
C42    C279    1.417   1_455 S
C42    C41     1.402   1_554 S
C43    C52     1.400   .     A
C43    I192    2.145   .     S
C44    I193    2.145   .     S
C44    C53     1.400   .     A
C45    I194    2.145   .     S
C45    C322    1.400   .     S
C46    C75     1.452   .     S
C46    C350    1.400   1_455 S
C47    C76     1.452   .     S
C47    C93     1.400   .     A
C47    C317    1.400   1_455 S
C48    C104    1.400   .     A
C48    C73     1.452   .     S
C48    C596    1.400   1_545 S
C49    I178    2.145   .     S
C49    C315    1.400   .     S
C50    C74     1.452   .     S
C50    C651    1.400   1_545 A
C50    C71     1.400   .     S
C51    C79     1.452   .     S
C51    C126    1.400   .     A
C51    C571    1.400   1_545 S
C52    C80     1.452   .     S
C52    C538    1.400   1_545 S
C53    C281    1.400   1_455 S
C53    C77     1.452   .     S
C54    C78     1.452   .     S
C54    C313    1.400   1_455 S
C55    I169    2.152   .     S
C55    C134    1.416   .     A
C55    C61     1.413   .     A
C56    C135    1.416   .     A
C56    I180    2.152   .     S
C56    C59     1.413   .     A
C57    I191    2.152   .     S
C57    C136    1.416   .     A
C57    C63     1.413   .     A
C58    C62     1.413   .     A
C58    I195    2.152   .     S
C59    I196    2.152   .     S
C60    I179    2.145   .     S
C60    C584    1.400   .     S
C61    I197    2.152   .     S
C62    I198    2.153   .     S
C63    I199    2.152   .     S
C64    I200    2.152   .     S
C64    C69     1.413   1_556 S
C65    I170    2.152   .     S
C65    C68     1.413   1_554 S
C66    I171    2.152   .     S
C66    C72     1.413   1_556 S
C67    I172    2.152   .     S
C67    C70     1.413   1_554 S
C68    I173    2.152   .     S
C68    C65     1.413   1_556 S
C69    I174    2.152   .     S
C69    C64     1.413   1_554 S
C70    I175    2.152   .     S
C70    C67     1.413   1_556 S
C71    I181    2.145   .     S
C72    I176    2.152   .     S
C72    C66     1.413   1_554 S
C73    O252    1.278   .     A
C73    O781    1.278   1_545 S
C74    O738    1.278   1_545 A
C74    O249    1.278   .     S
C75    O250    1.278   .     A
C75    O471    1.278   1_455 S
C76    O204    1.278   .     A
C76    O519    1.278   1_455 S
C77    O205    1.278   .     A
C77    O209    1.278   .     S
C78    O210    1.278   .     A
C78    O206    1.278   .     A
C79    O211    1.278   .     A
C79    O207    1.278   .     A
C80    O213    1.278   .     A
C80    O208    1.278   .     A
C81    O242    1.278   .     A
C81    O214    1.279   .     A
C82    C134    1.408   .     A
C82    I182    2.145   .     S
C82    C314    1.400   .     S
C83    O243    1.278   .     A
C83    O215    1.279   .     A
C84    O240    1.279   .     A
C84    O216    1.278   .     A
C85    O217    1.278   .     A
C85    O241    1.279   .     A
C86    O247    1.278   .     A
C86    O218    1.279   .     A
C87    O248    1.278   .     A
C87    O219    1.279   .     A
C88    O220    1.278   .     A
C88    O244    1.279   .     A
C89    O246    1.279   .     A
C89    O221    1.278   .     A
C90    O222    1.278   .     A
C90    O233    1.279   .     A
C91    O235    1.279   .     A
C91    O224    1.278   .     A
C92    O231    1.278   .     A
C92    O225    1.279   .     A
C93    C135    1.408   .     A
C93    I183    2.145   .     S
C94    O232    1.278   .     A
C94    O226    1.279   .     A
C95    O227    1.278   .     A
C95    O238    1.279   .     A
C96    O228    1.278   .     A
C96    O239    1.279   .     A
C97    O229    1.279   .     A
C97    O236    1.278   .     A
C98    O237    1.278   .     A
C98    O230    1.279   .     A
C99    C116    1.397   .     A
C99    Cl137   1.771   .     S
C100   Cl148   1.771   .     S
C100   C114    1.397   .     A
C101   C113    1.396   .     A
C101   Cl159   1.770   .     S
C102   C112    1.396   .     A
C102   Cl163   1.770   .     S
C103   C111    1.397   .     A
C103   Cl164   1.771   .     S
C104   I184    2.145   .     S
C104   C136    1.408   .     A
C105   C110    1.397   .     A
C105   Cl165   1.771   .     S
C106   Cl166   1.770   .     S
C106   C109    1.396   .     A
C107   C108    1.396   .     A
C107   Cl167   1.770   .     S
C108   Cl168   1.770   .     S
C109   Cl138   1.770   .     S
C110   Cl139   1.771   .     S
C111   Cl140   1.771   .     S
C112   Cl141   1.770   .     S
C113   Cl142   1.770   .     S
C114   Cl143   1.771   .     S
C115   I185    2.145   .     S
C115   C586    1.400   .     A
C116   Cl144   1.771   .     S
C117   C133    1.396   .     A
C117   Cl145   1.770   .     S
C118   Cl146   1.770   .     S
C118   C132    1.396   .     A
C119   Cl147   1.771   .     S
C119   C131    1.397   .     A
C120   C130    1.397   .     A
C120   Cl149   1.771   .     S
C121   Cl150   1.770   .     S
C121   C129    1.396   .     A
C122   Cl151   1.770   .     S
C122   C128    1.396   .     A
C123   C127    1.397   .     A
C123   Cl152   1.771   .     S
C124   Cl153   1.771   .     S
C124   C125    1.397   .     A
C125   Cl154   1.771   .     S
C126   I186    2.145   .     S
C127   Cl155   1.771   .     S
C128   Cl156   1.770   .     S
C129   Cl157   1.770   .     S
C130   Cl158   1.771   .     S
C131   Cl160   1.771   .     S
C132   Cl161   1.770   .     S
C133   Cl162   1.770   .     S
C134   C302    1.417   .     S
O201   Zn264   1.945   .     S
O201   Zn256   1.945   .     S
O201   Zn253   1.945   .     S
O201   Zn796   1.945   1_545 S
O202   Zn255   1.940   .     S
O202   C610    1.278   .     A
O203   Zn258   1.940   .     S
O203   C343    1.278   .     S
O204   Zn257   1.940   .     S
O205   Zn267   1.940   .     S
O206   Zn266   1.940   .     S
O207   Zn261   1.940   .     S
O208   Zn253   1.940   .     S
O209   Zn263   1.940   .     S
O210   Zn262   1.940   .     S
O211   Zn265   1.940   .     S
O212   Zn261   1.945   .     S
O212   Zn265   1.945   .     S
O212   Zn259   1.945   .     S
O212   Zn791   1.945   1_545 S
O213   Zn264   1.940   .     S
O214   Zn256   1.937   .     S
O215   Zn255   1.937   .     S
O216   Zn258   1.937   .     S
O217   Zn257   1.937   .     S
O218   Zn260   1.937   .     S
O219   Zn259   1.937   .     S
O220   Zn254   1.937   .     S
O221   Zn268   1.937   .     S
O222   Zn255   1.937   .     S
O223   Zn526   1.945   1_455 S
O223   Zn254   1.945   .     S
O223   Zn262   1.945   .     S
O223   Zn266   1.945   .     S
O224   Zn256   1.937   .     S
O225   Zn268   1.937   .     S
O226   Zn254   1.937   .     S
O227   Zn259   1.937   .     S
O228   Zn260   1.937   .     S
O229   Zn257   1.937   .     S
O230   Zn258   1.937   .     S
O231   Zn531   1.937   .     S
O232   Zn262   1.937   .     S
O233   Zn801   1.937   .     S
O234   Zn257   1.945   .     S
O234   Zn263   1.945   .     S
O234   Zn267   1.945   .     S
O234   Zn536   1.945   1_455 S
O235   Zn264   1.937   .     S
O236   Zn267   1.937   .     S
O237   Zn534   1.937   .     S
O238   Zn261   1.937   .     S
O239   Zn789   1.937   .     S
O240   Zn530   1.937   .     S
O241   Zn263   1.937   .     S
O242   Zn253   1.937   .     S
O243   Zn797   1.937   .     S
O244   Zn266   1.937   .     S
O245   Zn260   1.940   .     S
O245   C609    1.278   .     S
O246   Zn535   1.937   .     S
O247   Zn800   1.937   .     S
O248   Zn265   1.937   .     S
O249   Zn259   1.940   .     S
O250   Zn254   1.940   .     S
O251   Zn268   1.940   .     S
O251   C344    1.278   .     S
O252   Zn256   1.940   .     S
Zn253  O775    1.937   1_545 S
Zn255  O748    1.945   .     S
Zn258  O491    1.945   .     S
Zn260  O737    1.945   .     S
Zn261  O779    1.937   1_545 S
Zn262  O508    1.937   1_455 S
Zn263  O499    1.937   1_455 S
Zn264  O783    1.937   1_545 S
Zn265  O769    1.937   1_545 S
Zn266  O505    1.937   1_455 S
Zn267  O514    1.937   1_455 S
Zn268  O502    1.945   .     S
C269   I445    2.145   .     S
C269   C272    1.408   .     A
C269   C314    1.400   .     A
C270   I455    2.145   .     S
C270   C282    1.408   .     A
C270   C856    1.400   .     S
C271   C383    1.408   .     A
C271   C326    1.416   .     A
C271   C842    1.417   .     S
C272   C327    1.416   .     A
C272   C302    1.417   .     A
C273   C36     1.417   1_655 A
C273   C317    1.408   .     A
C273   C329    1.416   .     A
C274   C328    1.408   .     A
C274   C330    1.416   .     A
C274   C841    1.417   .     S
C275   C339    1.408   .     A
C275   C306    1.417   .     A
C275   C331    1.416   .     A
C276   C843    1.417   .     A
C276   C303    1.408   .     A
C276   C332    1.416   .     A
C277   C311    1.408   .     A
C277   C333    1.416   .     A
C277   C308    1.417   .     S
C278   C309    1.417   .     A
C278   C334    1.416   .     A
C278   C312    1.408   .     A
C279   C335    1.416   .     A
C279   C313    1.408   .     A
C279   C42     1.417   1_655 S
C280   C336    1.416   .     A
C280   C394    1.408   .     A
C280   C307    1.417   .     S
C281   I456    2.145   .     S
C281   C283    1.408   .     A
C281   C53     1.400   1_655 S
C282   C844    1.417   .     A
C282   C337    1.416   .     A
C283   C338    1.416   .     A
C283   C41     1.417   1_655 S
C284   C340    1.416   .     A
C284   C292    1.408   .     A
C284   C310    1.417   .     A
C285   C356    1.455   .     S
C285   C386    1.408   .     A
C285   C384    1.408   .     A
C286   C382    1.408   .     A
C286   C357    1.455   .     S
C286   C385    1.408   .     A
C287   C388    1.408   .     A
C287   C381    1.408   .     A
C287   C349    1.455   .     S
C288   C380    1.408   .     A
C288   C351    1.455   .     S
C288   C387    1.408   .     A
C289   C390    1.408   .     A
C289   C379    1.408   .     A
C289   C352    1.455   .     S
C290   C353    1.455   .     S
C290   C378    1.408   .     A
C290   C389    1.408   .     A
C291   C354    1.455   .     S
C291   C377    1.408   .     A
C291   C392    1.408   .     A
C292   I457    2.145   .     S
C292   C322    1.400   .     A
C293   C376    1.408   .     A
C293   C391    1.408   .     A
C293   C355    1.455   .     S
C294   C395    1.408   .     A
C294   C375    1.408   .     A
C294   C365    1.455   .     S
C295   C366    1.455   .     S
C295   C374    1.408   .     A
C295   C393    1.408   .     A
C296   C397    1.408   .     A
C296   C373    1.408   .     A
C296   C358    1.455   .     S
C297   C371    1.408   .     A
C297   C396    1.408   .     A
C297   C359    1.455   .     S
C298   C399    1.408   .     A
C298   C360    1.455   .     S
C298   C370    1.408   .     A
C299   C398    1.408   .     A
C299   C362    1.455   .     S
C299   C369    1.408   .     A
C300   C401    1.408   .     A
C300   C368    1.408   .     A
C300   C363    1.455   .     S
C301   C367    1.408   .     A
C301   C400    1.408   .     A
C301   C364    1.455   .     S
C302   C304    1.402   .     S
C303   I458    2.145   .     S
C303   C855    1.400   .     S
C304   C403    1.417   .     S
C305   C306    1.402   .     A
C305   C404    1.417   .     A
C305   C810    1.417   1_545 S
C306   C807    1.417   1_545 S
C307   C812    1.417   1_545 A
C307   C308    1.402   1_556 S
C308   C818    1.417   1_545 A
C308   C307    1.402   1_554 S
C309   C310    1.402   1_556 S
C310   C309    1.402   1_554 S
C311   C320    1.400   .     A
C311   I460    2.145   .     S
C312   I461    2.145   .     S
C312   C321    1.400   .     A
C313   I462    2.145   .     S
C313   C54     1.400   1_655 S
C314   C343    1.452   .     S
C315   C344    1.452   .     S
C315   C361    1.400   .     A
C316   C372    1.400   .     A
C316   C341    1.452   .     S
C316   C864    1.400   1_545 S
C317   I446    2.145   .     S
C317   C47     1.400   1_655 S
C318   C342    1.452   .     S
C318   C919    1.400   1_545 A
C318   C339    1.400   .     S
C319   C347    1.452   .     S
C319   C394    1.400   .     A
C319   C839    1.400   1_545 S
C320   C348    1.452   .     S
C320   C806    1.400   1_545 S
C321   C345    1.452   .     S
C322   C346    1.452   .     S
C323   I437    2.152   .     S
C323   C402    1.416   .     A
C323   C329    1.413   .     A
C324   C403    1.416   .     A
C324   I448    2.152   .     S
C324   C327    1.413   .     A
C325   I459    2.152   .     S
C325   C404    1.416   .     A
C325   C331    1.413   .     A
C326   C330    1.413   .     A
C326   I463    2.152   .     S
C327   I464    2.152   .     S
C328   I447    2.145   .     S
C328   C852    1.400   .     S
C329   I465    2.152   .     S
C330   I466    2.153   .     S
C331   I467    2.152   .     S
C332   I468    2.152   .     S
C332   C337    1.413   1_556 S
C333   I438    2.152   .     S
C333   C336    1.413   1_554 S
C334   I439    2.152   .     S
C334   C340    1.413   1_556 S
C335   I440    2.152   .     S
C335   C338    1.413   1_554 S
C336   I441    2.152   .     S
C336   C333    1.413   1_556 S
C337   I442    2.152   .     S
C337   C332    1.413   1_554 S
C338   I443    2.152   .     S
C338   C335    1.413   1_556 S
C339   I449    2.145   .     S
C340   I444    2.152   .     S
C340   C334    1.413   1_554 S
C341   O520    1.278   .     A
C341   O1049   1.278   1_545 S
C342   O1006   1.278   1_545 A
C342   O517    1.278   .     S
C343   O518    1.278   .     A
C344   O472    1.278   .     A
C345   O473    1.278   .     A
C345   O477    1.278   .     S
C346   O478    1.278   .     A
C346   O474    1.278   .     A
C347   O479    1.278   .     A
C347   O475    1.278   .     A
C348   O481    1.278   .     A
C348   O476    1.278   .     A
C349   O510    1.278   .     A
C349   O482    1.279   .     A
C350   C402    1.408   .     A
C350   I450    2.145   .     S
C350   C46     1.400   1_655 S
C351   O511    1.278   .     A
C351   O483    1.279   .     A
C352   O508    1.279   .     A
C352   O484    1.278   .     A
C353   O485    1.278   .     A
C353   O509    1.279   .     A
C354   O515    1.278   .     A
C354   O486    1.279   .     A
C355   O516    1.278   .     A
C355   O487    1.279   .     A
C356   O488    1.278   .     A
C356   O512    1.279   .     A
C357   O514    1.279   .     A
C357   O489    1.278   .     A
C358   O490    1.278   .     A
C358   O501    1.279   .     A
C359   O503    1.279   .     A
C359   O492    1.278   .     A
C360   O499    1.278   .     A
C360   O493    1.279   .     A
C361   C403    1.408   .     A
C361   I451    2.145   .     S
C362   O500    1.278   .     A
C362   O494    1.279   .     A
C363   O495    1.278   .     A
C363   O506    1.279   .     A
C364   O496    1.278   .     A
C364   O507    1.279   .     A
C365   O497    1.279   .     A
C365   O504    1.278   .     A
C366   O505    1.278   .     A
C366   O498    1.279   .     A
C367   C384    1.397   .     A
C367   Cl405   1.771   .     S
C368   Cl416   1.771   .     S
C368   C382    1.397   .     A
C369   C381    1.396   .     A
C369   Cl427   1.770   .     S
C370   C380    1.396   .     A
C370   Cl431   1.770   .     S
C371   C379    1.397   .     A
C371   Cl432   1.771   .     S
C372   I452    2.145   .     S
C372   C404    1.408   .     A
C373   C378    1.397   .     A
C373   Cl433   1.771   .     S
C374   Cl434   1.770   .     S
C374   C377    1.396   .     A
C375   C376    1.396   .     A
C375   Cl435   1.770   .     S
C376   Cl436   1.770   .     S
C377   Cl406   1.770   .     S
C378   Cl407   1.771   .     S
C379   Cl408   1.771   .     S
C380   Cl409   1.770   .     S
C381   Cl410   1.770   .     S
C382   Cl411   1.771   .     S
C383   I453    2.145   .     S
C383   C854    1.400   .     A
C384   Cl412   1.771   .     S
C385   C401    1.396   .     A
C385   Cl413   1.770   .     S
C386   Cl414   1.770   .     S
C386   C400    1.396   .     A
C387   Cl415   1.771   .     S
C387   C399    1.397   .     A
C388   C398    1.397   .     A
C388   Cl417   1.771   .     S
C389   Cl418   1.770   .     S
C389   C397    1.396   .     A
C390   Cl419   1.770   .     S
C390   C396    1.396   .     A
C391   C395    1.397   .     A
C391   Cl420   1.771   .     S
C392   Cl421   1.771   .     S
C392   C393    1.397   .     A
C393   Cl422   1.771   .     S
C394   I454    2.145   .     S
C395   Cl423   1.771   .     S
C396   Cl424   1.770   .     S
C397   Cl425   1.770   .     S
C398   Cl426   1.771   .     S
C399   Cl428   1.771   .     S
C400   Cl429   1.770   .     S
C401   Cl430   1.770   .     S
C402   C34     1.417   1_655 S
O469   Zn532   1.945   .     S
O469   Zn524   1.945   .     S
O469   Zn521   1.945   .     S
O469   Zn1064  1.945   1_545 S
O470   Zn523   1.940   .     S
O470   C878    1.278   .     A
O471   Zn526   1.940   .     S
O471   C75     1.278   1_655 S
O472   Zn525   1.940   .     S
O473   Zn535   1.940   .     S
O474   Zn534   1.940   .     S
O475   Zn529   1.940   .     S
O476   Zn521   1.940   .     S
O477   Zn531   1.940   .     S
O478   Zn530   1.940   .     S
O479   Zn533   1.940   .     S
O480   Zn529   1.945   .     S
O480   Zn533   1.945   .     S
O480   Zn527   1.945   .     S
O480   Zn1059  1.945   1_545 S
O481   Zn532   1.940   .     S
O482   Zn524   1.937   .     S
O483   Zn523   1.937   .     S
O484   Zn526   1.937   .     S
O485   Zn525   1.937   .     S
O486   Zn528   1.937   .     S
O487   Zn527   1.937   .     S
O488   Zn522   1.937   .     S
O489   Zn536   1.937   .     S
O490   Zn523   1.937   .     S
O491   Zn522   1.945   .     S
O491   Zn530   1.945   .     S
O491   Zn534   1.945   .     S
O492   Zn524   1.937   .     S
O493   Zn536   1.937   .     S
O494   Zn522   1.937   .     S
O495   Zn527   1.937   .     S
O496   Zn528   1.937   .     S
O497   Zn525   1.937   .     S
O498   Zn526   1.937   .     S
O499   Zn263   1.937   1_655 S
O500   Zn530   1.937   .     S
O501   Zn1069  1.937   .     S
O502   Zn525   1.945   .     S
O502   Zn531   1.945   .     S
O502   Zn535   1.945   .     S
O503   Zn532   1.937   .     S
O504   Zn535   1.937   .     S
O505   Zn266   1.937   1_655 S
O506   Zn529   1.937   .     S
O507   Zn1057  1.937   .     S
O508   Zn262   1.937   1_655 S
O509   Zn531   1.937   .     S
O510   Zn521   1.937   .     S
O511   Zn1065  1.937   .     S
O512   Zn534   1.937   .     S
O513   Zn528   1.940   .     S
O513   C877    1.278   .     S
O514   Zn267   1.937   1_655 S
O515   Zn1068  1.937   .     S
O516   Zn533   1.937   .     S
O517   Zn527   1.940   .     S
O518   Zn522   1.940   .     S
O519   Zn536   1.940   .     S
O519   C76     1.278   1_655 S
O520   Zn524   1.940   .     S
Zn521  O1043   1.937   1_545 S
Zn523  O1016   1.945   .     S
Zn526  O223    1.945   1_655 S
Zn528  O1005   1.945   .     S
Zn529  O1047   1.937   1_545 S
Zn532  O1051   1.937   1_545 S
Zn533  O1037   1.937   1_545 S
Zn536  O234    1.945   1_655 S
C537   I713    2.145   .     S
C537   C540    1.408   .     A
C537   C582    1.400   .     A
C538   I723    2.145   .     S
C538   C550    1.408   .     A
C538   C52     1.400   1_565 S
C539   C651    1.408   .     A
C539   C594    1.416   .     A
C539   C38     1.417   1_565 S
C540   C595    1.416   .     A
C540   C570    1.417   .     A
C541   C840    1.417   .     A
C541   C585    1.408   .     A
C541   C597    1.416   .     A
C542   C596    1.408   .     A
C542   C598    1.416   .     A
C542   C37     1.417   1_565 S
C543   C607    1.408   .     A
C543   C574    1.417   .     A
C543   C599    1.416   .     A
C544   C39     1.417   1_565 A
C544   C571    1.408   .     A
C544   C600    1.416   .     A
C545   C579    1.408   .     A
C545   C601    1.416   .     A
C545   C576    1.417   .     S
C546   C577    1.417   .     A
C546   C602    1.416   .     A
C546   C580    1.408   .     A
C547   C603    1.416   .     A
C547   C581    1.408   .     A
C547   C846    1.417   .     S
C548   C604    1.416   .     A
C548   C662    1.408   .     A
C548   C575    1.417   .     S
C549   I724    2.145   .     S
C549   C551    1.408   .     A
C549   C857    1.400   .     S
C550   C40     1.417   1_565 A
C550   C605    1.416   .     A
C551   C606    1.416   .     A
C551   C845    1.417   .     S
C552   C608    1.416   .     A
C552   C560    1.408   .     A
C552   C578    1.417   .     A
C553   C624    1.455   .     S
C553   C654    1.408   .     A
C553   C652    1.408   .     A
C554   C650    1.408   .     A
C554   C625    1.455   .     S
C554   C653    1.408   .     A
C555   C656    1.408   .     A
C555   C649    1.408   .     A
C555   C617    1.455   .     S
C556   C648    1.408   .     A
C556   C619    1.455   .     S
C556   C655    1.408   .     A
C557   C658    1.408   .     A
C557   C647    1.408   .     A
C557   C620    1.455   .     S
C558   C621    1.455   .     S
C558   C646    1.408   .     A
C558   C657    1.408   .     A
C559   C622    1.455   .     S
C559   C645    1.408   .     A
C559   C660    1.408   .     A
C560   I725    2.145   .     S
C560   C590    1.400   .     A
C561   C644    1.408   .     A
C561   C659    1.408   .     A
C561   C623    1.455   .     S
C562   C663    1.408   .     A
C562   C643    1.408   .     A
C562   C633    1.455   .     S
C563   C634    1.455   .     S
C563   C642    1.408   .     A
C563   C661    1.408   .     A
C564   C665    1.408   .     A
C564   C641    1.408   .     A
C564   C626    1.455   .     S
C565   C639    1.408   .     A
C565   C664    1.408   .     A
C565   C627    1.455   .     S
C566   C667    1.408   .     A
C566   C628    1.455   .     S
C566   C638    1.408   .     A
C567   C666    1.408   .     A
C567   C630    1.455   .     S
C567   C637    1.408   .     A
C568   C669    1.408   .     A
C568   C636    1.408   .     A
C568   C631    1.455   .     S
C569   C635    1.408   .     A
C569   C668    1.408   .     A
C569   C632    1.455   .     S
C570   C572    1.402   .     S
C570   C938    1.417   1_455 S
C571   I726    2.145   .     S
C571   C51     1.400   1_565 S
C572   C809    1.417   1_455 A
C572   C671    1.417   .     S
C573   C574    1.402   .     A
C573   C672    1.417   .     A
C575   C576    1.402   1_556 S
C576   C575    1.402   1_554 S
C577   C819    1.417   1_455 S
C577   C578    1.402   1_556 S
C578   C815    1.417   1_455 S
C578   C577    1.402   1_554 S
C579   C588    1.400   .     A
C579   I728    2.145   .     S
C580   I729    2.145   .     S
C580   C589    1.400   .     A
C581   I730    2.145   .     S
C581   C858    1.400   .     S
C582   C611    1.452   .     S
C582   C886    1.400   1_455 S
C583   C612    1.452   .     S
C583   C629    1.400   .     A
C583   C853    1.400   1_455 S
C584   C640    1.400   .     A
C584   C609    1.452   .     S
C585   I714    2.145   .     S
C585   C851    1.400   .     S
C586   C610    1.452   .     S
C586   C607    1.400   .     S
C587   C615    1.452   .     S
C587   C662    1.400   .     A
C588   C616    1.452   .     S
C589   C817    1.400   1_455 S
C589   C613    1.452   .     S
C590   C614    1.452   .     S
C590   C849    1.400   1_455 S
C591   I705    2.152   .     S
C591   C670    1.416   .     A
C591   C597    1.413   .     A
C592   C671    1.416   .     A
C592   I716    2.152   .     S
C592   C595    1.413   .     A
C593   I727    2.152   .     S
C593   C672    1.416   .     A
C593   C599    1.413   .     A
C594   C598    1.413   .     A
C594   I731    2.152   .     S
C595   I732    2.152   .     S
C596   I715    2.145   .     S
C596   C48     1.400   1_565 S
C597   I733    2.152   .     S
C598   I734    2.153   .     S
C599   I735    2.152   .     S
C600   I736    2.152   .     S
C600   C605    1.413   1_556 S
C601   I706    2.152   .     S
C601   C604    1.413   1_554 S
C602   I707    2.152   .     S
C602   C608    1.413   1_556 S
C603   I708    2.152   .     S
C603   C606    1.413   1_554 S
C604   I709    2.152   .     S
C604   C601    1.413   1_556 S
C605   I710    2.152   .     S
C605   C600    1.413   1_554 S
C606   I711    2.152   .     S
C606   C603    1.413   1_556 S
C607   I717    2.145   .     S
C608   I712    2.152   .     S
C608   C602    1.413   1_554 S
C609   O788    1.278   .     A
C610   O785    1.278   .     S
C611   O786    1.278   .     A
C611   O1007   1.278   1_455 S
C612   O740    1.278   .     A
C612   O1055   1.278   1_455 S
C613   O741    1.278   .     A
C613   O745    1.278   .     S
C614   O746    1.278   .     A
C614   O742    1.278   .     A
C615   O747    1.278   .     A
C615   O743    1.278   .     A
C616   O749    1.278   .     A
C616   O744    1.278   .     A
C617   O778    1.278   .     A
C617   O750    1.279   .     A
C618   C670    1.408   .     A
C618   I718    2.145   .     S
C618   C850    1.400   .     S
C619   O779    1.278   .     A
C619   O751    1.279   .     A
C620   O776    1.279   .     A
C620   O752    1.278   .     A
C621   O753    1.278   .     A
C621   O777    1.279   .     A
C622   O783    1.278   .     A
C622   O754    1.279   .     A
C623   O784    1.278   .     A
C623   O755    1.279   .     A
C624   O756    1.278   .     A
C624   O780    1.279   .     A
C625   O782    1.279   .     A
C625   O757    1.278   .     A
C626   O758    1.278   .     A
C626   O769    1.279   .     A
C627   O771    1.279   .     A
C627   O760    1.278   .     A
C628   O767    1.278   .     A
C628   O761    1.279   .     A
C629   C671    1.408   .     A
C629   I719    2.145   .     S
C630   O768    1.278   .     A
C630   O762    1.279   .     A
C631   O763    1.278   .     A
C631   O774    1.279   .     A
C632   O764    1.278   .     A
C632   O775    1.279   .     A
C633   O765    1.279   .     A
C633   O772    1.278   .     A
C634   O773    1.278   .     A
C634   O766    1.279   .     A
C635   C652    1.397   .     A
C635   Cl673   1.771   .     S
C636   Cl684   1.771   .     S
C636   C650    1.397   .     A
C637   C649    1.396   .     A
C637   Cl695   1.770   .     S
C638   C648    1.396   .     A
C638   Cl699   1.770   .     S
C639   C647    1.397   .     A
C639   Cl700   1.771   .     S
C640   I720    2.145   .     S
C640   C672    1.408   .     A
C641   C646    1.397   .     A
C641   Cl701   1.771   .     S
C642   Cl702   1.770   .     S
C642   C645    1.396   .     A
C643   C644    1.396   .     A
C643   Cl703   1.770   .     S
C644   Cl704   1.770   .     S
C645   Cl674   1.770   .     S
C646   Cl675   1.771   .     S
C647   Cl676   1.771   .     S
C648   Cl677   1.770   .     S
C649   Cl678   1.770   .     S
C650   Cl679   1.771   .     S
C651   I721    2.145   .     S
C651   C50     1.400   1_565 A
C652   Cl680   1.771   .     S
C653   C669    1.396   .     A
C653   Cl681   1.770   .     S
C654   Cl682   1.770   .     S
C654   C668    1.396   .     A
C655   Cl683   1.771   .     S
C655   C667    1.397   .     A
C656   C666    1.397   .     A
C656   Cl685   1.771   .     S
C657   Cl686   1.770   .     S
C657   C665    1.396   .     A
C658   Cl687   1.770   .     S
C658   C664    1.396   .     A
C659   C663    1.397   .     A
C659   Cl688   1.771   .     S
C660   Cl689   1.771   .     S
C660   C661    1.397   .     A
C661   Cl690   1.771   .     S
C662   I722    2.145   .     S
C663   Cl691   1.771   .     S
C664   Cl692   1.770   .     S
C665   Cl693   1.770   .     S
C666   Cl694   1.771   .     S
C667   Cl696   1.771   .     S
C668   Cl697   1.770   .     S
C669   Cl698   1.770   .     S
C670   C838    1.417   .     S
O737   Zn800   1.945   .     S
O737   Zn792   1.945   .     S
O737   Zn789   1.945   .     S
O738   Zn791   1.940   .     S
O738   C74     1.278   1_565 A
O739   Zn794   1.940   .     S
O739   C879    1.278   .     S
O740   Zn793   1.940   .     S
O741   Zn803   1.940   .     S
O742   Zn802   1.940   .     S
O743   Zn797   1.940   .     S
O744   Zn789   1.940   .     S
O745   Zn799   1.940   .     S
O746   Zn798   1.940   .     S
O747   Zn801   1.940   .     S
O748   Zn797   1.945   .     S
O748   Zn801   1.945   .     S
O748   Zn795   1.945   .     S
O749   Zn800   1.940   .     S
O750   Zn792   1.937   .     S
O751   Zn791   1.937   .     S
O752   Zn794   1.937   .     S
O753   Zn793   1.937   .     S
O754   Zn796   1.937   .     S
O755   Zn795   1.937   .     S
O756   Zn790   1.937   .     S
O757   Zn804   1.937   .     S
O758   Zn791   1.937   .     S
O759   Zn1062  1.945   1_455 S
O759   Zn790   1.945   .     S
O759   Zn798   1.945   .     S
O759   Zn802   1.945   .     S
O760   Zn792   1.937   .     S
O761   Zn804   1.937   .     S
O762   Zn790   1.937   .     S
O763   Zn795   1.937   .     S
O764   Zn796   1.937   .     S
O765   Zn793   1.937   .     S
O766   Zn794   1.937   .     S
O767   Zn1067  1.937   .     S
O768   Zn798   1.937   .     S
O769   Zn265   1.937   1_565 S
O770   Zn793   1.945   .     S
O770   Zn799   1.945   .     S
O770   Zn803   1.945   .     S
O770   Zn1072  1.945   1_455 S
O771   Zn800   1.937   .     S
O772   Zn803   1.937   .     S
O773   Zn1070  1.937   .     S
O774   Zn797   1.937   .     S
O775   Zn253   1.937   1_565 S
O776   Zn1066  1.937   .     S
O777   Zn799   1.937   .     S
O778   Zn789   1.937   .     S
O779   Zn261   1.937   1_565 S
O780   Zn802   1.937   .     S
O781   Zn796   1.940   .     S
O781   C73     1.278   1_565 S
O782   Zn1071  1.937   .     S
O783   Zn264   1.937   1_565 S
O784   Zn801   1.937   .     S
O785   Zn795   1.940   .     S
O786   Zn790   1.940   .     S
O787   Zn804   1.940   .     S
O787   C880    1.278   .     S
O788   Zn792   1.940   .     S
Zn791  O212    1.945   1_565 S
Zn794  O1027   1.945   .     S
Zn796  O201    1.945   1_565 S
Zn798  O1044   1.937   1_455 S
Zn799  O1035   1.937   1_455 S
Zn802  O1041   1.937   1_455 S
Zn803  O1050   1.937   1_455 S
Zn804  O1038   1.945   .     S
C805   I981    2.145   .     S
C805   C808    1.408   .     A
C805   C850    1.400   .     A
C806   I991    2.145   .     S
C806   C818    1.408   .     A
C806   C320    1.400   1_565 S
C807   C919    1.408   .     A
C807   C862    1.416   .     A
C807   C306    1.417   1_565 S
C808   C863    1.416   .     A
C808   C838    1.417   .     A
C809   C572    1.417   1_655 A
C809   C853    1.408   .     A
C809   C865    1.416   .     A
C810   C864    1.408   .     A
C810   C866    1.416   .     A
C810   C305    1.417   1_565 S
C811   C875    1.408   .     A
C811   C842    1.417   .     A
C811   C867    1.416   .     A
C812   C307    1.417   1_565 A
C812   C839    1.408   .     A
C812   C868    1.416   .     A
C813   C847    1.408   .     A
C813   C869    1.416   .     A
C813   C844    1.417   .     S
C814   C845    1.417   .     A
C814   C870    1.416   .     A
C814   C848    1.408   .     A
C815   C871    1.416   .     A
C815   C849    1.408   .     A
C815   C578    1.417   1_655 S
C816   C872    1.416   .     A
C816   C930    1.408   .     A
C816   C843    1.417   .     S
C817   I992    2.145   .     S
C817   C819    1.408   .     A
C817   C589    1.400   1_655 S
C818   C308    1.417   1_565 A
C818   C873    1.416   .     A
C819   C874    1.416   .     A
C819   C577    1.417   1_655 S
C820   C876    1.416   .     A
C820   C828    1.408   .     A
C820   C846    1.417   .     A
C821   C892    1.455   .     S
C821   C922    1.408   .     A
C821   C920    1.408   .     A
C822   C918    1.408   .     A
C822   C893    1.455   .     S
C822   C921    1.408   .     A
C823   C924    1.408   .     A
C823   C917    1.408   .     A
C823   C885    1.455   .     S
C824   C916    1.408   .     A
C824   C887    1.455   .     S
C824   C923    1.408   .     A
C825   C926    1.408   .     A
C825   C915    1.408   .     A
C825   C888    1.455   .     S
C826   C889    1.455   .     S
C826   C914    1.408   .     A
C826   C925    1.408   .     A
C827   C890    1.455   .     S
C827   C913    1.408   .     A
C827   C928    1.408   .     A
C828   I993    2.145   .     S
C828   C858    1.400   .     A
C829   C912    1.408   .     A
C829   C927    1.408   .     A
C829   C891    1.455   .     S
C830   C931    1.408   .     A
C830   C911    1.408   .     A
C830   C901    1.455   .     S
C831   C902    1.455   .     S
C831   C910    1.408   .     A
C831   C929    1.408   .     A
C832   C933    1.408   .     A
C832   C909    1.408   .     A
C832   C894    1.455   .     S
C833   C907    1.408   .     A
C833   C932    1.408   .     A
C833   C895    1.455   .     S
C834   C935    1.408   .     A
C834   C896    1.455   .     S
C834   C906    1.408   .     A
C835   C934    1.408   .     A
C835   C898    1.455   .     S
C835   C905    1.408   .     A
C836   C937    1.408   .     A
C836   C904    1.408   .     A
C836   C899    1.455   .     S
C837   C903    1.408   .     A
C837   C936    1.408   .     A
C837   C900    1.455   .     S
C838   C840    1.402   .     S
C839   I994    2.145   .     S
C839   C319    1.400   1_565 S
C840   C939    1.417   .     S
C841   C842    1.402   .     A
C841   C940    1.417   .     A
C843   C844    1.402   1_556 S
C844   C843    1.402   1_554 S
C845   C846    1.402   1_556 S
C846   C845    1.402   1_554 S
C847   C856    1.400   .     A
C847   I996    2.145   .     S
C848   I997    2.145   .     S
C848   C857    1.400   .     A
C849   I998    2.145   .     S
C849   C590    1.400   1_655 S
C850   C879    1.452   .     S
C851   C880    1.452   .     S
C851   C897    1.400   .     A
C852   C908    1.400   .     A
C852   C877    1.452   .     S
C853   I982    2.145   .     S
C853   C583    1.400   1_655 S
C854   C878    1.452   .     S
C854   C875    1.400   .     S
C855   C883    1.452   .     S
C855   C930    1.400   .     A
C856   C884    1.452   .     S
C857   C881    1.452   .     S
C858   C882    1.452   .     S
C859   I973    2.152   .     S
C859   C938    1.416   .     A
C859   C865    1.413   .     A
C860   C939    1.416   .     A
C860   I984    2.152   .     S
C860   C863    1.413   .     A
C861   I995    2.152   .     S
C861   C940    1.416   .     A
C861   C867    1.413   .     A
C862   C866    1.413   .     A
C862   I999    2.152   .     S
C863   I1000   2.152   .     S
C864   I983    2.145   .     S
C864   C316    1.400   1_565 S
C865   I1001   2.152   .     S
C866   I1002   2.153   .     S
C867   I1003   2.152   .     S
C868   I1004   2.152   .     S
C868   C873    1.413   1_556 S
C869   I974    2.152   .     S
C869   C872    1.413   1_554 S
C870   I975    2.152   .     S
C870   C876    1.413   1_556 S
C871   I976    2.152   .     S
C871   C874    1.413   1_554 S
C872   I977    2.152   .     S
C872   C869    1.413   1_556 S
C873   I978    2.152   .     S
C873   C868    1.413   1_554 S
C874   I979    2.152   .     S
C874   C871    1.413   1_556 S
C875   I985    2.145   .     S
C876   I980    2.152   .     S
C876   C870    1.413   1_554 S
C877   O1056   1.278   .     A
C878   O1053   1.278   .     S
C879   O1054   1.278   .     A
C880   O1008   1.278   .     A
C881   O1009   1.278   .     A
C881   O1013   1.278   .     S
C882   O1014   1.278   .     A
C882   O1010   1.278   .     A
C883   O1015   1.278   .     A
C883   O1011   1.278   .     A
C884   O1017   1.278   .     A
C884   O1012   1.278   .     A
C885   O1046   1.278   .     A
C885   O1018   1.279   .     A
C886   C938    1.408   .     A
C886   I986    2.145   .     S
C886   C582    1.400   1_655 S
C887   O1047   1.278   .     A
C887   O1019   1.279   .     A
C888   O1044   1.279   .     A
C888   O1020   1.278   .     A
C889   O1021   1.278   .     A
C889   O1045   1.279   .     A
C890   O1051   1.278   .     A
C890   O1022   1.279   .     A
C891   O1052   1.278   .     A
C891   O1023   1.279   .     A
C892   O1024   1.278   .     A
C892   O1048   1.279   .     A
C893   O1050   1.279   .     A
C893   O1025   1.278   .     A
C894   O1026   1.278   .     A
C894   O1037   1.279   .     A
C895   O1039   1.279   .     A
C895   O1028   1.278   .     A
C896   O1035   1.278   .     A
C896   O1029   1.279   .     A
C897   C939    1.408   .     A
C897   I987    2.145   .     S
C898   O1036   1.278   .     A
C898   O1030   1.279   .     A
C899   O1031   1.278   .     A
C899   O1042   1.279   .     A
C900   O1032   1.278   .     A
C900   O1043   1.279   .     A
C901   O1033   1.279   .     A
C901   O1040   1.278   .     A
C902   O1041   1.278   .     A
C902   O1034   1.279   .     A
C903   C920    1.397   .     A
C903   Cl941   1.771   .     S
C904   Cl952   1.771   .     S
C904   C918    1.397   .     A
C905   C917    1.396   .     A
C905   Cl963   1.770   .     S
C906   C916    1.396   .     A
C906   Cl967   1.770   .     S
C907   C915    1.397   .     A
C907   Cl968   1.771   .     S
C908   I988    2.145   .     S
C908   C940    1.408   .     A
C909   C914    1.397   .     A
C909   Cl969   1.771   .     S
C910   Cl970   1.770   .     S
C910   C913    1.396   .     A
C911   C912    1.396   .     A
C911   Cl971   1.770   .     S
C912   Cl972   1.770   .     S
C913   Cl942   1.770   .     S
C914   Cl943   1.771   .     S
C915   Cl944   1.771   .     S
C916   Cl945   1.770   .     S
C917   Cl946   1.770   .     S
C918   Cl947   1.771   .     S
C919   I989    2.145   .     S
C919   C318    1.400   1_565 A
C920   Cl948   1.771   .     S
C921   C937    1.396   .     A
C921   Cl949   1.770   .     S
C922   Cl950   1.770   .     S
C922   C936    1.396   .     A
C923   Cl951   1.771   .     S
C923   C935    1.397   .     A
C924   C934    1.397   .     A
C924   Cl953   1.771   .     S
C925   Cl954   1.770   .     S
C925   C933    1.396   .     A
C926   Cl955   1.770   .     S
C926   C932    1.396   .     A
C927   C931    1.397   .     A
C927   Cl956   1.771   .     S
C928   Cl957   1.771   .     S
C928   C929    1.397   .     A
C929   Cl958   1.771   .     S
C930   I990    2.145   .     S
C931   Cl959   1.771   .     S
C932   Cl960   1.770   .     S
C933   Cl961   1.770   .     S
C934   Cl962   1.771   .     S
C935   Cl964   1.771   .     S
C936   Cl965   1.770   .     S
C937   Cl966   1.770   .     S
C938   C570    1.417   1_655 S
O1005  Zn1068  1.945   .     S
O1005  Zn1060  1.945   .     S
O1005  Zn1057  1.945   .     S
O1006  Zn1059  1.940   .     S
O1006  C342    1.278   1_565 A
O1007  Zn1062  1.940   .     S
O1007  C611    1.278   1_655 S
O1008  Zn1061  1.940   .     S
O1009  Zn1071  1.940   .     S
O1010  Zn1070  1.940   .     S
O1011  Zn1065  1.940   .     S
O1012  Zn1057  1.940   .     S
O1013  Zn1067  1.940   .     S
O1014  Zn1066  1.940   .     S
O1015  Zn1069  1.940   .     S
O1016  Zn1065  1.945   .     S
O1016  Zn1069  1.945   .     S
O1016  Zn1063  1.945   .     S
O1017  Zn1068  1.940   .     S
O1018  Zn1060  1.937   .     S
O1019  Zn1059  1.937   .     S
O1020  Zn1062  1.937   .     S
O1021  Zn1061  1.937   .     S
O1022  Zn1064  1.937   .     S
O1023  Zn1063  1.937   .     S
O1024  Zn1058  1.937   .     S
O1025  Zn1072  1.937   .     S
O1026  Zn1059  1.937   .     S
O1027  Zn1058  1.945   .     S
O1027  Zn1066  1.945   .     S
O1027  Zn1070  1.945   .     S
O1028  Zn1060  1.937   .     S
O1029  Zn1072  1.937   .     S
O1030  Zn1058  1.937   .     S
O1031  Zn1063  1.937   .     S
O1032  Zn1064  1.937   .     S
O1033  Zn1061  1.937   .     S
O1034  Zn1062  1.937   .     S
O1035  Zn799   1.937   1_655 S
O1036  Zn1066  1.937   .     S
O1037  Zn533   1.937   1_565 S
O1038  Zn1061  1.945   .     S
O1038  Zn1067  1.945   .     S
O1038  Zn1071  1.945   .     S
O1039  Zn1068  1.937   .     S
O1040  Zn1071  1.937   .     S
O1041  Zn802   1.937   1_655 S
O1042  Zn1065  1.937   .     S
O1043  Zn521   1.937   1_565 S
O1044  Zn798   1.937   1_655 S
O1045  Zn1067  1.937   .     S
O1046  Zn1057  1.937   .     S
O1047  Zn529   1.937   1_565 S
O1048  Zn1070  1.937   .     S
O1049  Zn1064  1.940   .     S
O1049  C341    1.278   1_565 S
O1050  Zn803   1.937   1_655 S
O1051  Zn532   1.937   1_565 S
O1052  Zn1069  1.937   .     S
O1053  Zn1063  1.940   .     S
O1054  Zn1058  1.940   .     S
O1055  Zn1072  1.940   .     S
O1055  C612    1.278   1_655 S
O1056  Zn1060  1.940   .     S
Zn1059 O480    1.945   1_565 S
Zn1062 O759    1.945   1_655 S
Zn1064 O469    1.945   1_565 S
Zn1072 O770    1.945   1_655 S
