data_str_m2_o10_o17_pcu_sym.21
_audit_creation_date              2020-01-03
_audit_creation_method            'Materials Studio'
_symmetry_space_group_name_H-M    'P1'
_symmetry_Int_Tables_number       1
_symmetry_cell_setting            triclinic
loop_
_symmetry_equiv_pos_as_xyz
  x,y,z
_cell_length_a                    29.9350
_cell_length_b                    26.1295
_cell_length_c                    22.3187
_cell_angle_alpha                 101.8891
_cell_angle_beta                  94.1144
_cell_angle_gamma                 92.3414
loop_
_atom_site_label
_atom_site_type_symbol
_atom_site_fract_x
_atom_site_fract_y
_atom_site_fract_z
_atom_site_U_iso_or_equiv
_atom_site_adp_type
_atom_site_occupancy
Br1    Br    0.29558   0.31799   0.08220   0.00000  Uiso   1.00
Br2    Br    0.20443   0.01535   0.25113   0.00000  Uiso   1.00
C3     C     0.24965   0.06694   0.15183   0.00000  Uiso   1.00
C4     C     0.09023   0.12315   0.13430   0.00000  Uiso   1.00
C5     C     0.38357   0.16752   0.16415   0.00000  Uiso   1.00
C6     C     0.11643   0.16581   0.16918   0.00000  Uiso   1.00
C7     C     0.40320   0.12492   0.12956   0.00000  Uiso   1.00
C8     C     0.09680   0.20842   0.20377   0.00000  Uiso   1.00
C9     C     0.44977   0.12396   0.13102   0.00000  Uiso   1.00
C10    C     0.05023   0.20937   0.20232   0.00000  Uiso   1.00
C11    C     0.47659   0.16705   0.16604   0.00000  Uiso   1.00
C12    C     0.02341   0.16628   0.16729   0.00000  Uiso   1.00
C13    C     0.45650   0.21088   0.19973   0.00000  Uiso   1.00
C14    C     0.25035   0.26639   0.18151   0.00000  Uiso   1.00
C15    C     0.04350   0.12245   0.13361   0.00000  Uiso   1.00
C16    C     0.46979   0.08031   0.09868   0.00000  Uiso   1.00
C17    C     0.03021   0.25302   0.23466   0.00000  Uiso   1.00
C18    C     0.01670   0.07895   0.10007   0.00000  Uiso   1.00
C19    C     0.48330   0.25439   0.23326   0.00000  Uiso   1.00
C20    C     0.25703   0.01277   0.14560   0.00000  Uiso   1.00
C21    C     0.24297   0.32056   0.18773   0.00000  Uiso   1.00
C22    C     0.16454   0.16646   0.16752   0.00000  Uiso   1.00
C23    C     0.33546   0.16687   0.16581   0.00000  Uiso   1.00
C24    C     0.40977   0.21018   0.19903   0.00000  Uiso   1.00
Cu25   Cu    0.25501   0.17246   0.22813   0.00000  Uiso   1.00
Cu26   Cu    0.24500   0.16087   0.10521   0.00000  Uiso   1.00
H27    H     0.39340   0.24276   0.22520   0.00000  Uiso   1.00
H28    H     0.48644   0.32601   0.28070   0.00000  Uiso   1.00
H29    H     0.10660   0.09058   0.10813   0.00000  Uiso   1.00
H30    H     0.38216   0.09200   0.10313   0.00000  Uiso   1.00
H31    H     0.11784   0.24133   0.23020   0.00000  Uiso   1.00
H32    H     0.44890   0.04720   0.07250   0.00000  Uiso   1.00
H33    H     0.05110   0.28613   0.26083   0.00000  Uiso   1.00
H34    H     0.21361   0.12822   0.31680   0.00000  Uiso   1.00
H35    H     0.28639   0.20511   0.01654   0.00000  Uiso   1.00
H36    H     0.01356   0.00732   0.05264   0.00000  Uiso   1.00
N37    N     0.23745   0.15214   0.01284   0.00000  Uiso   1.00
N38    N     0.26256   0.18119   0.32049   0.00000  Uiso   1.00
O39    O     0.25326   0.09538   0.20659   0.00000  Uiso   1.00
O40    O     0.46308   0.29775   0.26373   0.00000  Uiso   1.00
O41    O     0.24675   0.23796   0.12674   0.00000  Uiso   1.00
O42    O     0.24480   0.08559   0.10279   0.00000  Uiso   1.00
O43    O     0.25520   0.24774   0.23055   0.00000  Uiso   1.00
O44    O     0.18936   0.17155   0.21857   0.00000  Uiso   1.00
O45    O     0.31065   0.16179   0.11476   0.00000  Uiso   1.00
O46    O     0.18090   0.16176   0.11477   0.00000  Uiso   1.00
O47    O     0.31910   0.17157   0.21857   0.00000  Uiso   1.00
O48    O     0.03692   0.03558   0.06960   0.00000  Uiso   1.00
Br49   Br    0.79558   0.31799   0.08220   0.00000  Uiso   1.00
Br50   Br    0.70443   0.01535   0.25113   0.00000  Uiso   1.00
C51    C     0.74965   0.06694   0.15183   0.00000  Uiso   1.00
C52    C     0.59023   0.12315   0.13430   0.00000  Uiso   1.00
C53    C     0.88357   0.16752   0.16415   0.00000  Uiso   1.00
C54    C     0.61643   0.16581   0.16918   0.00000  Uiso   1.00
C55    C     0.90320   0.12492   0.12956   0.00000  Uiso   1.00
C56    C     0.59680   0.20842   0.20377   0.00000  Uiso   1.00
C57    C     0.94977   0.12396   0.13102   0.00000  Uiso   1.00
C58    C     0.55023   0.20937   0.20232   0.00000  Uiso   1.00
C59    C     0.97659   0.16705   0.16604   0.00000  Uiso   1.00
C60    C     0.52341   0.16628   0.16729   0.00000  Uiso   1.00
C61    C     0.95650   0.21088   0.19973   0.00000  Uiso   1.00
C62    C     0.75035   0.26639   0.18151   0.00000  Uiso   1.00
C63    C     0.54350   0.12245   0.13361   0.00000  Uiso   1.00
C64    C     0.96979   0.08031   0.09868   0.00000  Uiso   1.00
C65    C     0.53021   0.25302   0.23466   0.00000  Uiso   1.00
C66    C     0.51670   0.07895   0.10007   0.00000  Uiso   1.00
C67    C     0.98330   0.25439   0.23326   0.00000  Uiso   1.00
C68    C     0.75703   0.01277   0.14560   0.00000  Uiso   1.00
C69    C     0.74297   0.32056   0.18773   0.00000  Uiso   1.00
C70    C     0.66454   0.16646   0.16752   0.00000  Uiso   1.00
C71    C     0.83546   0.16687   0.16581   0.00000  Uiso   1.00
C72    C     0.90977   0.21018   0.19903   0.00000  Uiso   1.00
Cu73   Cu    0.75501   0.17246   0.22813   0.00000  Uiso   1.00
Cu74   Cu    0.74500   0.16087   0.10521   0.00000  Uiso   1.00
H75    H     0.89340   0.24276   0.22520   0.00000  Uiso   1.00
H76    H     0.98644   0.32601   0.28070   0.00000  Uiso   1.00
H77    H     0.60660   0.09058   0.10813   0.00000  Uiso   1.00
H78    H     0.88216   0.09200   0.10313   0.00000  Uiso   1.00
H79    H     0.61784   0.24133   0.23020   0.00000  Uiso   1.00
H80    H     0.94890   0.04720   0.07250   0.00000  Uiso   1.00
H81    H     0.55110   0.28613   0.26083   0.00000  Uiso   1.00
H82    H     0.71361   0.12822   0.31680   0.00000  Uiso   1.00
H83    H     0.78639   0.20511   0.01654   0.00000  Uiso   1.00
H84    H     0.51356   0.00732   0.05264   0.00000  Uiso   1.00
N85    N     0.73745   0.15214   0.01284   0.00000  Uiso   1.00
N86    N     0.76256   0.18119   0.32049   0.00000  Uiso   1.00
O87    O     0.75326   0.09538   0.20659   0.00000  Uiso   1.00
O88    O     0.96308   0.29775   0.26373   0.00000  Uiso   1.00
O89    O     0.74675   0.23796   0.12674   0.00000  Uiso   1.00
O90    O     0.74480   0.08559   0.10279   0.00000  Uiso   1.00
O91    O     0.75520   0.24774   0.23055   0.00000  Uiso   1.00
O92    O     0.68936   0.17155   0.21857   0.00000  Uiso   1.00
O93    O     0.81065   0.16179   0.11476   0.00000  Uiso   1.00
O94    O     0.68090   0.16176   0.11477   0.00000  Uiso   1.00
O95    O     0.81910   0.17157   0.21857   0.00000  Uiso   1.00
O96    O     0.53692   0.03558   0.06960   0.00000  Uiso   1.00
Br97   Br    0.29558   0.65132   0.08220   0.00000  Uiso   1.00
Br98   Br    0.20443   0.34868   0.25113   0.00000  Uiso   1.00
C99    C     0.24965   0.40027   0.15183   0.00000  Uiso   1.00
C100   C     0.09023   0.45649   0.13430   0.00000  Uiso   1.00
C101   C     0.38357   0.50085   0.16415   0.00000  Uiso   1.00
C102   C     0.11643   0.49915   0.16918   0.00000  Uiso   1.00
C103   C     0.40320   0.45825   0.12956   0.00000  Uiso   1.00
C104   C     0.09680   0.54175   0.20377   0.00000  Uiso   1.00
C105   C     0.44977   0.45730   0.13102   0.00000  Uiso   1.00
C106   C     0.05023   0.54270   0.20232   0.00000  Uiso   1.00
C107   C     0.47659   0.50039   0.16604   0.00000  Uiso   1.00
C108   C     0.02341   0.49961   0.16729   0.00000  Uiso   1.00
C109   C     0.45650   0.54422   0.19973   0.00000  Uiso   1.00
C110   C     0.25035   0.59972   0.18151   0.00000  Uiso   1.00
C111   C     0.04350   0.45578   0.13361   0.00000  Uiso   1.00
C112   C     0.46979   0.41364   0.09868   0.00000  Uiso   1.00
C113   C     0.03021   0.58636   0.23466   0.00000  Uiso   1.00
C114   C     0.01670   0.41228   0.10007   0.00000  Uiso   1.00
C115   C     0.48330   0.58772   0.23326   0.00000  Uiso   1.00
C116   C     0.25703   0.34611   0.14560   0.00000  Uiso   1.00
C117   C     0.24297   0.65389   0.18773   0.00000  Uiso   1.00
C118   C     0.16454   0.49979   0.16752   0.00000  Uiso   1.00
C119   C     0.33546   0.50021   0.16581   0.00000  Uiso   1.00
C120   C     0.40977   0.54351   0.19903   0.00000  Uiso   1.00
Cu121  Cu    0.25501   0.50579   0.22813   0.00000  Uiso   1.00
Cu122  Cu    0.24500   0.49421   0.10521   0.00000  Uiso   1.00
H123   H     0.39340   0.57609   0.22520   0.00000  Uiso   1.00
H124   H     0.48644   0.65934   0.28070   0.00000  Uiso   1.00
H125   H     0.10660   0.42391   0.10813   0.00000  Uiso   1.00
H126   H     0.38216   0.42533   0.10313   0.00000  Uiso   1.00
H127   H     0.11784   0.57467   0.23020   0.00000  Uiso   1.00
H128   H     0.44890   0.38053   0.07250   0.00000  Uiso   1.00
H129   H     0.05110   0.61947   0.26083   0.00000  Uiso   1.00
H130   H     0.21361   0.46155   0.31680   0.00000  Uiso   1.00
H131   H     0.28639   0.53845   0.01654   0.00000  Uiso   1.00
H132   H     0.01356   0.34066   0.05264   0.00000  Uiso   1.00
N133   N     0.23745   0.48547   0.01284   0.00000  Uiso   1.00
N134   N     0.26256   0.51453   0.32049   0.00000  Uiso   1.00
O135   O     0.25326   0.42871   0.20659   0.00000  Uiso   1.00
O136   O     0.46308   0.63108   0.26373   0.00000  Uiso   1.00
O137   O     0.24675   0.57129   0.12674   0.00000  Uiso   1.00
O138   O     0.24480   0.41892   0.10279   0.00000  Uiso   1.00
O139   O     0.25520   0.58108   0.23055   0.00000  Uiso   1.00
O140   O     0.18936   0.50488   0.21857   0.00000  Uiso   1.00
O141   O     0.31065   0.49512   0.11476   0.00000  Uiso   1.00
O142   O     0.18090   0.49510   0.11477   0.00000  Uiso   1.00
O143   O     0.31910   0.50490   0.21857   0.00000  Uiso   1.00
O144   O     0.03692   0.36892   0.06960   0.00000  Uiso   1.00
Br145  Br    0.79558   0.65132   0.08220   0.00000  Uiso   1.00
Br146  Br    0.70443   0.34868   0.25113   0.00000  Uiso   1.00
C147   C     0.74965   0.40027   0.15183   0.00000  Uiso   1.00
C148   C     0.59023   0.45649   0.13430   0.00000  Uiso   1.00
C149   C     0.88357   0.50085   0.16415   0.00000  Uiso   1.00
C150   C     0.61643   0.49915   0.16918   0.00000  Uiso   1.00
C151   C     0.90320   0.45825   0.12956   0.00000  Uiso   1.00
C152   C     0.59680   0.54175   0.20377   0.00000  Uiso   1.00
C153   C     0.94977   0.45730   0.13102   0.00000  Uiso   1.00
C154   C     0.55023   0.54270   0.20232   0.00000  Uiso   1.00
C155   C     0.97659   0.50039   0.16604   0.00000  Uiso   1.00
C156   C     0.52341   0.49961   0.16729   0.00000  Uiso   1.00
C157   C     0.95650   0.54422   0.19973   0.00000  Uiso   1.00
C158   C     0.75035   0.59972   0.18151   0.00000  Uiso   1.00
C159   C     0.54350   0.45578   0.13361   0.00000  Uiso   1.00
C160   C     0.96979   0.41364   0.09868   0.00000  Uiso   1.00
C161   C     0.53021   0.58636   0.23466   0.00000  Uiso   1.00
C162   C     0.51670   0.41228   0.10007   0.00000  Uiso   1.00
C163   C     0.98330   0.58772   0.23326   0.00000  Uiso   1.00
C164   C     0.75703   0.34611   0.14560   0.00000  Uiso   1.00
C165   C     0.74297   0.65389   0.18773   0.00000  Uiso   1.00
C166   C     0.66454   0.49979   0.16752   0.00000  Uiso   1.00
C167   C     0.83546   0.50021   0.16581   0.00000  Uiso   1.00
C168   C     0.90977   0.54351   0.19903   0.00000  Uiso   1.00
Cu169  Cu    0.75501   0.50579   0.22813   0.00000  Uiso   1.00
Cu170  Cu    0.74500   0.49421   0.10521   0.00000  Uiso   1.00
H171   H     0.89340   0.57609   0.22520   0.00000  Uiso   1.00
H172   H     0.98644   0.65934   0.28070   0.00000  Uiso   1.00
H173   H     0.60660   0.42391   0.10813   0.00000  Uiso   1.00
H174   H     0.88216   0.42533   0.10313   0.00000  Uiso   1.00
H175   H     0.61784   0.57467   0.23020   0.00000  Uiso   1.00
H176   H     0.94890   0.38053   0.07250   0.00000  Uiso   1.00
H177   H     0.55110   0.61947   0.26083   0.00000  Uiso   1.00
H178   H     0.71361   0.46155   0.31680   0.00000  Uiso   1.00
H179   H     0.78639   0.53845   0.01654   0.00000  Uiso   1.00
H180   H     0.51356   0.34066   0.05264   0.00000  Uiso   1.00
N181   N     0.73745   0.48547   0.01284   0.00000  Uiso   1.00
N182   N     0.76256   0.51453   0.32049   0.00000  Uiso   1.00
O183   O     0.75326   0.42871   0.20659   0.00000  Uiso   1.00
O184   O     0.96308   0.63108   0.26373   0.00000  Uiso   1.00
O185   O     0.74675   0.57129   0.12674   0.00000  Uiso   1.00
O186   O     0.74480   0.41892   0.10279   0.00000  Uiso   1.00
O187   O     0.75520   0.58108   0.23055   0.00000  Uiso   1.00
O188   O     0.68936   0.50488   0.21857   0.00000  Uiso   1.00
O189   O     0.81065   0.49512   0.11476   0.00000  Uiso   1.00
O190   O     0.68090   0.49510   0.11477   0.00000  Uiso   1.00
O191   O     0.81910   0.50490   0.21857   0.00000  Uiso   1.00
O192   O     0.53692   0.36892   0.06960   0.00000  Uiso   1.00
Br193  Br    0.29558   0.98465   0.08220   0.00000  Uiso   1.00
Br194  Br    0.20443   0.68201   0.25113   0.00000  Uiso   1.00
C195   C     0.24965   0.73361   0.15183   0.00000  Uiso   1.00
C196   C     0.09023   0.78982   0.13430   0.00000  Uiso   1.00
C197   C     0.38357   0.83419   0.16415   0.00000  Uiso   1.00
C198   C     0.11643   0.83248   0.16918   0.00000  Uiso   1.00
C199   C     0.40320   0.79158   0.12956   0.00000  Uiso   1.00
C200   C     0.09680   0.87508   0.20377   0.00000  Uiso   1.00
C201   C     0.44977   0.79063   0.13102   0.00000  Uiso   1.00
C202   C     0.05023   0.87604   0.20232   0.00000  Uiso   1.00
C203   C     0.47659   0.83372   0.16604   0.00000  Uiso   1.00
C204   C     0.02341   0.83295   0.16729   0.00000  Uiso   1.00
C205   C     0.45650   0.87755   0.19973   0.00000  Uiso   1.00
C206   C     0.25035   0.93306   0.18151   0.00000  Uiso   1.00
C207   C     0.04350   0.78912   0.13361   0.00000  Uiso   1.00
C208   C     0.46979   0.74698   0.09868   0.00000  Uiso   1.00
C209   C     0.03021   0.91969   0.23466   0.00000  Uiso   1.00
C210   C     0.01670   0.74561   0.10007   0.00000  Uiso   1.00
C211   C     0.48330   0.92105   0.23326   0.00000  Uiso   1.00
C212   C     0.25703   0.67944   0.14560   0.00000  Uiso   1.00
C213   C     0.24297   0.98723   0.18773   0.00000  Uiso   1.00
C214   C     0.16454   0.83313   0.16752   0.00000  Uiso   1.00
C215   C     0.33546   0.83354   0.16581   0.00000  Uiso   1.00
C216   C     0.40977   0.87685   0.19903   0.00000  Uiso   1.00
Cu217  Cu    0.25501   0.83913   0.22813   0.00000  Uiso   1.00
Cu218  Cu    0.24500   0.82754   0.10521   0.00000  Uiso   1.00
H219   H     0.39340   0.90942   0.22520   0.00000  Uiso   1.00
H220   H     0.48644   0.99268   0.28070   0.00000  Uiso   1.00
H221   H     0.10660   0.75724   0.10813   0.00000  Uiso   1.00
H222   H     0.38216   0.75867   0.10313   0.00000  Uiso   1.00
H223   H     0.11784   0.90800   0.23020   0.00000  Uiso   1.00
H224   H     0.44890   0.71387   0.07250   0.00000  Uiso   1.00
H225   H     0.05110   0.95280   0.26083   0.00000  Uiso   1.00
H226   H     0.21361   0.79489   0.31680   0.00000  Uiso   1.00
H227   H     0.28639   0.87178   0.01654   0.00000  Uiso   1.00
H228   H     0.01356   0.67399   0.05264   0.00000  Uiso   1.00
N229   N     0.23745   0.81881   0.01284   0.00000  Uiso   1.00
N230   N     0.26256   0.84786   0.32049   0.00000  Uiso   1.00
O231   O     0.25326   0.76204   0.20659   0.00000  Uiso   1.00
O232   O     0.46308   0.96442   0.26373   0.00000  Uiso   1.00
O233   O     0.24675   0.90462   0.12674   0.00000  Uiso   1.00
O234   O     0.24480   0.75226   0.10279   0.00000  Uiso   1.00
O235   O     0.25520   0.91441   0.23055   0.00000  Uiso   1.00
O236   O     0.18936   0.83821   0.21857   0.00000  Uiso   1.00
O237   O     0.31065   0.82845   0.11476   0.00000  Uiso   1.00
O238   O     0.18090   0.82843   0.11477   0.00000  Uiso   1.00
O239   O     0.31910   0.83824   0.21857   0.00000  Uiso   1.00
O240   O     0.03692   0.70225   0.06960   0.00000  Uiso   1.00
Br241  Br    0.79558   0.98465   0.08220   0.00000  Uiso   1.00
Br242  Br    0.70443   0.68201   0.25113   0.00000  Uiso   1.00
C243   C     0.74965   0.73361   0.15183   0.00000  Uiso   1.00
C244   C     0.59023   0.78982   0.13430   0.00000  Uiso   1.00
C245   C     0.88357   0.83419   0.16415   0.00000  Uiso   1.00
C246   C     0.61643   0.83248   0.16918   0.00000  Uiso   1.00
C247   C     0.90320   0.79158   0.12956   0.00000  Uiso   1.00
C248   C     0.59680   0.87508   0.20377   0.00000  Uiso   1.00
C249   C     0.94977   0.79063   0.13102   0.00000  Uiso   1.00
C250   C     0.55023   0.87604   0.20232   0.00000  Uiso   1.00
C251   C     0.97659   0.83372   0.16604   0.00000  Uiso   1.00
C252   C     0.52341   0.83295   0.16729   0.00000  Uiso   1.00
C253   C     0.95650   0.87755   0.19973   0.00000  Uiso   1.00
C254   C     0.75035   0.93306   0.18151   0.00000  Uiso   1.00
C255   C     0.54350   0.78912   0.13361   0.00000  Uiso   1.00
C256   C     0.96979   0.74698   0.09868   0.00000  Uiso   1.00
C257   C     0.53021   0.91969   0.23466   0.00000  Uiso   1.00
C258   C     0.51670   0.74561   0.10007   0.00000  Uiso   1.00
C259   C     0.98330   0.92105   0.23326   0.00000  Uiso   1.00
C260   C     0.75703   0.67944   0.14560   0.00000  Uiso   1.00
C261   C     0.74297   0.98723   0.18773   0.00000  Uiso   1.00
C262   C     0.66454   0.83313   0.16752   0.00000  Uiso   1.00
C263   C     0.83546   0.83354   0.16581   0.00000  Uiso   1.00
C264   C     0.90977   0.87685   0.19903   0.00000  Uiso   1.00
Cu265  Cu    0.75501   0.83913   0.22813   0.00000  Uiso   1.00
Cu266  Cu    0.74500   0.82754   0.10521   0.00000  Uiso   1.00
H267   H     0.89340   0.90942   0.22520   0.00000  Uiso   1.00
H268   H     0.98644   0.99268   0.28070   0.00000  Uiso   1.00
H269   H     0.60660   0.75724   0.10813   0.00000  Uiso   1.00
H270   H     0.88216   0.75867   0.10313   0.00000  Uiso   1.00
H271   H     0.61784   0.90800   0.23020   0.00000  Uiso   1.00
H272   H     0.94890   0.71387   0.07250   0.00000  Uiso   1.00
H273   H     0.55110   0.95280   0.26083   0.00000  Uiso   1.00
H274   H     0.71361   0.79489   0.31680   0.00000  Uiso   1.00
H275   H     0.78639   0.87178   0.01654   0.00000  Uiso   1.00
H276   H     0.51356   0.67399   0.05264   0.00000  Uiso   1.00
N277   N     0.73745   0.81881   0.01284   0.00000  Uiso   1.00
N278   N     0.76256   0.84786   0.32049   0.00000  Uiso   1.00
O279   O     0.75326   0.76204   0.20659   0.00000  Uiso   1.00
O280   O     0.96308   0.96442   0.26373   0.00000  Uiso   1.00
O281   O     0.74675   0.90462   0.12674   0.00000  Uiso   1.00
O282   O     0.74480   0.75226   0.10279   0.00000  Uiso   1.00
O283   O     0.75520   0.91441   0.23055   0.00000  Uiso   1.00
O284   O     0.68936   0.83821   0.21857   0.00000  Uiso   1.00
O285   O     0.81065   0.82845   0.11476   0.00000  Uiso   1.00
O286   O     0.68090   0.82843   0.11477   0.00000  Uiso   1.00
O287   O     0.81910   0.83824   0.21857   0.00000  Uiso   1.00
O288   O     0.53692   0.70225   0.06960   0.00000  Uiso   1.00
Br289  Br    0.29558   0.31799   0.41553   0.00000  Uiso   1.00
Br290  Br    0.20443   0.01535   0.58447   0.00000  Uiso   1.00
C291   C     0.24965   0.06694   0.48516   0.00000  Uiso   1.00
C292   C     0.09023   0.12315   0.46763   0.00000  Uiso   1.00
C293   C     0.38357   0.16752   0.49748   0.00000  Uiso   1.00
C294   C     0.11643   0.16581   0.50252   0.00000  Uiso   1.00
C295   C     0.40320   0.12492   0.46289   0.00000  Uiso   1.00
C296   C     0.09680   0.20842   0.53711   0.00000  Uiso   1.00
C297   C     0.44977   0.12396   0.46435   0.00000  Uiso   1.00
C298   C     0.05023   0.20937   0.53565   0.00000  Uiso   1.00
C299   C     0.47659   0.16705   0.49937   0.00000  Uiso   1.00
C300   C     0.02341   0.16628   0.50063   0.00000  Uiso   1.00
C301   C     0.45650   0.21088   0.53306   0.00000  Uiso   1.00
C302   C     0.25035   0.26639   0.51484   0.00000  Uiso   1.00
C303   C     0.04350   0.12245   0.46694   0.00000  Uiso   1.00
C304   C     0.46979   0.08031   0.43201   0.00000  Uiso   1.00
C305   C     0.03021   0.25302   0.56799   0.00000  Uiso   1.00
C306   C     0.01670   0.07895   0.43341   0.00000  Uiso   1.00
C307   C     0.48330   0.25439   0.56659   0.00000  Uiso   1.00
C308   C     0.25703   0.01277   0.47894   0.00000  Uiso   1.00
C309   C     0.24297   0.32056   0.52106   0.00000  Uiso   1.00
C310   C     0.16454   0.16646   0.50085   0.00000  Uiso   1.00
C311   C     0.33546   0.16687   0.49915   0.00000  Uiso   1.00
C312   C     0.40977   0.21018   0.53237   0.00000  Uiso   1.00
Cu313  Cu    0.25501   0.17246   0.56146   0.00000  Uiso   1.00
Cu314  Cu    0.24500   0.16087   0.43854   0.00000  Uiso   1.00
H315   H     0.39340   0.24276   0.55854   0.00000  Uiso   1.00
H316   H     0.48644   0.32601   0.61403   0.00000  Uiso   1.00
H317   H     0.10660   0.09058   0.44146   0.00000  Uiso   1.00
H318   H     0.38216   0.09200   0.43647   0.00000  Uiso   1.00
H319   H     0.11784   0.24133   0.56353   0.00000  Uiso   1.00
H320   H     0.44890   0.04720   0.40583   0.00000  Uiso   1.00
H321   H     0.05110   0.28613   0.59417   0.00000  Uiso   1.00
H322   H     0.21361   0.12822   0.65013   0.00000  Uiso   1.00
H323   H     0.28639   0.20511   0.34987   0.00000  Uiso   1.00
H324   H     0.01356   0.00732   0.38597   0.00000  Uiso   1.00
N325   N     0.23745   0.15214   0.34617   0.00000  Uiso   1.00
N326   N     0.26256   0.18119   0.65383   0.00000  Uiso   1.00
O327   O     0.25326   0.09538   0.53992   0.00000  Uiso   1.00
O328   O     0.46308   0.29775   0.59707   0.00000  Uiso   1.00
O329   O     0.24675   0.23796   0.46008   0.00000  Uiso   1.00
O330   O     0.24480   0.08559   0.43612   0.00000  Uiso   1.00
O331   O     0.25520   0.24774   0.56388   0.00000  Uiso   1.00
O332   O     0.18936   0.17155   0.55191   0.00000  Uiso   1.00
O333   O     0.31065   0.16179   0.44809   0.00000  Uiso   1.00
O334   O     0.18090   0.16176   0.44810   0.00000  Uiso   1.00
O335   O     0.31910   0.17157   0.55190   0.00000  Uiso   1.00
O336   O     0.03692   0.03558   0.40293   0.00000  Uiso   1.00
Br337  Br    0.79558   0.31799   0.41553   0.00000  Uiso   1.00
Br338  Br    0.70443   0.01535   0.58447   0.00000  Uiso   1.00
C339   C     0.74965   0.06694   0.48516   0.00000  Uiso   1.00
C340   C     0.59023   0.12315   0.46763   0.00000  Uiso   1.00
C341   C     0.88357   0.16752   0.49748   0.00000  Uiso   1.00
C342   C     0.61643   0.16581   0.50252   0.00000  Uiso   1.00
C343   C     0.90320   0.12492   0.46289   0.00000  Uiso   1.00
C344   C     0.59680   0.20842   0.53711   0.00000  Uiso   1.00
C345   C     0.94977   0.12396   0.46435   0.00000  Uiso   1.00
C346   C     0.55023   0.20937   0.53565   0.00000  Uiso   1.00
C347   C     0.97659   0.16705   0.49937   0.00000  Uiso   1.00
C348   C     0.52341   0.16628   0.50063   0.00000  Uiso   1.00
C349   C     0.95650   0.21088   0.53306   0.00000  Uiso   1.00
C350   C     0.75035   0.26639   0.51484   0.00000  Uiso   1.00
C351   C     0.54350   0.12245   0.46694   0.00000  Uiso   1.00
C352   C     0.96979   0.08031   0.43201   0.00000  Uiso   1.00
C353   C     0.53021   0.25302   0.56799   0.00000  Uiso   1.00
C354   C     0.51670   0.07895   0.43341   0.00000  Uiso   1.00
C355   C     0.98330   0.25439   0.56659   0.00000  Uiso   1.00
C356   C     0.75703   0.01277   0.47894   0.00000  Uiso   1.00
C357   C     0.74297   0.32056   0.52106   0.00000  Uiso   1.00
C358   C     0.66454   0.16646   0.50085   0.00000  Uiso   1.00
C359   C     0.83546   0.16687   0.49915   0.00000  Uiso   1.00
C360   C     0.90977   0.21018   0.53237   0.00000  Uiso   1.00
Cu361  Cu    0.75501   0.17246   0.56146   0.00000  Uiso   1.00
Cu362  Cu    0.74500   0.16087   0.43854   0.00000  Uiso   1.00
H363   H     0.89340   0.24276   0.55854   0.00000  Uiso   1.00
H364   H     0.98644   0.32601   0.61403   0.00000  Uiso   1.00
H365   H     0.60660   0.09058   0.44146   0.00000  Uiso   1.00
H366   H     0.88216   0.09200   0.43647   0.00000  Uiso   1.00
H367   H     0.61784   0.24133   0.56353   0.00000  Uiso   1.00
H368   H     0.94890   0.04720   0.40583   0.00000  Uiso   1.00
H369   H     0.55110   0.28613   0.59417   0.00000  Uiso   1.00
H370   H     0.71361   0.12822   0.65013   0.00000  Uiso   1.00
H371   H     0.78639   0.20511   0.34987   0.00000  Uiso   1.00
H372   H     0.51356   0.00732   0.38597   0.00000  Uiso   1.00
N373   N     0.73745   0.15214   0.34617   0.00000  Uiso   1.00
N374   N     0.76256   0.18119   0.65383   0.00000  Uiso   1.00
O375   O     0.75326   0.09538   0.53992   0.00000  Uiso   1.00
O376   O     0.96308   0.29775   0.59707   0.00000  Uiso   1.00
O377   O     0.74675   0.23796   0.46008   0.00000  Uiso   1.00
O378   O     0.74480   0.08559   0.43612   0.00000  Uiso   1.00
O379   O     0.75520   0.24774   0.56388   0.00000  Uiso   1.00
O380   O     0.68936   0.17155   0.55191   0.00000  Uiso   1.00
O381   O     0.81065   0.16179   0.44809   0.00000  Uiso   1.00
O382   O     0.68090   0.16176   0.44810   0.00000  Uiso   1.00
O383   O     0.81910   0.17157   0.55190   0.00000  Uiso   1.00
O384   O     0.53692   0.03558   0.40293   0.00000  Uiso   1.00
Br385  Br    0.29558   0.65132   0.41553   0.00000  Uiso   1.00
Br386  Br    0.20443   0.34868   0.58447   0.00000  Uiso   1.00
C387   C     0.24965   0.40027   0.48516   0.00000  Uiso   1.00
C388   C     0.09023   0.45649   0.46763   0.00000  Uiso   1.00
C389   C     0.38357   0.50085   0.49748   0.00000  Uiso   1.00
C390   C     0.11643   0.49915   0.50252   0.00000  Uiso   1.00
C391   C     0.40320   0.45825   0.46289   0.00000  Uiso   1.00
C392   C     0.09680   0.54175   0.53711   0.00000  Uiso   1.00
C393   C     0.44977   0.45730   0.46435   0.00000  Uiso   1.00
C394   C     0.05023   0.54270   0.53565   0.00000  Uiso   1.00
C395   C     0.47659   0.50039   0.49937   0.00000  Uiso   1.00
C396   C     0.02341   0.49961   0.50063   0.00000  Uiso   1.00
C397   C     0.45650   0.54422   0.53306   0.00000  Uiso   1.00
C398   C     0.25035   0.59972   0.51484   0.00000  Uiso   1.00
C399   C     0.04350   0.45578   0.46694   0.00000  Uiso   1.00
C400   C     0.46979   0.41364   0.43201   0.00000  Uiso   1.00
C401   C     0.03021   0.58636   0.56799   0.00000  Uiso   1.00
C402   C     0.01670   0.41228   0.43341   0.00000  Uiso   1.00
C403   C     0.48330   0.58772   0.56659   0.00000  Uiso   1.00
C404   C     0.25703   0.34611   0.47894   0.00000  Uiso   1.00
C405   C     0.24297   0.65389   0.52106   0.00000  Uiso   1.00
C406   C     0.16454   0.49979   0.50085   0.00000  Uiso   1.00
C407   C     0.33546   0.50021   0.49915   0.00000  Uiso   1.00
C408   C     0.40977   0.54351   0.53237   0.00000  Uiso   1.00
Cu409  Cu    0.25501   0.50579   0.56146   0.00000  Uiso   1.00
Cu410  Cu    0.24500   0.49421   0.43854   0.00000  Uiso   1.00
H411   H     0.39340   0.57609   0.55854   0.00000  Uiso   1.00
H412   H     0.48644   0.65934   0.61403   0.00000  Uiso   1.00
H413   H     0.10660   0.42391   0.44146   0.00000  Uiso   1.00
H414   H     0.38216   0.42533   0.43647   0.00000  Uiso   1.00
H415   H     0.11784   0.57467   0.56353   0.00000  Uiso   1.00
H416   H     0.44890   0.38053   0.40583   0.00000  Uiso   1.00
H417   H     0.05110   0.61947   0.59417   0.00000  Uiso   1.00
H418   H     0.21361   0.46155   0.65013   0.00000  Uiso   1.00
H419   H     0.28639   0.53845   0.34987   0.00000  Uiso   1.00
H420   H     0.01356   0.34066   0.38597   0.00000  Uiso   1.00
N421   N     0.23745   0.48547   0.34617   0.00000  Uiso   1.00
N422   N     0.26256   0.51453   0.65383   0.00000  Uiso   1.00
O423   O     0.25326   0.42871   0.53992   0.00000  Uiso   1.00
O424   O     0.46308   0.63108   0.59707   0.00000  Uiso   1.00
O425   O     0.24675   0.57129   0.46008   0.00000  Uiso   1.00
O426   O     0.24480   0.41892   0.43612   0.00000  Uiso   1.00
O427   O     0.25520   0.58108   0.56388   0.00000  Uiso   1.00
O428   O     0.18936   0.50488   0.55191   0.00000  Uiso   1.00
O429   O     0.31065   0.49512   0.44809   0.00000  Uiso   1.00
O430   O     0.18090   0.49510   0.44810   0.00000  Uiso   1.00
O431   O     0.31910   0.50490   0.55190   0.00000  Uiso   1.00
O432   O     0.03692   0.36892   0.40293   0.00000  Uiso   1.00
Br433  Br    0.79558   0.65132   0.41553   0.00000  Uiso   1.00
Br434  Br    0.70443   0.34868   0.58447   0.00000  Uiso   1.00
C435   C     0.74965   0.40027   0.48516   0.00000  Uiso   1.00
C436   C     0.59023   0.45649   0.46763   0.00000  Uiso   1.00
C437   C     0.88357   0.50085   0.49748   0.00000  Uiso   1.00
C438   C     0.61643   0.49915   0.50252   0.00000  Uiso   1.00
C439   C     0.90320   0.45825   0.46289   0.00000  Uiso   1.00
C440   C     0.59680   0.54175   0.53711   0.00000  Uiso   1.00
C441   C     0.94977   0.45730   0.46435   0.00000  Uiso   1.00
C442   C     0.55023   0.54270   0.53565   0.00000  Uiso   1.00
C443   C     0.97659   0.50039   0.49937   0.00000  Uiso   1.00
C444   C     0.52341   0.49961   0.50063   0.00000  Uiso   1.00
C445   C     0.95650   0.54422   0.53306   0.00000  Uiso   1.00
C446   C     0.75035   0.59972   0.51484   0.00000  Uiso   1.00
C447   C     0.54350   0.45578   0.46694   0.00000  Uiso   1.00
C448   C     0.96979   0.41364   0.43201   0.00000  Uiso   1.00
C449   C     0.53021   0.58636   0.56799   0.00000  Uiso   1.00
C450   C     0.51670   0.41228   0.43341   0.00000  Uiso   1.00
C451   C     0.98330   0.58772   0.56659   0.00000  Uiso   1.00
C452   C     0.75703   0.34611   0.47894   0.00000  Uiso   1.00
C453   C     0.74297   0.65389   0.52106   0.00000  Uiso   1.00
C454   C     0.66454   0.49979   0.50085   0.00000  Uiso   1.00
C455   C     0.83546   0.50021   0.49915   0.00000  Uiso   1.00
C456   C     0.90977   0.54351   0.53237   0.00000  Uiso   1.00
Cu457  Cu    0.75501   0.50579   0.56146   0.00000  Uiso   1.00
Cu458  Cu    0.74500   0.49421   0.43854   0.00000  Uiso   1.00
H459   H     0.89340   0.57609   0.55854   0.00000  Uiso   1.00
H460   H     0.98644   0.65934   0.61403   0.00000  Uiso   1.00
H461   H     0.60660   0.42391   0.44146   0.00000  Uiso   1.00
H462   H     0.88216   0.42533   0.43647   0.00000  Uiso   1.00
H463   H     0.61784   0.57467   0.56353   0.00000  Uiso   1.00
H464   H     0.94890   0.38053   0.40583   0.00000  Uiso   1.00
H465   H     0.55110   0.61947   0.59417   0.00000  Uiso   1.00
H466   H     0.71361   0.46155   0.65013   0.00000  Uiso   1.00
H467   H     0.78639   0.53845   0.34987   0.00000  Uiso   1.00
H468   H     0.51356   0.34066   0.38597   0.00000  Uiso   1.00
N469   N     0.73745   0.48547   0.34617   0.00000  Uiso   1.00
N470   N     0.76256   0.51453   0.65383   0.00000  Uiso   1.00
O471   O     0.75326   0.42871   0.53992   0.00000  Uiso   1.00
O472   O     0.96308   0.63108   0.59707   0.00000  Uiso   1.00
O473   O     0.74675   0.57129   0.46008   0.00000  Uiso   1.00
O474   O     0.74480   0.41892   0.43612   0.00000  Uiso   1.00
O475   O     0.75520   0.58108   0.56388   0.00000  Uiso   1.00
O476   O     0.68936   0.50488   0.55191   0.00000  Uiso   1.00
O477   O     0.81065   0.49512   0.44809   0.00000  Uiso   1.00
O478   O     0.68090   0.49510   0.44810   0.00000  Uiso   1.00
O479   O     0.81910   0.50490   0.55190   0.00000  Uiso   1.00
O480   O     0.53692   0.36892   0.40293   0.00000  Uiso   1.00
Br481  Br    0.29558   0.98465   0.41553   0.00000  Uiso   1.00
Br482  Br    0.20443   0.68201   0.58447   0.00000  Uiso   1.00
C483   C     0.24965   0.73361   0.48516   0.00000  Uiso   1.00
C484   C     0.09023   0.78982   0.46763   0.00000  Uiso   1.00
C485   C     0.38357   0.83419   0.49748   0.00000  Uiso   1.00
C486   C     0.11643   0.83248   0.50252   0.00000  Uiso   1.00
C487   C     0.40320   0.79158   0.46289   0.00000  Uiso   1.00
C488   C     0.09680   0.87508   0.53711   0.00000  Uiso   1.00
C489   C     0.44977   0.79063   0.46435   0.00000  Uiso   1.00
C490   C     0.05023   0.87604   0.53565   0.00000  Uiso   1.00
C491   C     0.47659   0.83372   0.49937   0.00000  Uiso   1.00
C492   C     0.02341   0.83295   0.50063   0.00000  Uiso   1.00
C493   C     0.45650   0.87755   0.53306   0.00000  Uiso   1.00
C494   C     0.25035   0.93306   0.51484   0.00000  Uiso   1.00
C495   C     0.04350   0.78912   0.46694   0.00000  Uiso   1.00
C496   C     0.46979   0.74698   0.43201   0.00000  Uiso   1.00
C497   C     0.03021   0.91969   0.56799   0.00000  Uiso   1.00
C498   C     0.01670   0.74561   0.43341   0.00000  Uiso   1.00
C499   C     0.48330   0.92105   0.56659   0.00000  Uiso   1.00
C500   C     0.25703   0.67944   0.47894   0.00000  Uiso   1.00
C501   C     0.24297   0.98723   0.52106   0.00000  Uiso   1.00
C502   C     0.16454   0.83313   0.50085   0.00000  Uiso   1.00
C503   C     0.33546   0.83354   0.49915   0.00000  Uiso   1.00
C504   C     0.40977   0.87685   0.53237   0.00000  Uiso   1.00
Cu505  Cu    0.25501   0.83913   0.56146   0.00000  Uiso   1.00
Cu506  Cu    0.24500   0.82754   0.43854   0.00000  Uiso   1.00
H507   H     0.39340   0.90942   0.55854   0.00000  Uiso   1.00
H508   H     0.48644   0.99268   0.61403   0.00000  Uiso   1.00
H509   H     0.10660   0.75724   0.44146   0.00000  Uiso   1.00
H510   H     0.38216   0.75867   0.43647   0.00000  Uiso   1.00
H511   H     0.11784   0.90800   0.56353   0.00000  Uiso   1.00
H512   H     0.44890   0.71387   0.40583   0.00000  Uiso   1.00
H513   H     0.05110   0.95280   0.59417   0.00000  Uiso   1.00
H514   H     0.21361   0.79489   0.65013   0.00000  Uiso   1.00
H515   H     0.28639   0.87178   0.34987   0.00000  Uiso   1.00
H516   H     0.01356   0.67399   0.38597   0.00000  Uiso   1.00
N517   N     0.23745   0.81881   0.34617   0.00000  Uiso   1.00
N518   N     0.26256   0.84786   0.65383   0.00000  Uiso   1.00
O519   O     0.25326   0.76204   0.53992   0.00000  Uiso   1.00
O520   O     0.46308   0.96442   0.59707   0.00000  Uiso   1.00
O521   O     0.24675   0.90462   0.46008   0.00000  Uiso   1.00
O522   O     0.24480   0.75226   0.43612   0.00000  Uiso   1.00
O523   O     0.25520   0.91441   0.56388   0.00000  Uiso   1.00
O524   O     0.18936   0.83821   0.55191   0.00000  Uiso   1.00
O525   O     0.31065   0.82845   0.44809   0.00000  Uiso   1.00
O526   O     0.18090   0.82843   0.44810   0.00000  Uiso   1.00
O527   O     0.31910   0.83824   0.55190   0.00000  Uiso   1.00
O528   O     0.03692   0.70225   0.40293   0.00000  Uiso   1.00
Br529  Br    0.79558   0.98465   0.41553   0.00000  Uiso   1.00
Br530  Br    0.70443   0.68201   0.58447   0.00000  Uiso   1.00
C531   C     0.74965   0.73361   0.48516   0.00000  Uiso   1.00
C532   C     0.59023   0.78982   0.46763   0.00000  Uiso   1.00
C533   C     0.88357   0.83419   0.49748   0.00000  Uiso   1.00
C534   C     0.61643   0.83248   0.50252   0.00000  Uiso   1.00
C535   C     0.90320   0.79158   0.46289   0.00000  Uiso   1.00
C536   C     0.59680   0.87508   0.53711   0.00000  Uiso   1.00
C537   C     0.94977   0.79063   0.46435   0.00000  Uiso   1.00
C538   C     0.55023   0.87604   0.53565   0.00000  Uiso   1.00
C539   C     0.97659   0.83372   0.49937   0.00000  Uiso   1.00
C540   C     0.52341   0.83295   0.50063   0.00000  Uiso   1.00
C541   C     0.95650   0.87755   0.53306   0.00000  Uiso   1.00
C542   C     0.75035   0.93306   0.51484   0.00000  Uiso   1.00
C543   C     0.54350   0.78912   0.46694   0.00000  Uiso   1.00
C544   C     0.96979   0.74698   0.43201   0.00000  Uiso   1.00
C545   C     0.53021   0.91969   0.56799   0.00000  Uiso   1.00
C546   C     0.51670   0.74561   0.43341   0.00000  Uiso   1.00
C547   C     0.98330   0.92105   0.56659   0.00000  Uiso   1.00
C548   C     0.75703   0.67944   0.47894   0.00000  Uiso   1.00
C549   C     0.74297   0.98723   0.52106   0.00000  Uiso   1.00
C550   C     0.66454   0.83313   0.50085   0.00000  Uiso   1.00
C551   C     0.83546   0.83354   0.49915   0.00000  Uiso   1.00
C552   C     0.90977   0.87685   0.53237   0.00000  Uiso   1.00
Cu553  Cu    0.75501   0.83913   0.56146   0.00000  Uiso   1.00
Cu554  Cu    0.74500   0.82754   0.43854   0.00000  Uiso   1.00
H555   H     0.89340   0.90942   0.55854   0.00000  Uiso   1.00
H556   H     0.98644   0.99268   0.61403   0.00000  Uiso   1.00
H557   H     0.60660   0.75724   0.44146   0.00000  Uiso   1.00
H558   H     0.88216   0.75867   0.43647   0.00000  Uiso   1.00
H559   H     0.61784   0.90800   0.56353   0.00000  Uiso   1.00
H560   H     0.94890   0.71387   0.40583   0.00000  Uiso   1.00
H561   H     0.55110   0.95280   0.59417   0.00000  Uiso   1.00
H562   H     0.71361   0.79489   0.65013   0.00000  Uiso   1.00
H563   H     0.78639   0.87178   0.34987   0.00000  Uiso   1.00
H564   H     0.51356   0.67399   0.38597   0.00000  Uiso   1.00
N565   N     0.73745   0.81881   0.34617   0.00000  Uiso   1.00
N566   N     0.76256   0.84786   0.65383   0.00000  Uiso   1.00
O567   O     0.75326   0.76204   0.53992   0.00000  Uiso   1.00
O568   O     0.96308   0.96442   0.59707   0.00000  Uiso   1.00
O569   O     0.74675   0.90462   0.46008   0.00000  Uiso   1.00
O570   O     0.74480   0.75226   0.43612   0.00000  Uiso   1.00
O571   O     0.75520   0.91441   0.56388   0.00000  Uiso   1.00
O572   O     0.68936   0.83821   0.55191   0.00000  Uiso   1.00
O573   O     0.81065   0.82845   0.44809   0.00000  Uiso   1.00
O574   O     0.68090   0.82843   0.44810   0.00000  Uiso   1.00
O575   O     0.81910   0.83824   0.55190   0.00000  Uiso   1.00
O576   O     0.53692   0.70225   0.40293   0.00000  Uiso   1.00
Br577  Br    0.29558   0.31799   0.74887   0.00000  Uiso   1.00
Br578  Br    0.20443   0.01535   0.91780   0.00000  Uiso   1.00
C579   C     0.24965   0.06694   0.81849   0.00000  Uiso   1.00
C580   C     0.09023   0.12315   0.80096   0.00000  Uiso   1.00
C581   C     0.38357   0.16752   0.83081   0.00000  Uiso   1.00
C582   C     0.11643   0.16581   0.83585   0.00000  Uiso   1.00
C583   C     0.40320   0.12492   0.79623   0.00000  Uiso   1.00
C584   C     0.09680   0.20842   0.87044   0.00000  Uiso   1.00
C585   C     0.44977   0.12396   0.79768   0.00000  Uiso   1.00
C586   C     0.05023   0.20937   0.86898   0.00000  Uiso   1.00
C587   C     0.47659   0.16705   0.83271   0.00000  Uiso   1.00
C588   C     0.02341   0.16628   0.83396   0.00000  Uiso   1.00
C589   C     0.45650   0.21088   0.86639   0.00000  Uiso   1.00
C590   C     0.25035   0.26639   0.84817   0.00000  Uiso   1.00
C591   C     0.04350   0.12245   0.80027   0.00000  Uiso   1.00
C592   C     0.46979   0.08031   0.76534   0.00000  Uiso   1.00
C593   C     0.03021   0.25302   0.90132   0.00000  Uiso   1.00
C594   C     0.01670   0.07895   0.76674   0.00000  Uiso   1.00
C595   C     0.48330   0.25439   0.89993   0.00000  Uiso   1.00
C596   C     0.25703   0.01277   0.81227   0.00000  Uiso   1.00
C597   C     0.24297   0.32056   0.85440   0.00000  Uiso   1.00
C598   C     0.16454   0.16646   0.83419   0.00000  Uiso   1.00
C599   C     0.33546   0.16687   0.83248   0.00000  Uiso   1.00
C600   C     0.40977   0.21018   0.86570   0.00000  Uiso   1.00
Cu601  Cu    0.25501   0.17246   0.89479   0.00000  Uiso   1.00
Cu602  Cu    0.24500   0.16087   0.77187   0.00000  Uiso   1.00
H603   H     0.39340   0.24276   0.89187   0.00000  Uiso   1.00
H604   H     0.48644   0.32601   0.94736   0.00000  Uiso   1.00
H605   H     0.10660   0.09058   0.77480   0.00000  Uiso   1.00
H606   H     0.38216   0.09200   0.76980   0.00000  Uiso   1.00
H607   H     0.11784   0.24133   0.89687   0.00000  Uiso   1.00
H608   H     0.44890   0.04720   0.73917   0.00000  Uiso   1.00
H609   H     0.05110   0.28613   0.92750   0.00000  Uiso   1.00
H610   H     0.21361   0.12822   0.98346   0.00000  Uiso   1.00
H611   H     0.28639   0.20511   0.68320   0.00000  Uiso   1.00
H612   H     0.01356   0.00732   0.71930   0.00000  Uiso   1.00
N613   N     0.23745   0.15214   0.67951   0.00000  Uiso   1.00
N614   N     0.26256   0.18119   0.98716   0.00000  Uiso   1.00
O615   O     0.25326   0.09538   0.87326   0.00000  Uiso   1.00
O616   O     0.46308   0.29775   0.93040   0.00000  Uiso   1.00
O617   O     0.24675   0.23796   0.79341   0.00000  Uiso   1.00
O618   O     0.24480   0.08559   0.76945   0.00000  Uiso   1.00
O619   O     0.25520   0.24774   0.89721   0.00000  Uiso   1.00
O620   O     0.18936   0.17155   0.88524   0.00000  Uiso   1.00
O621   O     0.31065   0.16179   0.78143   0.00000  Uiso   1.00
O622   O     0.18090   0.16176   0.78143   0.00000  Uiso   1.00
O623   O     0.31910   0.17157   0.88523   0.00000  Uiso   1.00
O624   O     0.03692   0.03558   0.73627   0.00000  Uiso   1.00
Br625  Br    0.79558   0.31799   0.74887   0.00000  Uiso   1.00
Br626  Br    0.70443   0.01535   0.91780   0.00000  Uiso   1.00
C627   C     0.74965   0.06694   0.81849   0.00000  Uiso   1.00
C628   C     0.59023   0.12315   0.80096   0.00000  Uiso   1.00
C629   C     0.88357   0.16752   0.83081   0.00000  Uiso   1.00
C630   C     0.61643   0.16581   0.83585   0.00000  Uiso   1.00
C631   C     0.90320   0.12492   0.79623   0.00000  Uiso   1.00
C632   C     0.59680   0.20842   0.87044   0.00000  Uiso   1.00
C633   C     0.94977   0.12396   0.79768   0.00000  Uiso   1.00
C634   C     0.55023   0.20937   0.86898   0.00000  Uiso   1.00
C635   C     0.97659   0.16705   0.83271   0.00000  Uiso   1.00
C636   C     0.52341   0.16628   0.83396   0.00000  Uiso   1.00
C637   C     0.95650   0.21088   0.86639   0.00000  Uiso   1.00
C638   C     0.75035   0.26639   0.84817   0.00000  Uiso   1.00
C639   C     0.54350   0.12245   0.80027   0.00000  Uiso   1.00
C640   C     0.96979   0.08031   0.76534   0.00000  Uiso   1.00
C641   C     0.53021   0.25302   0.90132   0.00000  Uiso   1.00
C642   C     0.51670   0.07895   0.76674   0.00000  Uiso   1.00
C643   C     0.98330   0.25439   0.89993   0.00000  Uiso   1.00
C644   C     0.75703   0.01277   0.81227   0.00000  Uiso   1.00
C645   C     0.74297   0.32056   0.85440   0.00000  Uiso   1.00
C646   C     0.66454   0.16646   0.83419   0.00000  Uiso   1.00
C647   C     0.83546   0.16687   0.83248   0.00000  Uiso   1.00
C648   C     0.90977   0.21018   0.86570   0.00000  Uiso   1.00
Cu649  Cu    0.75501   0.17246   0.89479   0.00000  Uiso   1.00
Cu650  Cu    0.74500   0.16087   0.77187   0.00000  Uiso   1.00
H651   H     0.89340   0.24276   0.89187   0.00000  Uiso   1.00
H652   H     0.98644   0.32601   0.94736   0.00000  Uiso   1.00
H653   H     0.60660   0.09058   0.77480   0.00000  Uiso   1.00
H654   H     0.88216   0.09200   0.76980   0.00000  Uiso   1.00
H655   H     0.61784   0.24133   0.89687   0.00000  Uiso   1.00
H656   H     0.94890   0.04720   0.73917   0.00000  Uiso   1.00
H657   H     0.55110   0.28613   0.92750   0.00000  Uiso   1.00
H658   H     0.71361   0.12822   0.98346   0.00000  Uiso   1.00
H659   H     0.78639   0.20511   0.68320   0.00000  Uiso   1.00
H660   H     0.51356   0.00732   0.71930   0.00000  Uiso   1.00
N661   N     0.73745   0.15214   0.67951   0.00000  Uiso   1.00
N662   N     0.76256   0.18119   0.98716   0.00000  Uiso   1.00
O663   O     0.75326   0.09538   0.87326   0.00000  Uiso   1.00
O664   O     0.96308   0.29775   0.93040   0.00000  Uiso   1.00
O665   O     0.74675   0.23796   0.79341   0.00000  Uiso   1.00
O666   O     0.74480   0.08559   0.76945   0.00000  Uiso   1.00
O667   O     0.75520   0.24774   0.89721   0.00000  Uiso   1.00
O668   O     0.68936   0.17155   0.88524   0.00000  Uiso   1.00
O669   O     0.81065   0.16179   0.78143   0.00000  Uiso   1.00
O670   O     0.68090   0.16176   0.78143   0.00000  Uiso   1.00
O671   O     0.81910   0.17157   0.88523   0.00000  Uiso   1.00
O672   O     0.53692   0.03558   0.73627   0.00000  Uiso   1.00
Br673  Br    0.29558   0.65132   0.74887   0.00000  Uiso   1.00
Br674  Br    0.20443   0.34868   0.91780   0.00000  Uiso   1.00
C675   C     0.24965   0.40027   0.81849   0.00000  Uiso   1.00
C676   C     0.09023   0.45649   0.80096   0.00000  Uiso   1.00
C677   C     0.38357   0.50085   0.83081   0.00000  Uiso   1.00
C678   C     0.11643   0.49915   0.83585   0.00000  Uiso   1.00
C679   C     0.40320   0.45825   0.79623   0.00000  Uiso   1.00
C680   C     0.09680   0.54175   0.87044   0.00000  Uiso   1.00
C681   C     0.44977   0.45730   0.79768   0.00000  Uiso   1.00
C682   C     0.05023   0.54270   0.86898   0.00000  Uiso   1.00
C683   C     0.47659   0.50039   0.83271   0.00000  Uiso   1.00
C684   C     0.02341   0.49961   0.83396   0.00000  Uiso   1.00
C685   C     0.45650   0.54422   0.86639   0.00000  Uiso   1.00
C686   C     0.25035   0.59972   0.84817   0.00000  Uiso   1.00
C687   C     0.04350   0.45578   0.80027   0.00000  Uiso   1.00
C688   C     0.46979   0.41364   0.76534   0.00000  Uiso   1.00
C689   C     0.03021   0.58636   0.90132   0.00000  Uiso   1.00
C690   C     0.01670   0.41228   0.76674   0.00000  Uiso   1.00
C691   C     0.48330   0.58772   0.89993   0.00000  Uiso   1.00
C692   C     0.25703   0.34611   0.81227   0.00000  Uiso   1.00
C693   C     0.24297   0.65389   0.85440   0.00000  Uiso   1.00
C694   C     0.16454   0.49979   0.83419   0.00000  Uiso   1.00
C695   C     0.33546   0.50021   0.83248   0.00000  Uiso   1.00
C696   C     0.40977   0.54351   0.86570   0.00000  Uiso   1.00
Cu697  Cu    0.25501   0.50579   0.89479   0.00000  Uiso   1.00
Cu698  Cu    0.24500   0.49421   0.77187   0.00000  Uiso   1.00
H699   H     0.39340   0.57609   0.89187   0.00000  Uiso   1.00
H700   H     0.48644   0.65934   0.94736   0.00000  Uiso   1.00
H701   H     0.10660   0.42391   0.77480   0.00000  Uiso   1.00
H702   H     0.38216   0.42533   0.76980   0.00000  Uiso   1.00
H703   H     0.11784   0.57467   0.89687   0.00000  Uiso   1.00
H704   H     0.44890   0.38053   0.73917   0.00000  Uiso   1.00
H705   H     0.05110   0.61947   0.92750   0.00000  Uiso   1.00
H706   H     0.21361   0.46155   0.98346   0.00000  Uiso   1.00
H707   H     0.28639   0.53845   0.68320   0.00000  Uiso   1.00
H708   H     0.01356   0.34066   0.71930   0.00000  Uiso   1.00
N709   N     0.23745   0.48547   0.67951   0.00000  Uiso   1.00
N710   N     0.26256   0.51453   0.98716   0.00000  Uiso   1.00
O711   O     0.25326   0.42871   0.87326   0.00000  Uiso   1.00
O712   O     0.46308   0.63108   0.93040   0.00000  Uiso   1.00
O713   O     0.24675   0.57129   0.79341   0.00000  Uiso   1.00
O714   O     0.24480   0.41892   0.76945   0.00000  Uiso   1.00
O715   O     0.25520   0.58108   0.89721   0.00000  Uiso   1.00
O716   O     0.18936   0.50488   0.88524   0.00000  Uiso   1.00
O717   O     0.31065   0.49512   0.78143   0.00000  Uiso   1.00
O718   O     0.18090   0.49510   0.78143   0.00000  Uiso   1.00
O719   O     0.31910   0.50490   0.88523   0.00000  Uiso   1.00
O720   O     0.03692   0.36892   0.73627   0.00000  Uiso   1.00
Br721  Br    0.79558   0.65132   0.74887   0.00000  Uiso   1.00
Br722  Br    0.70443   0.34868   0.91780   0.00000  Uiso   1.00
C723   C     0.74965   0.40027   0.81849   0.00000  Uiso   1.00
C724   C     0.59023   0.45649   0.80096   0.00000  Uiso   1.00
C725   C     0.88357   0.50085   0.83081   0.00000  Uiso   1.00
C726   C     0.61643   0.49915   0.83585   0.00000  Uiso   1.00
C727   C     0.90320   0.45825   0.79623   0.00000  Uiso   1.00
C728   C     0.59680   0.54175   0.87044   0.00000  Uiso   1.00
C729   C     0.94977   0.45730   0.79768   0.00000  Uiso   1.00
C730   C     0.55023   0.54270   0.86898   0.00000  Uiso   1.00
C731   C     0.97659   0.50039   0.83271   0.00000  Uiso   1.00
C732   C     0.52341   0.49961   0.83396   0.00000  Uiso   1.00
C733   C     0.95650   0.54422   0.86639   0.00000  Uiso   1.00
C734   C     0.75035   0.59972   0.84817   0.00000  Uiso   1.00
C735   C     0.54350   0.45578   0.80027   0.00000  Uiso   1.00
C736   C     0.96979   0.41364   0.76534   0.00000  Uiso   1.00
C737   C     0.53021   0.58636   0.90132   0.00000  Uiso   1.00
C738   C     0.51670   0.41228   0.76674   0.00000  Uiso   1.00
C739   C     0.98330   0.58772   0.89993   0.00000  Uiso   1.00
C740   C     0.75703   0.34611   0.81227   0.00000  Uiso   1.00
C741   C     0.74297   0.65389   0.85440   0.00000  Uiso   1.00
C742   C     0.66454   0.49979   0.83419   0.00000  Uiso   1.00
C743   C     0.83546   0.50021   0.83248   0.00000  Uiso   1.00
C744   C     0.90977   0.54351   0.86570   0.00000  Uiso   1.00
Cu745  Cu    0.75501   0.50579   0.89479   0.00000  Uiso   1.00
Cu746  Cu    0.74500   0.49421   0.77187   0.00000  Uiso   1.00
H747   H     0.89340   0.57609   0.89187   0.00000  Uiso   1.00
H748   H     0.98644   0.65934   0.94736   0.00000  Uiso   1.00
H749   H     0.60660   0.42391   0.77480   0.00000  Uiso   1.00
H750   H     0.88216   0.42533   0.76980   0.00000  Uiso   1.00
H751   H     0.61784   0.57467   0.89687   0.00000  Uiso   1.00
H752   H     0.94890   0.38053   0.73917   0.00000  Uiso   1.00
H753   H     0.55110   0.61947   0.92750   0.00000  Uiso   1.00
H754   H     0.71361   0.46155   0.98346   0.00000  Uiso   1.00
H755   H     0.78639   0.53845   0.68320   0.00000  Uiso   1.00
H756   H     0.51356   0.34066   0.71930   0.00000  Uiso   1.00
N757   N     0.73745   0.48547   0.67951   0.00000  Uiso   1.00
N758   N     0.76256   0.51453   0.98716   0.00000  Uiso   1.00
O759   O     0.75326   0.42871   0.87326   0.00000  Uiso   1.00
O760   O     0.96308   0.63108   0.93040   0.00000  Uiso   1.00
O761   O     0.74675   0.57129   0.79341   0.00000  Uiso   1.00
O762   O     0.74480   0.41892   0.76945   0.00000  Uiso   1.00
O763   O     0.75520   0.58108   0.89721   0.00000  Uiso   1.00
O764   O     0.68936   0.50488   0.88524   0.00000  Uiso   1.00
O765   O     0.81065   0.49512   0.78143   0.00000  Uiso   1.00
O766   O     0.68090   0.49510   0.78143   0.00000  Uiso   1.00
O767   O     0.81910   0.50490   0.88523   0.00000  Uiso   1.00
O768   O     0.53692   0.36892   0.73627   0.00000  Uiso   1.00
Br769  Br    0.29558   0.98465   0.74887   0.00000  Uiso   1.00
Br770  Br    0.20443   0.68201   0.91780   0.00000  Uiso   1.00
C771   C     0.24965   0.73361   0.81849   0.00000  Uiso   1.00
C772   C     0.09023   0.78982   0.80096   0.00000  Uiso   1.00
C773   C     0.38357   0.83419   0.83081   0.00000  Uiso   1.00
C774   C     0.11643   0.83248   0.83585   0.00000  Uiso   1.00
C775   C     0.40320   0.79158   0.79623   0.00000  Uiso   1.00
C776   C     0.09680   0.87508   0.87044   0.00000  Uiso   1.00
C777   C     0.44977   0.79063   0.79768   0.00000  Uiso   1.00
C778   C     0.05023   0.87604   0.86898   0.00000  Uiso   1.00
C779   C     0.47659   0.83372   0.83271   0.00000  Uiso   1.00
C780   C     0.02341   0.83295   0.83396   0.00000  Uiso   1.00
C781   C     0.45650   0.87755   0.86639   0.00000  Uiso   1.00
C782   C     0.25035   0.93306   0.84817   0.00000  Uiso   1.00
C783   C     0.04350   0.78912   0.80027   0.00000  Uiso   1.00
C784   C     0.46979   0.74698   0.76534   0.00000  Uiso   1.00
C785   C     0.03021   0.91969   0.90132   0.00000  Uiso   1.00
C786   C     0.01670   0.74561   0.76674   0.00000  Uiso   1.00
C787   C     0.48330   0.92105   0.89993   0.00000  Uiso   1.00
C788   C     0.25703   0.67944   0.81227   0.00000  Uiso   1.00
C789   C     0.24297   0.98723   0.85440   0.00000  Uiso   1.00
C790   C     0.16454   0.83313   0.83419   0.00000  Uiso   1.00
C791   C     0.33546   0.83354   0.83248   0.00000  Uiso   1.00
C792   C     0.40977   0.87685   0.86570   0.00000  Uiso   1.00
Cu793  Cu    0.25501   0.83913   0.89479   0.00000  Uiso   1.00
Cu794  Cu    0.24500   0.82754   0.77187   0.00000  Uiso   1.00
H795   H     0.39340   0.90942   0.89187   0.00000  Uiso   1.00
H796   H     0.48644   0.99268   0.94736   0.00000  Uiso   1.00
H797   H     0.10660   0.75724   0.77480   0.00000  Uiso   1.00
H798   H     0.38216   0.75867   0.76980   0.00000  Uiso   1.00
H799   H     0.11784   0.90800   0.89687   0.00000  Uiso   1.00
H800   H     0.44890   0.71387   0.73917   0.00000  Uiso   1.00
H801   H     0.05110   0.95280   0.92750   0.00000  Uiso   1.00
H802   H     0.21361   0.79489   0.98346   0.00000  Uiso   1.00
H803   H     0.28639   0.87178   0.68320   0.00000  Uiso   1.00
H804   H     0.01356   0.67399   0.71930   0.00000  Uiso   1.00
N805   N     0.23745   0.81881   0.67951   0.00000  Uiso   1.00
N806   N     0.26256   0.84786   0.98716   0.00000  Uiso   1.00
O807   O     0.25326   0.76204   0.87326   0.00000  Uiso   1.00
O808   O     0.46308   0.96442   0.93040   0.00000  Uiso   1.00
O809   O     0.24675   0.90462   0.79341   0.00000  Uiso   1.00
O810   O     0.24480   0.75226   0.76945   0.00000  Uiso   1.00
O811   O     0.25520   0.91441   0.89721   0.00000  Uiso   1.00
O812   O     0.18936   0.83821   0.88524   0.00000  Uiso   1.00
O813   O     0.31065   0.82845   0.78143   0.00000  Uiso   1.00
O814   O     0.18090   0.82843   0.78143   0.00000  Uiso   1.00
O815   O     0.31910   0.83824   0.88523   0.00000  Uiso   1.00
O816   O     0.03692   0.70225   0.73627   0.00000  Uiso   1.00
Br817  Br    0.79558   0.98465   0.74887   0.00000  Uiso   1.00
Br818  Br    0.70443   0.68201   0.91780   0.00000  Uiso   1.00
C819   C     0.74965   0.73361   0.81849   0.00000  Uiso   1.00
C820   C     0.59023   0.78982   0.80096   0.00000  Uiso   1.00
C821   C     0.88357   0.83419   0.83081   0.00000  Uiso   1.00
C822   C     0.61643   0.83248   0.83585   0.00000  Uiso   1.00
C823   C     0.90320   0.79158   0.79623   0.00000  Uiso   1.00
C824   C     0.59680   0.87508   0.87044   0.00000  Uiso   1.00
C825   C     0.94977   0.79063   0.79768   0.00000  Uiso   1.00
C826   C     0.55023   0.87604   0.86898   0.00000  Uiso   1.00
C827   C     0.97659   0.83372   0.83271   0.00000  Uiso   1.00
C828   C     0.52341   0.83295   0.83396   0.00000  Uiso   1.00
C829   C     0.95650   0.87755   0.86639   0.00000  Uiso   1.00
C830   C     0.75035   0.93306   0.84817   0.00000  Uiso   1.00
C831   C     0.54350   0.78912   0.80027   0.00000  Uiso   1.00
C832   C     0.96979   0.74698   0.76534   0.00000  Uiso   1.00
C833   C     0.53021   0.91969   0.90132   0.00000  Uiso   1.00
C834   C     0.51670   0.74561   0.76674   0.00000  Uiso   1.00
C835   C     0.98330   0.92105   0.89993   0.00000  Uiso   1.00
C836   C     0.75703   0.67944   0.81227   0.00000  Uiso   1.00
C837   C     0.74297   0.98723   0.85440   0.00000  Uiso   1.00
C838   C     0.66454   0.83313   0.83419   0.00000  Uiso   1.00
C839   C     0.83546   0.83354   0.83248   0.00000  Uiso   1.00
C840   C     0.90977   0.87685   0.86570   0.00000  Uiso   1.00
Cu841  Cu    0.75501   0.83913   0.89479   0.00000  Uiso   1.00
Cu842  Cu    0.74500   0.82754   0.77187   0.00000  Uiso   1.00
H843   H     0.89340   0.90942   0.89187   0.00000  Uiso   1.00
H844   H     0.98644   0.99268   0.94736   0.00000  Uiso   1.00
H845   H     0.60660   0.75724   0.77480   0.00000  Uiso   1.00
H846   H     0.88216   0.75867   0.76980   0.00000  Uiso   1.00
H847   H     0.61784   0.90800   0.89687   0.00000  Uiso   1.00
H848   H     0.94890   0.71387   0.73917   0.00000  Uiso   1.00
H849   H     0.55110   0.95280   0.92750   0.00000  Uiso   1.00
H850   H     0.71361   0.79489   0.98346   0.00000  Uiso   1.00
H851   H     0.78639   0.87178   0.68320   0.00000  Uiso   1.00
H852   H     0.51356   0.67399   0.71930   0.00000  Uiso   1.00
N853   N     0.73745   0.81881   0.67951   0.00000  Uiso   1.00
N854   N     0.76256   0.84786   0.98716   0.00000  Uiso   1.00
O855   O     0.75326   0.76204   0.87326   0.00000  Uiso   1.00
O856   O     0.96308   0.96442   0.93040   0.00000  Uiso   1.00
O857   O     0.74675   0.90462   0.79341   0.00000  Uiso   1.00
O858   O     0.74480   0.75226   0.76945   0.00000  Uiso   1.00
O859   O     0.75520   0.91441   0.89721   0.00000  Uiso   1.00
O860   O     0.68936   0.83821   0.88524   0.00000  Uiso   1.00
O861   O     0.81065   0.82845   0.78143   0.00000  Uiso   1.00
O862   O     0.68090   0.82843   0.78143   0.00000  Uiso   1.00
O863   O     0.81910   0.83824   0.88523   0.00000  Uiso   1.00
O864   O     0.53692   0.70225   0.73627   0.00000  Uiso   1.00
loop_
_geom_bond_atom_site_label_1
_geom_bond_atom_site_label_2
_geom_bond_distance
_geom_bond_site_symmetry_2
_ccdc_geom_bond_type
Br1    C116    1.936   .     S
Br2    C213    1.936   1_545 S
C3     O42     1.288   .     A
C3     O39     1.288   .     A
C3     C20     1.421   .     S
C4     H29     1.084   .     S
C4     C15     1.397   .     A
C4     C6      1.396   .     A
C5     C23     1.443   .     S
C5     C24     1.396   .     A
C5     C7      1.395   .     A
C6     C22     1.443   .     S
C6     C8      1.395   .     A
C7     H30     1.085   .     S
C7     C9      1.394   .     A
C8     H31     1.085   .     S
C8     C10     1.394   .     A
C9     C11     1.413   .     A
C9     C16     1.400   .     A
C10    C12     1.413   .     A
C10    C17     1.400   .     A
C11    C13     1.416   .     A
C11    C60     1.401   .     S
C12    C15     1.416   .     A
C12    C59     1.401   1_455 S
C13    C24     1.397   .     A
C13    C19     1.409   .     A
C14    O41     1.288   .     A
C14    C21     1.421   .     S
C14    O43     1.288   .     A
C15    C18     1.409   .     A
C16    H32     1.084   .     S
C16    C66     1.405   .     S
C17    H33     1.084   .     S
C17    C67     1.405   1_455 S
C18    O48     1.382   .     S
C18    C64     1.405   1_455 S
C19    O40     1.382   .     S
C19    C65     1.405   .     S
C20    Br193   1.936   1_545 S
C20    C213    1.341   1_545 S
C21    C116    1.341   .     S
C21    Br98    1.936   .     S
C22    O46     1.292   .     A
C22    O44     1.295   .     A
C23    O45     1.295   .     A
C23    O47     1.292   .     A
C24    H27     1.084   .     S
Cu25   N38     2.022   .     S
Cu25   O47     1.946   .     S
Cu25   O43     1.956   .     S
Cu25   O39     1.970   .     S
Cu25   O44     1.960   .     S
Cu25   Cu26    2.691   .     S
Cu26   N37     2.022   .     S
Cu26   O42     1.956   .     S
Cu26   O46     1.946   .     S
Cu26   O45     1.960   .     S
Cu26   O41     1.970   .     S
H28    O40     0.991   .     S
H34    N325    1.028   .     S
H35    N614    1.028   1_554 S
H36    O48     0.991   .     S
N37    H610    1.028   1_554 S
N37    N614    1.290   1_554 S
N38    N325    1.290   .     S
N38    H323    1.028   .     S
Br49   C164    1.936   .     S
Br50   C261    1.936   1_545 S
C51    O90     1.288   .     A
C51    O87     1.288   .     A
C51    C68     1.421   .     S
C52    H77     1.084   .     S
C52    C63     1.397   .     A
C52    C54     1.396   .     A
C53    C71     1.443   .     S
C53    C72     1.396   .     A
C53    C55     1.395   .     A
C54    C70     1.443   .     S
C54    C56     1.395   .     A
C55    H78     1.085   .     S
C55    C57     1.394   .     A
C56    H79     1.085   .     S
C56    C58     1.394   .     A
C57    C59     1.413   .     A
C57    C64     1.400   .     A
C58    C60     1.413   .     A
C58    C65     1.400   .     A
C59    C61     1.416   .     A
C59    C12     1.401   1_655 S
C60    C63     1.416   .     A
C61    C72     1.397   .     A
C61    C67     1.409   .     A
C62    O89     1.288   .     A
C62    C69     1.421   .     S
C62    O91     1.288   .     A
C63    C66     1.409   .     A
C64    H80     1.084   .     S
C64    C18     1.405   1_655 S
C65    H81     1.084   .     S
C66    O96     1.382   .     S
C67    O88     1.382   .     S
C67    C17     1.405   1_655 S
C68    Br241   1.936   1_545 S
C68    C261    1.341   1_545 S
C69    C164    1.341   .     S
C69    Br146   1.936   .     S
C70    O94     1.292   .     A
C70    O92     1.295   .     A
C71    O93     1.295   .     A
C71    O95     1.292   .     A
C72    H75     1.084   .     S
Cu73   N86     2.022   .     S
Cu73   O95     1.946   .     S
Cu73   O91     1.956   .     S
Cu73   O87     1.970   .     S
Cu73   O92     1.960   .     S
Cu73   Cu74    2.691   .     S
Cu74   N85     2.022   .     S
Cu74   O90     1.956   .     S
Cu74   O94     1.946   .     S
Cu74   O93     1.960   .     S
Cu74   O89     1.970   .     S
H76    O88     0.991   .     S
H82    N373    1.028   .     S
H83    N662    1.028   1_554 S
H84    O96     0.991   .     S
N85    H658    1.028   1_554 S
N85    N662    1.290   1_554 S
N86    N373    1.290   .     S
N86    H371    1.028   .     S
Br97   C212    1.936   .     S
C99    O138    1.288   .     A
C99    O135    1.288   .     A
C99    C116    1.421   .     S
C100   H125    1.084   .     S
C100   C111    1.397   .     A
C100   C102    1.396   .     A
C101   C119    1.443   .     S
C101   C120    1.396   .     A
C101   C103    1.395   .     A
C102   C118    1.443   .     S
C102   C104    1.395   .     A
C103   H126    1.085   .     S
C103   C105    1.394   .     A
C104   H127    1.085   .     S
C104   C106    1.394   .     A
C105   C107    1.413   .     A
C105   C112    1.400   .     A
C106   C108    1.413   .     A
C106   C113    1.400   .     A
C107   C109    1.416   .     A
C107   C156    1.401   .     S
C108   C111    1.416   .     A
C108   C155    1.401   1_455 S
C109   C120    1.397   .     A
C109   C115    1.409   .     A
C110   O137    1.288   .     A
C110   C117    1.421   .     S
C110   O139    1.288   .     A
C111   C114    1.409   .     A
C112   H128    1.084   .     S
C112   C162    1.405   .     S
C113   H129    1.084   .     S
C113   C163    1.405   1_455 S
C114   O144    1.382   .     S
C114   C160    1.405   1_455 S
C115   O136    1.382   .     S
C115   C161    1.405   .     S
C117   C212    1.341   .     S
C117   Br194   1.936   .     S
C118   O142    1.292   .     A
C118   O140    1.295   .     A
C119   O141    1.295   .     A
C119   O143    1.292   .     A
C120   H123    1.084   .     S
Cu121  N134    2.022   .     S
Cu121  O143    1.946   .     S
Cu121  O139    1.956   .     S
Cu121  O135    1.970   .     S
Cu121  O140    1.960   .     S
Cu121  Cu122   2.691   .     S
Cu122  N133    2.022   .     S
Cu122  O138    1.956   .     S
Cu122  O142    1.946   .     S
Cu122  O141    1.960   .     S
Cu122  O137    1.970   .     S
H124   O136    0.991   .     S
H130   N421    1.028   .     S
H131   N710    1.028   1_554 S
H132   O144    0.991   .     S
N133   H706    1.028   1_554 S
N133   N710    1.290   1_554 S
N134   N421    1.290   .     S
N134   H419    1.028   .     S
Br145  C260    1.936   .     S
C147   O186    1.288   .     A
C147   O183    1.288   .     A
C147   C164    1.421   .     S
C148   H173    1.084   .     S
C148   C159    1.397   .     A
C148   C150    1.396   .     A
C149   C167    1.443   .     S
C149   C168    1.396   .     A
C149   C151    1.395   .     A
C150   C166    1.443   .     S
C150   C152    1.395   .     A
C151   H174    1.085   .     S
C151   C153    1.394   .     A
C152   H175    1.085   .     S
C152   C154    1.394   .     A
C153   C155    1.413   .     A
C153   C160    1.400   .     A
C154   C156    1.413   .     A
C154   C161    1.400   .     A
C155   C157    1.416   .     A
C155   C108    1.401   1_655 S
C156   C159    1.416   .     A
C157   C168    1.397   .     A
C157   C163    1.409   .     A
C158   O185    1.288   .     A
C158   C165    1.421   .     S
C158   O187    1.288   .     A
C159   C162    1.409   .     A
C160   H176    1.084   .     S
C160   C114    1.405   1_655 S
C161   H177    1.084   .     S
C162   O192    1.382   .     S
C163   O184    1.382   .     S
C163   C113    1.405   1_655 S
C165   C260    1.341   .     S
C165   Br242   1.936   .     S
C166   O190    1.292   .     A
C166   O188    1.295   .     A
C167   O189    1.295   .     A
C167   O191    1.292   .     A
C168   H171    1.084   .     S
Cu169  N182    2.022   .     S
Cu169  O191    1.946   .     S
Cu169  O187    1.956   .     S
Cu169  O183    1.970   .     S
Cu169  O188    1.960   .     S
Cu169  Cu170   2.691   .     S
Cu170  N181    2.022   .     S
Cu170  O186    1.956   .     S
Cu170  O190    1.946   .     S
Cu170  O189    1.960   .     S
Cu170  O185    1.970   .     S
H172   O184    0.991   .     S
H178   N469    1.028   .     S
H179   N758    1.028   1_554 S
H180   O192    0.991   .     S
N181   H754    1.028   1_554 S
N181   N758    1.290   1_554 S
N182   N469    1.290   .     S
N182   H467    1.028   .     S
Br193  C20     1.936   1_565 S
C195   O234    1.288   .     A
C195   O231    1.288   .     A
C195   C212    1.421   .     S
C196   H221    1.084   .     S
C196   C207    1.397   .     A
C196   C198    1.396   .     A
C197   C215    1.443   .     S
C197   C216    1.396   .     A
C197   C199    1.395   .     A
C198   C214    1.443   .     S
C198   C200    1.395   .     A
C199   H222    1.085   .     S
C199   C201    1.394   .     A
C200   H223    1.085   .     S
C200   C202    1.394   .     A
C201   C203    1.413   .     A
C201   C208    1.400   .     A
C202   C204    1.413   .     A
C202   C209    1.400   .     A
C203   C205    1.416   .     A
C203   C252    1.401   .     S
C204   C207    1.416   .     A
C204   C251    1.401   1_455 S
C205   C216    1.397   .     A
C205   C211    1.409   .     A
C206   O233    1.288   .     A
C206   C213    1.421   .     S
C206   O235    1.288   .     A
C207   C210    1.409   .     A
C208   H224    1.084   .     S
C208   C258    1.405   .     S
C209   H225    1.084   .     S
C209   C259    1.405   1_455 S
C210   O240    1.382   .     S
C210   C256    1.405   1_455 S
C211   O232    1.382   .     S
C211   C257    1.405   .     S
C213   C20     1.341   1_565 S
C213   Br2     1.936   1_565 S
C214   O238    1.292   .     A
C214   O236    1.295   .     A
C215   O237    1.295   .     A
C215   O239    1.292   .     A
C216   H219    1.084   .     S
Cu217  N230    2.022   .     S
Cu217  O239    1.946   .     S
Cu217  O235    1.956   .     S
Cu217  O231    1.970   .     S
Cu217  O236    1.960   .     S
Cu217  Cu218   2.691   .     S
Cu218  N229    2.022   .     S
Cu218  O234    1.956   .     S
Cu218  O238    1.946   .     S
Cu218  O237    1.960   .     S
Cu218  O233    1.970   .     S
H220   O232    0.991   .     S
H226   N517    1.028   .     S
H227   N806    1.028   1_554 S
H228   O240    0.991   .     S
N229   H802    1.028   1_554 S
N229   N806    1.290   1_554 S
N230   N517    1.290   .     S
N230   H515    1.028   .     S
Br241  C68     1.936   1_565 S
C243   O282    1.288   .     A
C243   O279    1.288   .     A
C243   C260    1.421   .     S
C244   H269    1.084   .     S
C244   C255    1.397   .     A
C244   C246    1.396   .     A
C245   C263    1.443   .     S
C245   C264    1.396   .     A
C245   C247    1.395   .     A
C246   C262    1.443   .     S
C246   C248    1.395   .     A
C247   H270    1.085   .     S
C247   C249    1.394   .     A
C248   H271    1.085   .     S
C248   C250    1.394   .     A
C249   C251    1.413   .     A
C249   C256    1.400   .     A
C250   C252    1.413   .     A
C250   C257    1.400   .     A
C251   C253    1.416   .     A
C251   C204    1.401   1_655 S
C252   C255    1.416   .     A
C253   C264    1.397   .     A
C253   C259    1.409   .     A
C254   O281    1.288   .     A
C254   C261    1.421   .     S
C254   O283    1.288   .     A
C255   C258    1.409   .     A
C256   H272    1.084   .     S
C256   C210    1.405   1_655 S
C257   H273    1.084   .     S
C258   O288    1.382   .     S
C259   O280    1.382   .     S
C259   C209    1.405   1_655 S
C261   C68     1.341   1_565 S
C261   Br50    1.936   1_565 S
C262   O286    1.292   .     A
C262   O284    1.295   .     A
C263   O285    1.295   .     A
C263   O287    1.292   .     A
C264   H267    1.084   .     S
Cu265  N278    2.022   .     S
Cu265  O287    1.946   .     S
Cu265  O283    1.956   .     S
Cu265  O279    1.970   .     S
Cu265  O284    1.960   .     S
Cu265  Cu266   2.691   .     S
Cu266  N277    2.022   .     S
Cu266  O282    1.956   .     S
Cu266  O286    1.946   .     S
Cu266  O285    1.960   .     S
Cu266  O281    1.970   .     S
H268   O280    0.991   .     S
H274   N565    1.028   .     S
H275   N854    1.028   1_554 S
H276   O288    0.991   .     S
N277   H850    1.028   1_554 S
N277   N854    1.290   1_554 S
N278   N565    1.290   .     S
N278   H563    1.028   .     S
Br289  C404    1.936   .     S
Br290  C501    1.936   1_545 S
C291   O330    1.288   .     A
C291   O327    1.288   .     A
C291   C308    1.421   .     S
C292   H317    1.084   .     S
C292   C303    1.397   .     A
C292   C294    1.396   .     A
C293   C311    1.443   .     S
C293   C312    1.396   .     A
C293   C295    1.395   .     A
C294   C310    1.443   .     S
C294   C296    1.395   .     A
C295   H318    1.085   .     S
C295   C297    1.394   .     A
C296   H319    1.085   .     S
C296   C298    1.394   .     A
C297   C299    1.413   .     A
C297   C304    1.400   .     A
C298   C300    1.413   .     A
C298   C305    1.400   .     A
C299   C301    1.416   .     A
C299   C348    1.401   .     S
C300   C303    1.416   .     A
C300   C347    1.401   1_455 S
C301   C312    1.397   .     A
C301   C307    1.409   .     A
C302   O329    1.288   .     A
C302   C309    1.421   .     S
C302   O331    1.288   .     A
C303   C306    1.409   .     A
C304   H320    1.084   .     S
C304   C354    1.405   .     S
C305   H321    1.084   .     S
C305   C355    1.405   1_455 S
C306   O336    1.382   .     S
C306   C352    1.405   1_455 S
C307   O328    1.382   .     S
C307   C353    1.405   .     S
C308   Br481   1.936   1_545 S
C308   C501    1.341   1_545 S
C309   C404    1.341   .     S
C309   Br386   1.936   .     S
C310   O334    1.292   .     A
C310   O332    1.295   .     A
C311   O333    1.295   .     A
C311   O335    1.292   .     A
C312   H315    1.084   .     S
Cu313  N326    2.022   .     S
Cu313  O335    1.946   .     S
Cu313  O331    1.956   .     S
Cu313  O327    1.970   .     S
Cu313  O332    1.960   .     S
Cu313  Cu314   2.691   .     S
Cu314  N325    2.022   .     S
Cu314  O330    1.956   .     S
Cu314  O334    1.946   .     S
Cu314  O333    1.960   .     S
Cu314  O329    1.970   .     S
H316   O328    0.991   .     S
H322   N613    1.028   .     S
H324   O336    0.991   .     S
N326   N613    1.290   .     S
N326   H611    1.028   .     S
Br337  C452    1.936   .     S
Br338  C549    1.936   1_545 S
C339   O378    1.288   .     A
C339   O375    1.288   .     A
C339   C356    1.421   .     S
C340   H365    1.084   .     S
C340   C351    1.397   .     A
C340   C342    1.396   .     A
C341   C359    1.443   .     S
C341   C360    1.396   .     A
C341   C343    1.395   .     A
C342   C358    1.443   .     S
C342   C344    1.395   .     A
C343   H366    1.085   .     S
C343   C345    1.394   .     A
C344   H367    1.085   .     S
C344   C346    1.394   .     A
C345   C347    1.413   .     A
C345   C352    1.400   .     A
C346   C348    1.413   .     A
C346   C353    1.400   .     A
C347   C349    1.416   .     A
C347   C300    1.401   1_655 S
C348   C351    1.416   .     A
C349   C360    1.397   .     A
C349   C355    1.409   .     A
C350   O377    1.288   .     A
C350   C357    1.421   .     S
C350   O379    1.288   .     A
C351   C354    1.409   .     A
C352   H368    1.084   .     S
C352   C306    1.405   1_655 S
C353   H369    1.084   .     S
C354   O384    1.382   .     S
C355   O376    1.382   .     S
C355   C305    1.405   1_655 S
C356   Br529   1.936   1_545 S
C356   C549    1.341   1_545 S
C357   C452    1.341   .     S
C357   Br434   1.936   .     S
C358   O382    1.292   .     A
C358   O380    1.295   .     A
C359   O381    1.295   .     A
C359   O383    1.292   .     A
C360   H363    1.084   .     S
Cu361  N374    2.022   .     S
Cu361  O383    1.946   .     S
Cu361  O379    1.956   .     S
Cu361  O375    1.970   .     S
Cu361  O380    1.960   .     S
Cu361  Cu362   2.691   .     S
Cu362  N373    2.022   .     S
Cu362  O378    1.956   .     S
Cu362  O382    1.946   .     S
Cu362  O381    1.960   .     S
Cu362  O377    1.970   .     S
H364   O376    0.991   .     S
H370   N661    1.028   .     S
H372   O384    0.991   .     S
N374   N661    1.290   .     S
N374   H659    1.028   .     S
Br385  C500    1.936   .     S
C387   O426    1.288   .     A
C387   O423    1.288   .     A
C387   C404    1.421   .     S
C388   H413    1.084   .     S
C388   C399    1.397   .     A
C388   C390    1.396   .     A
C389   C407    1.443   .     S
C389   C408    1.396   .     A
C389   C391    1.395   .     A
C390   C406    1.443   .     S
C390   C392    1.395   .     A
C391   H414    1.085   .     S
C391   C393    1.394   .     A
C392   H415    1.085   .     S
C392   C394    1.394   .     A
C393   C395    1.413   .     A
C393   C400    1.400   .     A
C394   C396    1.413   .     A
C394   C401    1.400   .     A
C395   C397    1.416   .     A
C395   C444    1.401   .     S
C396   C399    1.416   .     A
C396   C443    1.401   1_455 S
C397   C408    1.397   .     A
C397   C403    1.409   .     A
C398   O425    1.288   .     A
C398   C405    1.421   .     S
C398   O427    1.288   .     A
C399   C402    1.409   .     A
C400   H416    1.084   .     S
C400   C450    1.405   .     S
C401   H417    1.084   .     S
C401   C451    1.405   1_455 S
C402   O432    1.382   .     S
C402   C448    1.405   1_455 S
C403   O424    1.382   .     S
C403   C449    1.405   .     S
C405   C500    1.341   .     S
C405   Br482   1.936   .     S
C406   O430    1.292   .     A
C406   O428    1.295   .     A
C407   O429    1.295   .     A
C407   O431    1.292   .     A
C408   H411    1.084   .     S
Cu409  N422    2.022   .     S
Cu409  O431    1.946   .     S
Cu409  O427    1.956   .     S
Cu409  O423    1.970   .     S
Cu409  O428    1.960   .     S
Cu409  Cu410   2.691   .     S
Cu410  N421    2.022   .     S
Cu410  O426    1.956   .     S
Cu410  O430    1.946   .     S
Cu410  O429    1.960   .     S
Cu410  O425    1.970   .     S
H412   O424    0.991   .     S
H418   N709    1.028   .     S
H420   O432    0.991   .     S
N422   N709    1.290   .     S
N422   H707    1.028   .     S
Br433  C548    1.936   .     S
C435   O474    1.288   .     A
C435   O471    1.288   .     A
C435   C452    1.421   .     S
C436   H461    1.084   .     S
C436   C447    1.397   .     A
C436   C438    1.396   .     A
C437   C455    1.443   .     S
C437   C456    1.396   .     A
C437   C439    1.395   .     A
C438   C454    1.443   .     S
C438   C440    1.395   .     A
C439   H462    1.085   .     S
C439   C441    1.394   .     A
C440   H463    1.085   .     S
C440   C442    1.394   .     A
C441   C443    1.413   .     A
C441   C448    1.400   .     A
C442   C444    1.413   .     A
C442   C449    1.400   .     A
C443   C445    1.416   .     A
C443   C396    1.401   1_655 S
C444   C447    1.416   .     A
C445   C456    1.397   .     A
C445   C451    1.409   .     A
C446   O473    1.288   .     A
C446   C453    1.421   .     S
C446   O475    1.288   .     A
C447   C450    1.409   .     A
C448   H464    1.084   .     S
C448   C402    1.405   1_655 S
C449   H465    1.084   .     S
C450   O480    1.382   .     S
C451   O472    1.382   .     S
C451   C401    1.405   1_655 S
C453   C548    1.341   .     S
C453   Br530   1.936   .     S
C454   O478    1.292   .     A
C454   O476    1.295   .     A
C455   O477    1.295   .     A
C455   O479    1.292   .     A
C456   H459    1.084   .     S
Cu457  N470    2.022   .     S
Cu457  O479    1.946   .     S
Cu457  O475    1.956   .     S
Cu457  O471    1.970   .     S
Cu457  O476    1.960   .     S
Cu457  Cu458   2.691   .     S
Cu458  N469    2.022   .     S
Cu458  O474    1.956   .     S
Cu458  O478    1.946   .     S
Cu458  O477    1.960   .     S
Cu458  O473    1.970   .     S
H460   O472    0.991   .     S
H466   N757    1.028   .     S
H468   O480    0.991   .     S
N470   N757    1.290   .     S
N470   H755    1.028   .     S
Br481  C308    1.936   1_565 S
C483   O522    1.288   .     A
C483   O519    1.288   .     A
C483   C500    1.421   .     S
C484   H509    1.084   .     S
C484   C495    1.397   .     A
C484   C486    1.396   .     A
C485   C503    1.443   .     S
C485   C504    1.396   .     A
C485   C487    1.395   .     A
C486   C502    1.443   .     S
C486   C488    1.395   .     A
C487   H510    1.085   .     S
C487   C489    1.394   .     A
C488   H511    1.085   .     S
C488   C490    1.394   .     A
C489   C491    1.413   .     A
C489   C496    1.400   .     A
C490   C492    1.413   .     A
C490   C497    1.400   .     A
C491   C493    1.416   .     A
C491   C540    1.401   .     S
C492   C495    1.416   .     A
C492   C539    1.401   1_455 S
C493   C504    1.397   .     A
C493   C499    1.409   .     A
C494   O521    1.288   .     A
C494   C501    1.421   .     S
C494   O523    1.288   .     A
C495   C498    1.409   .     A
C496   H512    1.084   .     S
C496   C546    1.405   .     S
C497   H513    1.084   .     S
C497   C547    1.405   1_455 S
C498   O528    1.382   .     S
C498   C544    1.405   1_455 S
C499   O520    1.382   .     S
C499   C545    1.405   .     S
C501   C308    1.341   1_565 S
C501   Br290   1.936   1_565 S
C502   O526    1.292   .     A
C502   O524    1.295   .     A
C503   O525    1.295   .     A
C503   O527    1.292   .     A
C504   H507    1.084   .     S
Cu505  N518    2.022   .     S
Cu505  O527    1.946   .     S
Cu505  O523    1.956   .     S
Cu505  O519    1.970   .     S
Cu505  O524    1.960   .     S
Cu505  Cu506   2.691   .     S
Cu506  N517    2.022   .     S
Cu506  O522    1.956   .     S
Cu506  O526    1.946   .     S
Cu506  O525    1.960   .     S
Cu506  O521    1.970   .     S
H508   O520    0.991   .     S
H514   N805    1.028   .     S
H516   O528    0.991   .     S
N518   N805    1.290   .     S
N518   H803    1.028   .     S
Br529  C356    1.936   1_565 S
C531   O570    1.288   .     A
C531   O567    1.288   .     A
C531   C548    1.421   .     S
C532   H557    1.084   .     S
C532   C543    1.397   .     A
C532   C534    1.396   .     A
C533   C551    1.443   .     S
C533   C552    1.396   .     A
C533   C535    1.395   .     A
C534   C550    1.443   .     S
C534   C536    1.395   .     A
C535   H558    1.085   .     S
C535   C537    1.394   .     A
C536   H559    1.085   .     S
C536   C538    1.394   .     A
C537   C539    1.413   .     A
C537   C544    1.400   .     A
C538   C540    1.413   .     A
C538   C545    1.400   .     A
C539   C541    1.416   .     A
C539   C492    1.401   1_655 S
C540   C543    1.416   .     A
C541   C552    1.397   .     A
C541   C547    1.409   .     A
C542   O569    1.288   .     A
C542   C549    1.421   .     S
C542   O571    1.288   .     A
C543   C546    1.409   .     A
C544   H560    1.084   .     S
C544   C498    1.405   1_655 S
C545   H561    1.084   .     S
C546   O576    1.382   .     S
C547   O568    1.382   .     S
C547   C497    1.405   1_655 S
C549   C356    1.341   1_565 S
C549   Br338   1.936   1_565 S
C550   O574    1.292   .     A
C550   O572    1.295   .     A
C551   O573    1.295   .     A
C551   O575    1.292   .     A
C552   H555    1.084   .     S
Cu553  N566    2.022   .     S
Cu553  O575    1.946   .     S
Cu553  O571    1.956   .     S
Cu553  O567    1.970   .     S
Cu553  O572    1.960   .     S
Cu553  Cu554   2.691   .     S
Cu554  N565    2.022   .     S
Cu554  O570    1.956   .     S
Cu554  O574    1.946   .     S
Cu554  O573    1.960   .     S
Cu554  O569    1.970   .     S
H556   O568    0.991   .     S
H562   N853    1.028   .     S
H564   O576    0.991   .     S
N566   N853    1.290   .     S
N566   H851    1.028   .     S
Br577  C692    1.936   .     S
Br578  C789    1.936   1_545 S
C579   O618    1.288   .     A
C579   O615    1.288   .     A
C579   C596    1.421   .     S
C580   H605    1.084   .     S
C580   C591    1.397   .     A
C580   C582    1.396   .     A
C581   C599    1.443   .     S
C581   C600    1.396   .     A
C581   C583    1.395   .     A
C582   C598    1.443   .     S
C582   C584    1.395   .     A
C583   H606    1.085   .     S
C583   C585    1.394   .     A
C584   H607    1.085   .     S
C584   C586    1.394   .     A
C585   C587    1.413   .     A
C585   C592    1.400   .     A
C586   C588    1.413   .     A
C586   C593    1.400   .     A
C587   C589    1.416   .     A
C587   C636    1.401   .     S
C588   C591    1.416   .     A
C588   C635    1.401   1_455 S
C589   C600    1.397   .     A
C589   C595    1.409   .     A
C590   O617    1.288   .     A
C590   C597    1.421   .     S
C590   O619    1.288   .     A
C591   C594    1.409   .     A
C592   H608    1.084   .     S
C592   C642    1.405   .     S
C593   H609    1.084   .     S
C593   C643    1.405   1_455 S
C594   O624    1.382   .     S
C594   C640    1.405   1_455 S
C595   O616    1.382   .     S
C595   C641    1.405   .     S
C596   Br769   1.936   1_545 S
C596   C789    1.341   1_545 S
C597   C692    1.341   .     S
C597   Br674   1.936   .     S
C598   O622    1.292   .     A
C598   O620    1.295   .     A
C599   O621    1.295   .     A
C599   O623    1.292   .     A
C600   H603    1.084   .     S
Cu601  N614    2.022   .     S
Cu601  O623    1.946   .     S
Cu601  O619    1.956   .     S
Cu601  O615    1.970   .     S
Cu601  O620    1.960   .     S
Cu601  Cu602   2.691   .     S
Cu602  N613    2.022   .     S
Cu602  O618    1.956   .     S
Cu602  O622    1.946   .     S
Cu602  O621    1.960   .     S
Cu602  O617    1.970   .     S
H604   O616    0.991   .     S
H610   N37     1.028   1_556 S
H612   O624    0.991   .     S
N614   N37     1.290   1_556 S
N614   H35     1.028   1_556 S
Br625  C740    1.936   .     S
Br626  C837    1.936   1_545 S
C627   O666    1.288   .     A
C627   O663    1.288   .     A
C627   C644    1.421   .     S
C628   H653    1.084   .     S
C628   C639    1.397   .     A
C628   C630    1.396   .     A
C629   C647    1.443   .     S
C629   C648    1.396   .     A
C629   C631    1.395   .     A
C630   C646    1.443   .     S
C630   C632    1.395   .     A
C631   H654    1.085   .     S
C631   C633    1.394   .     A
C632   H655    1.085   .     S
C632   C634    1.394   .     A
C633   C635    1.413   .     A
C633   C640    1.400   .     A
C634   C636    1.413   .     A
C634   C641    1.400   .     A
C635   C637    1.416   .     A
C635   C588    1.401   1_655 S
C636   C639    1.416   .     A
C637   C648    1.397   .     A
C637   C643    1.409   .     A
C638   O665    1.288   .     A
C638   C645    1.421   .     S
C638   O667    1.288   .     A
C639   C642    1.409   .     A
C640   H656    1.084   .     S
C640   C594    1.405   1_655 S
C641   H657    1.084   .     S
C642   O672    1.382   .     S
C643   O664    1.382   .     S
C643   C593    1.405   1_655 S
C644   Br817   1.936   1_545 S
C644   C837    1.341   1_545 S
C645   C740    1.341   .     S
C645   Br722   1.936   .     S
C646   O670    1.292   .     A
C646   O668    1.295   .     A
C647   O669    1.295   .     A
C647   O671    1.292   .     A
C648   H651    1.084   .     S
Cu649  N662    2.022   .     S
Cu649  O671    1.946   .     S
Cu649  O667    1.956   .     S
Cu649  O663    1.970   .     S
Cu649  O668    1.960   .     S
Cu649  Cu650   2.691   .     S
Cu650  N661    2.022   .     S
Cu650  O666    1.956   .     S
Cu650  O670    1.946   .     S
Cu650  O669    1.960   .     S
Cu650  O665    1.970   .     S
H652   O664    0.991   .     S
H658   N85     1.028   1_556 S
H660   O672    0.991   .     S
N662   N85     1.290   1_556 S
N662   H83     1.028   1_556 S
Br673  C788    1.936   .     S
C675   O714    1.288   .     A
C675   O711    1.288   .     A
C675   C692    1.421   .     S
C676   H701    1.084   .     S
C676   C687    1.397   .     A
C676   C678    1.396   .     A
C677   C695    1.443   .     S
C677   C696    1.396   .     A
C677   C679    1.395   .     A
C678   C694    1.443   .     S
C678   C680    1.395   .     A
C679   H702    1.085   .     S
C679   C681    1.394   .     A
C680   H703    1.085   .     S
C680   C682    1.394   .     A
C681   C683    1.413   .     A
C681   C688    1.400   .     A
C682   C684    1.413   .     A
C682   C689    1.400   .     A
C683   C685    1.416   .     A
C683   C732    1.401   .     S
C684   C687    1.416   .     A
C684   C731    1.401   1_455 S
C685   C696    1.397   .     A
C685   C691    1.409   .     A
C686   O713    1.288   .     A
C686   C693    1.421   .     S
C686   O715    1.288   .     A
C687   C690    1.409   .     A
C688   H704    1.084   .     S
C688   C738    1.405   .     S
C689   H705    1.084   .     S
C689   C739    1.405   1_455 S
C690   O720    1.382   .     S
C690   C736    1.405   1_455 S
C691   O712    1.382   .     S
C691   C737    1.405   .     S
C693   C788    1.341   .     S
C693   Br770   1.936   .     S
C694   O718    1.292   .     A
C694   O716    1.295   .     A
C695   O717    1.295   .     A
C695   O719    1.292   .     A
C696   H699    1.084   .     S
Cu697  N710    2.022   .     S
Cu697  O719    1.946   .     S
Cu697  O715    1.956   .     S
Cu697  O711    1.970   .     S
Cu697  O716    1.960   .     S
Cu697  Cu698   2.691   .     S
Cu698  N709    2.022   .     S
Cu698  O714    1.956   .     S
Cu698  O718    1.946   .     S
Cu698  O717    1.960   .     S
Cu698  O713    1.970   .     S
H700   O712    0.991   .     S
H706   N133    1.028   1_556 S
H708   O720    0.991   .     S
N710   N133    1.290   1_556 S
N710   H131    1.028   1_556 S
Br721  C836    1.936   .     S
C723   O762    1.288   .     A
C723   O759    1.288   .     A
C723   C740    1.421   .     S
C724   H749    1.084   .     S
C724   C735    1.397   .     A
C724   C726    1.396   .     A
C725   C743    1.443   .     S
C725   C744    1.396   .     A
C725   C727    1.395   .     A
C726   C742    1.443   .     S
C726   C728    1.395   .     A
C727   H750    1.085   .     S
C727   C729    1.394   .     A
C728   H751    1.085   .     S
C728   C730    1.394   .     A
C729   C731    1.413   .     A
C729   C736    1.400   .     A
C730   C732    1.413   .     A
C730   C737    1.400   .     A
C731   C733    1.416   .     A
C731   C684    1.401   1_655 S
C732   C735    1.416   .     A
C733   C744    1.397   .     A
C733   C739    1.409   .     A
C734   O761    1.288   .     A
C734   C741    1.421   .     S
C734   O763    1.288   .     A
C735   C738    1.409   .     A
C736   H752    1.084   .     S
C736   C690    1.405   1_655 S
C737   H753    1.084   .     S
C738   O768    1.382   .     S
C739   O760    1.382   .     S
C739   C689    1.405   1_655 S
C741   C836    1.341   .     S
C741   Br818   1.936   .     S
C742   O766    1.292   .     A
C742   O764    1.295   .     A
C743   O765    1.295   .     A
C743   O767    1.292   .     A
C744   H747    1.084   .     S
Cu745  N758    2.022   .     S
Cu745  O767    1.946   .     S
Cu745  O763    1.956   .     S
Cu745  O759    1.970   .     S
Cu745  O764    1.960   .     S
Cu745  Cu746   2.691   .     S
Cu746  N757    2.022   .     S
Cu746  O762    1.956   .     S
Cu746  O766    1.946   .     S
Cu746  O765    1.960   .     S
Cu746  O761    1.970   .     S
H748   O760    0.991   .     S
H754   N181    1.028   1_556 S
H756   O768    0.991   .     S
N758   N181    1.290   1_556 S
N758   H179    1.028   1_556 S
Br769  C596    1.936   1_565 S
C771   O810    1.288   .     A
C771   O807    1.288   .     A
C771   C788    1.421   .     S
C772   H797    1.084   .     S
C772   C783    1.397   .     A
C772   C774    1.396   .     A
C773   C791    1.443   .     S
C773   C792    1.396   .     A
C773   C775    1.395   .     A
C774   C790    1.443   .     S
C774   C776    1.395   .     A
C775   H798    1.085   .     S
C775   C777    1.394   .     A
C776   H799    1.085   .     S
C776   C778    1.394   .     A
C777   C779    1.413   .     A
C777   C784    1.400   .     A
C778   C780    1.413   .     A
C778   C785    1.400   .     A
C779   C781    1.416   .     A
C779   C828    1.401   .     S
C780   C783    1.416   .     A
C780   C827    1.401   1_455 S
C781   C792    1.397   .     A
C781   C787    1.409   .     A
C782   O809    1.288   .     A
C782   C789    1.421   .     S
C782   O811    1.288   .     A
C783   C786    1.409   .     A
C784   H800    1.084   .     S
C784   C834    1.405   .     S
C785   H801    1.084   .     S
C785   C835    1.405   1_455 S
C786   O816    1.382   .     S
C786   C832    1.405   1_455 S
C787   O808    1.382   .     S
C787   C833    1.405   .     S
C789   C596    1.341   1_565 S
C789   Br578   1.936   1_565 S
C790   O814    1.292   .     A
C790   O812    1.295   .     A
C791   O813    1.295   .     A
C791   O815    1.292   .     A
C792   H795    1.084   .     S
Cu793  N806    2.022   .     S
Cu793  O815    1.946   .     S
Cu793  O811    1.956   .     S
Cu793  O807    1.970   .     S
Cu793  O812    1.960   .     S
Cu793  Cu794   2.691   .     S
Cu794  N805    2.022   .     S
Cu794  O810    1.956   .     S
Cu794  O814    1.946   .     S
Cu794  O813    1.960   .     S
Cu794  O809    1.970   .     S
H796   O808    0.991   .     S
H802   N229    1.028   1_556 S
H804   O816    0.991   .     S
N806   N229    1.290   1_556 S
N806   H227    1.028   1_556 S
Br817  C644    1.936   1_565 S
C819   O858    1.288   .     A
C819   O855    1.288   .     A
C819   C836    1.421   .     S
C820   H845    1.084   .     S
C820   C831    1.397   .     A
C820   C822    1.396   .     A
C821   C839    1.443   .     S
C821   C840    1.396   .     A
C821   C823    1.395   .     A
C822   C838    1.443   .     S
C822   C824    1.395   .     A
C823   H846    1.085   .     S
C823   C825    1.394   .     A
C824   H847    1.085   .     S
C824   C826    1.394   .     A
C825   C827    1.413   .     A
C825   C832    1.400   .     A
C826   C828    1.413   .     A
C826   C833    1.400   .     A
C827   C829    1.416   .     A
C827   C780    1.401   1_655 S
C828   C831    1.416   .     A
C829   C840    1.397   .     A
C829   C835    1.409   .     A
C830   O857    1.288   .     A
C830   C837    1.421   .     S
C830   O859    1.288   .     A
C831   C834    1.409   .     A
C832   H848    1.084   .     S
C832   C786    1.405   1_655 S
C833   H849    1.084   .     S
C834   O864    1.382   .     S
C835   O856    1.382   .     S
C835   C785    1.405   1_655 S
C837   C644    1.341   1_565 S
C837   Br626   1.936   1_565 S
C838   O862    1.292   .     A
C838   O860    1.295   .     A
C839   O861    1.295   .     A
C839   O863    1.292   .     A
C840   H843    1.084   .     S
Cu841  N854    2.022   .     S
Cu841  O863    1.946   .     S
Cu841  O859    1.956   .     S
Cu841  O855    1.970   .     S
Cu841  O860    1.960   .     S
Cu841  Cu842   2.691   .     S
Cu842  N853    2.022   .     S
Cu842  O858    1.956   .     S
Cu842  O862    1.946   .     S
Cu842  O861    1.960   .     S
Cu842  O857    1.970   .     S
H844   O856    0.991   .     S
H850   N277    1.028   1_556 S
H852   O864    0.991   .     S
N854   N277    1.290   1_556 S
N854   H275    1.028   1_556 S
