data_str_m3_o1_o16_pcu_sym.69
_audit_creation_date              2020-01-03
_audit_creation_method            'Materials Studio'
_symmetry_space_group_name_H-M    'P1'
_symmetry_Int_Tables_number       1
_symmetry_cell_setting            triclinic
loop_
_symmetry_equiv_pos_as_xyz
  x,y,z
_cell_length_a                    29.5831
_cell_length_b                    32.1570
_cell_length_c                    26.2595
_cell_angle_alpha                 90.1284
_cell_angle_beta                  72.2936
_cell_angle_gamma                 90.0699
loop_
_atom_site_label
_atom_site_type_symbol
_atom_site_fract_x
_atom_site_fract_y
_atom_site_fract_z
_atom_site_U_iso_or_equiv
_atom_site_adp_type
_atom_site_occupancy
C1     C     0.16665   0.24669   0.25018   0.00000  Uiso   1.00
C2     C     0.12979   0.14083   0.40404   0.00000  Uiso   1.00
C3     C     0.20956   0.31207   0.24150   0.00000  Uiso   1.00
C4     C     0.14193   0.15835   0.34976   0.00000  Uiso   1.00
C5     C     0.20955   0.02134   0.24138   0.00000  Uiso   1.00
C6     C     0.16660   0.04248   0.25023   0.00000  Uiso   1.00
C7     C     0.12363   0.02127   0.25939   0.00000  Uiso   1.00
C8     C     0.12364   0.31200   0.25951   0.00000  Uiso   1.00
C9     C     0.16662   0.29085   0.25044   0.00000  Uiso   1.00
C10    C     0.31800   0.13996   0.21794   0.00000  Uiso   1.00
C11    C     0.03258   0.13999   0.21791   0.00000  Uiso   1.00
C12    C     0.15089   0.13440   0.48628   0.00000  Uiso   1.00
C13    C     0.01543   0.19332   0.28215   0.00000  Uiso   1.00
C14    C     0.30069   0.19346   0.28219   0.00000  Uiso   1.00
C15    C     0.16665   0.08664   0.24997   0.00000  Uiso   1.00
C16    C     0.19231   0.16649   0.14835   0.00000  Uiso   1.00
C17    C     0.26505   0.17167   0.00460   0.00000  Uiso   1.00
C18    C     0.20689   0.16307   0.09078   0.00000  Uiso   1.00
C19    C     0.08282   0.13067   0.43128   0.00000  Uiso   1.00
C20    C     0.06938   0.12247   0.48586   0.00000  Uiso   1.00
C21    C     0.10244   0.12625   0.01384   0.00000  Uiso   1.00
C22    C     0.16492   0.13536   0.43007   0.00000  Uiso   1.00
C23    C     0.18568   0.14408   0.01177   0.00000  Uiso   1.00
C24    C     0.23311   0.15336   0.48050   0.00000  Uiso   1.00
C25    C     0.24731   0.14363   0.42620   0.00000  Uiso   1.00
C26    C     0.21376   0.13209   0.40210   0.00000  Uiso   1.00
C27    C     0.17409   0.14781   0.06698   0.00000  Uiso   1.00
C28    C     0.25193   0.17563   0.05981   0.00000  Uiso   1.00
H29    H     0.27651   0.18934   0.07839   0.00000  Uiso   1.00
H30    H     0.05690   0.12902   0.40992   0.00000  Uiso   1.00
H31    H     0.08901   0.12214   0.05650   0.00000  Uiso   1.00
H32    H     0.03277   0.11507   0.00701   0.00000  Uiso   1.00
H33    H     0.22669   0.12177   0.36103   0.00000  Uiso   1.00
H34    H     0.24305   0.29590   0.23421   0.00000  Uiso   1.00
H35    H     0.26727   0.21684   0.35521   0.00000  Uiso   1.00
H36    H     0.28027   0.25203   0.30526   0.00000  Uiso   1.00
H37    H     0.32955   0.16633   0.45056   0.00000  Uiso   1.00
H38    H     0.30209   0.21186   0.44830   0.00000  Uiso   1.00
H39    H     0.24305   0.03756   0.23401   0.00000  Uiso   1.00
H40    H     0.09015   0.03745   0.26667   0.00000  Uiso   1.00
H41    H     0.09014   0.29577   0.26688   0.00000  Uiso   1.00
H42    H     0.30680   0.11859   0.19224   0.00000  Uiso   1.00
H43    H     0.05761   0.11866   0.19217   0.00000  Uiso   1.00
H44    H     0.02687   0.21459   0.30778   0.00000  Uiso   1.00
H45    H     0.28404   0.14518   0.40180   0.00000  Uiso   1.00
H46    H     0.13947   0.13919   0.09248   0.00000  Uiso   1.00
N47    N     0.04760   0.16668   0.25002   0.00000  Uiso   1.00
N48    N     0.28573   0.16665   0.25001   0.00000  Uiso   1.00
N49    N     0.26768   0.22188   0.31577   0.00000  Uiso   1.00
N50    N     0.30913   0.18962   0.47386   0.00000  Uiso   1.00
O51    O     0.12846   0.22775   0.25001   0.00000  Uiso   1.00
O52    O     0.20490   0.22774   0.25001   0.00000  Uiso   1.00
O53    O     0.10947   0.16666   0.32681   0.00000  Uiso   1.00
O54    O     0.18591   0.16665   0.32681   0.00000  Uiso   1.00
O55    O     0.12843   0.10559   0.25000   0.00000  Uiso   1.00
O56    O     0.20488   0.10558   0.25000   0.00000  Uiso   1.00
O57    O     0.14742   0.16668   0.17319   0.00000  Uiso   1.00
O58    O     0.22387   0.16667   0.17319   0.00000  Uiso   1.00
Zn59   Zn    0.11562   0.16667   0.25000   0.00000  Uiso   1.00
Zn60   Zn    0.21771   0.16666   0.25000   0.00000  Uiso   1.00
C61    C     0.49999   0.24669   0.25018   0.00000  Uiso   1.00
C62    C     0.46312   0.14083   0.40404   0.00000  Uiso   1.00
C63    C     0.54289   0.31207   0.24150   0.00000  Uiso   1.00
C64    C     0.47526   0.15835   0.34976   0.00000  Uiso   1.00
C65    C     0.54289   0.02134   0.24138   0.00000  Uiso   1.00
C66    C     0.49993   0.04248   0.25023   0.00000  Uiso   1.00
C67    C     0.45697   0.02127   0.25939   0.00000  Uiso   1.00
C68    C     0.45697   0.31200   0.25951   0.00000  Uiso   1.00
C69    C     0.49995   0.29085   0.25044   0.00000  Uiso   1.00
C70    C     0.65133   0.13996   0.21794   0.00000  Uiso   1.00
C71    C     0.36591   0.13999   0.21791   0.00000  Uiso   1.00
C72    C     0.48422   0.13440   0.48628   0.00000  Uiso   1.00
C73    C     0.34876   0.19332   0.28215   0.00000  Uiso   1.00
C74    C     0.63403   0.19346   0.28219   0.00000  Uiso   1.00
C75    C     0.49998   0.08664   0.24997   0.00000  Uiso   1.00
C76    C     0.52564   0.16649   0.14835   0.00000  Uiso   1.00
C77    C     0.59838   0.17167   0.00460   0.00000  Uiso   1.00
C78    C     0.54022   0.16307   0.09078   0.00000  Uiso   1.00
C79    C     0.41615   0.13067   0.43128   0.00000  Uiso   1.00
C80    C     0.40272   0.12247   0.48586   0.00000  Uiso   1.00
C81    C     0.43577   0.12625   0.01384   0.00000  Uiso   1.00
C82    C     0.49826   0.13536   0.43007   0.00000  Uiso   1.00
C83    C     0.51901   0.14408   0.01177   0.00000  Uiso   1.00
C84    C     0.56644   0.15336   0.48050   0.00000  Uiso   1.00
C85    C     0.58065   0.14363   0.42620   0.00000  Uiso   1.00
C86    C     0.54709   0.13209   0.40210   0.00000  Uiso   1.00
C87    C     0.50742   0.14781   0.06698   0.00000  Uiso   1.00
C88    C     0.58526   0.17563   0.05981   0.00000  Uiso   1.00
H89    H     0.60984   0.18934   0.07839   0.00000  Uiso   1.00
H90    H     0.39023   0.12902   0.40992   0.00000  Uiso   1.00
H91    H     0.42235   0.12214   0.05650   0.00000  Uiso   1.00
H92    H     0.36610   0.11507   0.00701   0.00000  Uiso   1.00
H93    H     0.56002   0.12177   0.36103   0.00000  Uiso   1.00
H94    H     0.57639   0.29590   0.23421   0.00000  Uiso   1.00
H95    H     0.60060   0.21684   0.35521   0.00000  Uiso   1.00
H96    H     0.61360   0.25203   0.30526   0.00000  Uiso   1.00
H97    H     0.66288   0.16633   0.45056   0.00000  Uiso   1.00
H98    H     0.63542   0.21186   0.44830   0.00000  Uiso   1.00
H99    H     0.57639   0.03756   0.23401   0.00000  Uiso   1.00
H100   H     0.42348   0.03745   0.26667   0.00000  Uiso   1.00
H101   H     0.42348   0.29577   0.26688   0.00000  Uiso   1.00
H102   H     0.64014   0.11859   0.19224   0.00000  Uiso   1.00
H103   H     0.39094   0.11866   0.19217   0.00000  Uiso   1.00
H104   H     0.36020   0.21459   0.30778   0.00000  Uiso   1.00
H105   H     0.61737   0.14518   0.40180   0.00000  Uiso   1.00
H106   H     0.47280   0.13919   0.09248   0.00000  Uiso   1.00
N107   N     0.38093   0.16668   0.25002   0.00000  Uiso   1.00
N108   N     0.61906   0.16665   0.25001   0.00000  Uiso   1.00
N109   N     0.60101   0.22188   0.31577   0.00000  Uiso   1.00
N110   N     0.64246   0.18962   0.47386   0.00000  Uiso   1.00
O111   O     0.46179   0.22775   0.25001   0.00000  Uiso   1.00
O112   O     0.53823   0.22774   0.25001   0.00000  Uiso   1.00
O113   O     0.44280   0.16666   0.32681   0.00000  Uiso   1.00
O114   O     0.51924   0.16665   0.32681   0.00000  Uiso   1.00
O115   O     0.46177   0.10559   0.25000   0.00000  Uiso   1.00
O116   O     0.53821   0.10558   0.25000   0.00000  Uiso   1.00
O117   O     0.48076   0.16668   0.17319   0.00000  Uiso   1.00
O118   O     0.55720   0.16667   0.17319   0.00000  Uiso   1.00
Zn119  Zn    0.44896   0.16667   0.25000   0.00000  Uiso   1.00
Zn120  Zn    0.55104   0.16666   0.25000   0.00000  Uiso   1.00
C121   C     0.83332   0.24669   0.25018   0.00000  Uiso   1.00
C122   C     0.79646   0.14083   0.40404   0.00000  Uiso   1.00
C123   C     0.87623   0.31207   0.24150   0.00000  Uiso   1.00
C124   C     0.80859   0.15835   0.34976   0.00000  Uiso   1.00
C125   C     0.87622   0.02134   0.24138   0.00000  Uiso   1.00
C126   C     0.83327   0.04248   0.25023   0.00000  Uiso   1.00
C127   C     0.79030   0.02127   0.25939   0.00000  Uiso   1.00
C128   C     0.79031   0.31200   0.25951   0.00000  Uiso   1.00
C129   C     0.83328   0.29085   0.25044   0.00000  Uiso   1.00
C130   C     0.98467   0.13996   0.21794   0.00000  Uiso   1.00
C131   C     0.69924   0.13999   0.21791   0.00000  Uiso   1.00
C132   C     0.81755   0.13440   0.48628   0.00000  Uiso   1.00
C133   C     0.68209   0.19332   0.28215   0.00000  Uiso   1.00
C134   C     0.96736   0.19346   0.28219   0.00000  Uiso   1.00
C135   C     0.83332   0.08664   0.24997   0.00000  Uiso   1.00
C136   C     0.85897   0.16649   0.14835   0.00000  Uiso   1.00
C137   C     0.93171   0.17167   0.00460   0.00000  Uiso   1.00
C138   C     0.87356   0.16307   0.09078   0.00000  Uiso   1.00
C139   C     0.74949   0.13067   0.43128   0.00000  Uiso   1.00
C140   C     0.73605   0.12247   0.48586   0.00000  Uiso   1.00
C141   C     0.76911   0.12625   0.01384   0.00000  Uiso   1.00
C142   C     0.83159   0.13536   0.43007   0.00000  Uiso   1.00
C143   C     0.85235   0.14408   0.01177   0.00000  Uiso   1.00
C144   C     0.89977   0.15336   0.48050   0.00000  Uiso   1.00
C145   C     0.91398   0.14363   0.42620   0.00000  Uiso   1.00
C146   C     0.88042   0.13209   0.40210   0.00000  Uiso   1.00
C147   C     0.84076   0.14781   0.06698   0.00000  Uiso   1.00
C148   C     0.91860   0.17563   0.05981   0.00000  Uiso   1.00
H149   H     0.94318   0.18934   0.07839   0.00000  Uiso   1.00
H150   H     0.72357   0.12902   0.40992   0.00000  Uiso   1.00
H151   H     0.75568   0.12214   0.05650   0.00000  Uiso   1.00
H152   H     0.69943   0.11507   0.00701   0.00000  Uiso   1.00
H153   H     0.89336   0.12177   0.36103   0.00000  Uiso   1.00
H154   H     0.90972   0.29590   0.23421   0.00000  Uiso   1.00
H155   H     0.93393   0.21684   0.35521   0.00000  Uiso   1.00
H156   H     0.94693   0.25203   0.30526   0.00000  Uiso   1.00
H157   H     0.99621   0.16633   0.45056   0.00000  Uiso   1.00
H158   H     0.96875   0.21186   0.44830   0.00000  Uiso   1.00
H159   H     0.90972   0.03756   0.23401   0.00000  Uiso   1.00
H160   H     0.75681   0.03745   0.26667   0.00000  Uiso   1.00
H161   H     0.75681   0.29577   0.26688   0.00000  Uiso   1.00
H162   H     0.97347   0.11859   0.19224   0.00000  Uiso   1.00
H163   H     0.72427   0.11866   0.19217   0.00000  Uiso   1.00
H164   H     0.69354   0.21459   0.30778   0.00000  Uiso   1.00
H165   H     0.95071   0.14518   0.40180   0.00000  Uiso   1.00
H166   H     0.80614   0.13919   0.09248   0.00000  Uiso   1.00
N167   N     0.71426   0.16668   0.25002   0.00000  Uiso   1.00
N168   N     0.95239   0.16665   0.25001   0.00000  Uiso   1.00
N169   N     0.93434   0.22188   0.31577   0.00000  Uiso   1.00
N170   N     0.97580   0.18962   0.47386   0.00000  Uiso   1.00
O171   O     0.79512   0.22775   0.25001   0.00000  Uiso   1.00
O172   O     0.87157   0.22774   0.25001   0.00000  Uiso   1.00
O173   O     0.77613   0.16666   0.32681   0.00000  Uiso   1.00
O174   O     0.85258   0.16665   0.32681   0.00000  Uiso   1.00
O175   O     0.79510   0.10559   0.25000   0.00000  Uiso   1.00
O176   O     0.87154   0.10558   0.25000   0.00000  Uiso   1.00
O177   O     0.81409   0.16668   0.17319   0.00000  Uiso   1.00
O178   O     0.89053   0.16667   0.17319   0.00000  Uiso   1.00
Zn179  Zn    0.78229   0.16667   0.25000   0.00000  Uiso   1.00
Zn180  Zn    0.88438   0.16666   0.25000   0.00000  Uiso   1.00
C181   C     0.16665   0.58002   0.25018   0.00000  Uiso   1.00
C182   C     0.12979   0.47416   0.40404   0.00000  Uiso   1.00
C183   C     0.20956   0.64540   0.24150   0.00000  Uiso   1.00
C184   C     0.14193   0.49168   0.34976   0.00000  Uiso   1.00
C185   C     0.20955   0.35467   0.24138   0.00000  Uiso   1.00
C186   C     0.16660   0.37582   0.25023   0.00000  Uiso   1.00
C187   C     0.12363   0.35460   0.25939   0.00000  Uiso   1.00
C188   C     0.12364   0.64533   0.25951   0.00000  Uiso   1.00
C189   C     0.16662   0.62418   0.25044   0.00000  Uiso   1.00
C190   C     0.31800   0.47329   0.21794   0.00000  Uiso   1.00
C191   C     0.03258   0.47333   0.21791   0.00000  Uiso   1.00
C192   C     0.15089   0.46773   0.48628   0.00000  Uiso   1.00
C193   C     0.01543   0.52665   0.28215   0.00000  Uiso   1.00
C194   C     0.30069   0.52680   0.28219   0.00000  Uiso   1.00
C195   C     0.16665   0.41997   0.24997   0.00000  Uiso   1.00
C196   C     0.19231   0.49982   0.14835   0.00000  Uiso   1.00
C197   C     0.26505   0.50500   0.00460   0.00000  Uiso   1.00
C198   C     0.20689   0.49640   0.09078   0.00000  Uiso   1.00
C199   C     0.08282   0.46401   0.43128   0.00000  Uiso   1.00
C200   C     0.06938   0.45581   0.48586   0.00000  Uiso   1.00
C201   C     0.10244   0.45958   0.01384   0.00000  Uiso   1.00
C202   C     0.16492   0.46870   0.43007   0.00000  Uiso   1.00
C203   C     0.18568   0.47742   0.01177   0.00000  Uiso   1.00
C204   C     0.23311   0.48669   0.48050   0.00000  Uiso   1.00
C205   C     0.24731   0.47697   0.42620   0.00000  Uiso   1.00
C206   C     0.21376   0.46542   0.40210   0.00000  Uiso   1.00
C207   C     0.17409   0.48115   0.06698   0.00000  Uiso   1.00
C208   C     0.25193   0.50896   0.05981   0.00000  Uiso   1.00
H209   H     0.27651   0.52268   0.07839   0.00000  Uiso   1.00
H210   H     0.05690   0.46235   0.40992   0.00000  Uiso   1.00
H211   H     0.08901   0.45547   0.05650   0.00000  Uiso   1.00
H212   H     0.03277   0.44841   0.00701   0.00000  Uiso   1.00
H213   H     0.22669   0.45510   0.36103   0.00000  Uiso   1.00
H214   H     0.24305   0.62924   0.23421   0.00000  Uiso   1.00
H215   H     0.26727   0.55017   0.35521   0.00000  Uiso   1.00
H216   H     0.28027   0.58536   0.30526   0.00000  Uiso   1.00
H217   H     0.32955   0.49967   0.45056   0.00000  Uiso   1.00
H218   H     0.30209   0.54519   0.44830   0.00000  Uiso   1.00
H219   H     0.24305   0.37089   0.23401   0.00000  Uiso   1.00
H220   H     0.09015   0.37078   0.26667   0.00000  Uiso   1.00
H221   H     0.09014   0.62910   0.26688   0.00000  Uiso   1.00
H222   H     0.30680   0.45193   0.19224   0.00000  Uiso   1.00
H223   H     0.05761   0.45200   0.19217   0.00000  Uiso   1.00
H224   H     0.02687   0.54792   0.30778   0.00000  Uiso   1.00
H225   H     0.28404   0.47851   0.40180   0.00000  Uiso   1.00
H226   H     0.13947   0.47253   0.09248   0.00000  Uiso   1.00
N227   N     0.04760   0.50001   0.25002   0.00000  Uiso   1.00
N228   N     0.28573   0.49998   0.25001   0.00000  Uiso   1.00
N229   N     0.26768   0.55521   0.31577   0.00000  Uiso   1.00
N230   N     0.30913   0.52295   0.47386   0.00000  Uiso   1.00
O231   O     0.12846   0.56108   0.25001   0.00000  Uiso   1.00
O232   O     0.20490   0.56107   0.25001   0.00000  Uiso   1.00
O233   O     0.10947   0.50000   0.32681   0.00000  Uiso   1.00
O234   O     0.18591   0.49999   0.32681   0.00000  Uiso   1.00
O235   O     0.12843   0.43893   0.25000   0.00000  Uiso   1.00
O236   O     0.20488   0.43892   0.25000   0.00000  Uiso   1.00
O237   O     0.14742   0.50001   0.17319   0.00000  Uiso   1.00
O238   O     0.22387   0.50000   0.17319   0.00000  Uiso   1.00
Zn239  Zn    0.11562   0.50001   0.25000   0.00000  Uiso   1.00
Zn240  Zn    0.21771   0.49999   0.25000   0.00000  Uiso   1.00
C241   C     0.49999   0.58002   0.25018   0.00000  Uiso   1.00
C242   C     0.46312   0.47416   0.40404   0.00000  Uiso   1.00
C243   C     0.54289   0.64540   0.24150   0.00000  Uiso   1.00
C244   C     0.47526   0.49168   0.34976   0.00000  Uiso   1.00
C245   C     0.54289   0.35467   0.24138   0.00000  Uiso   1.00
C246   C     0.49993   0.37582   0.25023   0.00000  Uiso   1.00
C247   C     0.45697   0.35460   0.25939   0.00000  Uiso   1.00
C248   C     0.45697   0.64533   0.25951   0.00000  Uiso   1.00
C249   C     0.49995   0.62418   0.25044   0.00000  Uiso   1.00
C250   C     0.65133   0.47329   0.21794   0.00000  Uiso   1.00
C251   C     0.36591   0.47333   0.21791   0.00000  Uiso   1.00
C252   C     0.48422   0.46773   0.48628   0.00000  Uiso   1.00
C253   C     0.34876   0.52665   0.28215   0.00000  Uiso   1.00
C254   C     0.63403   0.52680   0.28219   0.00000  Uiso   1.00
C255   C     0.49998   0.41997   0.24997   0.00000  Uiso   1.00
C256   C     0.52564   0.49982   0.14835   0.00000  Uiso   1.00
C257   C     0.59838   0.50500   0.00460   0.00000  Uiso   1.00
C258   C     0.54022   0.49640   0.09078   0.00000  Uiso   1.00
C259   C     0.41615   0.46401   0.43128   0.00000  Uiso   1.00
C260   C     0.40272   0.45581   0.48586   0.00000  Uiso   1.00
C261   C     0.43577   0.45958   0.01384   0.00000  Uiso   1.00
C262   C     0.49826   0.46870   0.43007   0.00000  Uiso   1.00
C263   C     0.51901   0.47742   0.01177   0.00000  Uiso   1.00
C264   C     0.56644   0.48669   0.48050   0.00000  Uiso   1.00
C265   C     0.58065   0.47697   0.42620   0.00000  Uiso   1.00
C266   C     0.54709   0.46542   0.40210   0.00000  Uiso   1.00
C267   C     0.50742   0.48115   0.06698   0.00000  Uiso   1.00
C268   C     0.58526   0.50896   0.05981   0.00000  Uiso   1.00
H269   H     0.60984   0.52268   0.07839   0.00000  Uiso   1.00
H270   H     0.39023   0.46235   0.40992   0.00000  Uiso   1.00
H271   H     0.42235   0.45547   0.05650   0.00000  Uiso   1.00
H272   H     0.36610   0.44841   0.00701   0.00000  Uiso   1.00
H273   H     0.56002   0.45510   0.36103   0.00000  Uiso   1.00
H274   H     0.57639   0.62924   0.23421   0.00000  Uiso   1.00
H275   H     0.60060   0.55017   0.35521   0.00000  Uiso   1.00
H276   H     0.61360   0.58536   0.30526   0.00000  Uiso   1.00
H277   H     0.66288   0.49967   0.45056   0.00000  Uiso   1.00
H278   H     0.63542   0.54519   0.44830   0.00000  Uiso   1.00
H279   H     0.57639   0.37089   0.23401   0.00000  Uiso   1.00
H280   H     0.42348   0.37078   0.26667   0.00000  Uiso   1.00
H281   H     0.42348   0.62910   0.26688   0.00000  Uiso   1.00
H282   H     0.64014   0.45193   0.19224   0.00000  Uiso   1.00
H283   H     0.39094   0.45200   0.19217   0.00000  Uiso   1.00
H284   H     0.36020   0.54792   0.30778   0.00000  Uiso   1.00
H285   H     0.61737   0.47851   0.40180   0.00000  Uiso   1.00
H286   H     0.47280   0.47253   0.09248   0.00000  Uiso   1.00
N287   N     0.38093   0.50001   0.25002   0.00000  Uiso   1.00
N288   N     0.61906   0.49998   0.25001   0.00000  Uiso   1.00
N289   N     0.60101   0.55521   0.31577   0.00000  Uiso   1.00
N290   N     0.64246   0.52295   0.47386   0.00000  Uiso   1.00
O291   O     0.46179   0.56108   0.25001   0.00000  Uiso   1.00
O292   O     0.53823   0.56107   0.25001   0.00000  Uiso   1.00
O293   O     0.44280   0.50000   0.32681   0.00000  Uiso   1.00
O294   O     0.51924   0.49999   0.32681   0.00000  Uiso   1.00
O295   O     0.46177   0.43893   0.25000   0.00000  Uiso   1.00
O296   O     0.53821   0.43892   0.25000   0.00000  Uiso   1.00
O297   O     0.48076   0.50001   0.17319   0.00000  Uiso   1.00
O298   O     0.55720   0.50000   0.17319   0.00000  Uiso   1.00
Zn299  Zn    0.44896   0.50001   0.25000   0.00000  Uiso   1.00
Zn300  Zn    0.55104   0.49999   0.25000   0.00000  Uiso   1.00
C301   C     0.83332   0.58002   0.25018   0.00000  Uiso   1.00
C302   C     0.79646   0.47416   0.40404   0.00000  Uiso   1.00
C303   C     0.87623   0.64540   0.24150   0.00000  Uiso   1.00
C304   C     0.80859   0.49168   0.34976   0.00000  Uiso   1.00
C305   C     0.87622   0.35467   0.24138   0.00000  Uiso   1.00
C306   C     0.83327   0.37582   0.25023   0.00000  Uiso   1.00
C307   C     0.79030   0.35460   0.25939   0.00000  Uiso   1.00
C308   C     0.79031   0.64533   0.25951   0.00000  Uiso   1.00
C309   C     0.83328   0.62418   0.25044   0.00000  Uiso   1.00
C310   C     0.98467   0.47329   0.21794   0.00000  Uiso   1.00
C311   C     0.69924   0.47333   0.21791   0.00000  Uiso   1.00
C312   C     0.81755   0.46773   0.48628   0.00000  Uiso   1.00
C313   C     0.68209   0.52665   0.28215   0.00000  Uiso   1.00
C314   C     0.96736   0.52680   0.28219   0.00000  Uiso   1.00
C315   C     0.83332   0.41997   0.24997   0.00000  Uiso   1.00
C316   C     0.85897   0.49982   0.14835   0.00000  Uiso   1.00
C317   C     0.93171   0.50500   0.00460   0.00000  Uiso   1.00
C318   C     0.87356   0.49640   0.09078   0.00000  Uiso   1.00
C319   C     0.74949   0.46401   0.43128   0.00000  Uiso   1.00
C320   C     0.73605   0.45581   0.48586   0.00000  Uiso   1.00
C321   C     0.76911   0.45958   0.01384   0.00000  Uiso   1.00
C322   C     0.83159   0.46870   0.43007   0.00000  Uiso   1.00
C323   C     0.85235   0.47742   0.01177   0.00000  Uiso   1.00
C324   C     0.89977   0.48669   0.48050   0.00000  Uiso   1.00
C325   C     0.91398   0.47697   0.42620   0.00000  Uiso   1.00
C326   C     0.88042   0.46542   0.40210   0.00000  Uiso   1.00
C327   C     0.84076   0.48115   0.06698   0.00000  Uiso   1.00
C328   C     0.91860   0.50896   0.05981   0.00000  Uiso   1.00
H329   H     0.94318   0.52268   0.07839   0.00000  Uiso   1.00
H330   H     0.72357   0.46235   0.40992   0.00000  Uiso   1.00
H331   H     0.75568   0.45547   0.05650   0.00000  Uiso   1.00
H332   H     0.69943   0.44841   0.00701   0.00000  Uiso   1.00
H333   H     0.89336   0.45510   0.36103   0.00000  Uiso   1.00
H334   H     0.90972   0.62924   0.23421   0.00000  Uiso   1.00
H335   H     0.93393   0.55017   0.35521   0.00000  Uiso   1.00
H336   H     0.94693   0.58536   0.30526   0.00000  Uiso   1.00
H337   H     0.99621   0.49967   0.45056   0.00000  Uiso   1.00
H338   H     0.96875   0.54519   0.44830   0.00000  Uiso   1.00
H339   H     0.90972   0.37089   0.23401   0.00000  Uiso   1.00
H340   H     0.75681   0.37078   0.26667   0.00000  Uiso   1.00
H341   H     0.75681   0.62910   0.26688   0.00000  Uiso   1.00
H342   H     0.97347   0.45193   0.19224   0.00000  Uiso   1.00
H343   H     0.72427   0.45200   0.19217   0.00000  Uiso   1.00
H344   H     0.69354   0.54792   0.30778   0.00000  Uiso   1.00
H345   H     0.95071   0.47851   0.40180   0.00000  Uiso   1.00
H346   H     0.80614   0.47253   0.09248   0.00000  Uiso   1.00
N347   N     0.71426   0.50001   0.25002   0.00000  Uiso   1.00
N348   N     0.95239   0.49998   0.25001   0.00000  Uiso   1.00
N349   N     0.93434   0.55521   0.31577   0.00000  Uiso   1.00
N350   N     0.97580   0.52295   0.47386   0.00000  Uiso   1.00
O351   O     0.79512   0.56108   0.25001   0.00000  Uiso   1.00
O352   O     0.87157   0.56107   0.25001   0.00000  Uiso   1.00
O353   O     0.77613   0.50000   0.32681   0.00000  Uiso   1.00
O354   O     0.85258   0.49999   0.32681   0.00000  Uiso   1.00
O355   O     0.79510   0.43893   0.25000   0.00000  Uiso   1.00
O356   O     0.87154   0.43892   0.25000   0.00000  Uiso   1.00
O357   O     0.81409   0.50001   0.17319   0.00000  Uiso   1.00
O358   O     0.89053   0.50000   0.17319   0.00000  Uiso   1.00
Zn359  Zn    0.78229   0.50001   0.25000   0.00000  Uiso   1.00
Zn360  Zn    0.88438   0.49999   0.25000   0.00000  Uiso   1.00
C361   C     0.16665   0.91336   0.25018   0.00000  Uiso   1.00
C362   C     0.12979   0.80750   0.40404   0.00000  Uiso   1.00
C363   C     0.20956   0.97874   0.24150   0.00000  Uiso   1.00
C364   C     0.14193   0.82502   0.34976   0.00000  Uiso   1.00
C365   C     0.20955   0.68800   0.24138   0.00000  Uiso   1.00
C366   C     0.16660   0.70915   0.25023   0.00000  Uiso   1.00
C367   C     0.12363   0.68794   0.25939   0.00000  Uiso   1.00
C368   C     0.12364   0.97867   0.25951   0.00000  Uiso   1.00
C369   C     0.16662   0.95752   0.25044   0.00000  Uiso   1.00
C370   C     0.31800   0.80662   0.21794   0.00000  Uiso   1.00
C371   C     0.03258   0.80666   0.21791   0.00000  Uiso   1.00
C372   C     0.15089   0.80107   0.48628   0.00000  Uiso   1.00
C373   C     0.01543   0.85999   0.28215   0.00000  Uiso   1.00
C374   C     0.30069   0.86013   0.28219   0.00000  Uiso   1.00
C375   C     0.16665   0.75330   0.24997   0.00000  Uiso   1.00
C376   C     0.19231   0.83315   0.14835   0.00000  Uiso   1.00
C377   C     0.26505   0.83834   0.00460   0.00000  Uiso   1.00
C378   C     0.20689   0.82973   0.09078   0.00000  Uiso   1.00
C379   C     0.08282   0.79734   0.43128   0.00000  Uiso   1.00
C380   C     0.06938   0.78914   0.48586   0.00000  Uiso   1.00
C381   C     0.10244   0.79292   0.01384   0.00000  Uiso   1.00
C382   C     0.16492   0.80203   0.43007   0.00000  Uiso   1.00
C383   C     0.18568   0.81075   0.01177   0.00000  Uiso   1.00
C384   C     0.23311   0.82002   0.48050   0.00000  Uiso   1.00
C385   C     0.24731   0.81030   0.42620   0.00000  Uiso   1.00
C386   C     0.21376   0.79875   0.40210   0.00000  Uiso   1.00
C387   C     0.17409   0.81448   0.06698   0.00000  Uiso   1.00
C388   C     0.25193   0.84230   0.05981   0.00000  Uiso   1.00
H389   H     0.27651   0.85601   0.07839   0.00000  Uiso   1.00
H390   H     0.05690   0.79569   0.40992   0.00000  Uiso   1.00
H391   H     0.08901   0.78880   0.05650   0.00000  Uiso   1.00
H392   H     0.03277   0.78174   0.00701   0.00000  Uiso   1.00
H393   H     0.22669   0.78844   0.36103   0.00000  Uiso   1.00
H394   H     0.24305   0.96257   0.23421   0.00000  Uiso   1.00
H395   H     0.26727   0.88350   0.35521   0.00000  Uiso   1.00
H396   H     0.28027   0.91870   0.30526   0.00000  Uiso   1.00
H397   H     0.32955   0.83300   0.45056   0.00000  Uiso   1.00
H398   H     0.30209   0.87853   0.44830   0.00000  Uiso   1.00
H399   H     0.24305   0.70423   0.23401   0.00000  Uiso   1.00
H400   H     0.09015   0.70412   0.26667   0.00000  Uiso   1.00
H401   H     0.09014   0.96243   0.26688   0.00000  Uiso   1.00
H402   H     0.30680   0.78526   0.19224   0.00000  Uiso   1.00
H403   H     0.05761   0.78533   0.19217   0.00000  Uiso   1.00
H404   H     0.02687   0.88125   0.30778   0.00000  Uiso   1.00
H405   H     0.28404   0.81185   0.40180   0.00000  Uiso   1.00
H406   H     0.13947   0.80586   0.09248   0.00000  Uiso   1.00
N407   N     0.04760   0.83334   0.25002   0.00000  Uiso   1.00
N408   N     0.28573   0.83331   0.25001   0.00000  Uiso   1.00
N409   N     0.26768   0.88854   0.31577   0.00000  Uiso   1.00
N410   N     0.30913   0.85628   0.47386   0.00000  Uiso   1.00
O411   O     0.12846   0.89442   0.25001   0.00000  Uiso   1.00
O412   O     0.20490   0.89441   0.25001   0.00000  Uiso   1.00
O413   O     0.10947   0.83333   0.32681   0.00000  Uiso   1.00
O414   O     0.18591   0.83332   0.32681   0.00000  Uiso   1.00
O415   O     0.12843   0.77226   0.25000   0.00000  Uiso   1.00
O416   O     0.20488   0.77225   0.25000   0.00000  Uiso   1.00
O417   O     0.14742   0.83335   0.17319   0.00000  Uiso   1.00
O418   O     0.22387   0.83334   0.17319   0.00000  Uiso   1.00
Zn419  Zn    0.11562   0.83334   0.25000   0.00000  Uiso   1.00
Zn420  Zn    0.21771   0.83333   0.25000   0.00000  Uiso   1.00
C421   C     0.49999   0.91336   0.25018   0.00000  Uiso   1.00
C422   C     0.46312   0.80750   0.40404   0.00000  Uiso   1.00
C423   C     0.54289   0.97874   0.24150   0.00000  Uiso   1.00
C424   C     0.47526   0.82502   0.34976   0.00000  Uiso   1.00
C425   C     0.54289   0.68800   0.24138   0.00000  Uiso   1.00
C426   C     0.49993   0.70915   0.25023   0.00000  Uiso   1.00
C427   C     0.45697   0.68794   0.25939   0.00000  Uiso   1.00
C428   C     0.45697   0.97867   0.25951   0.00000  Uiso   1.00
C429   C     0.49995   0.95752   0.25044   0.00000  Uiso   1.00
C430   C     0.65133   0.80662   0.21794   0.00000  Uiso   1.00
C431   C     0.36591   0.80666   0.21791   0.00000  Uiso   1.00
C432   C     0.48422   0.80107   0.48628   0.00000  Uiso   1.00
C433   C     0.34876   0.85999   0.28215   0.00000  Uiso   1.00
C434   C     0.63403   0.86013   0.28219   0.00000  Uiso   1.00
C435   C     0.49998   0.75330   0.24997   0.00000  Uiso   1.00
C436   C     0.52564   0.83315   0.14835   0.00000  Uiso   1.00
C437   C     0.59838   0.83834   0.00460   0.00000  Uiso   1.00
C438   C     0.54022   0.82973   0.09078   0.00000  Uiso   1.00
C439   C     0.41615   0.79734   0.43128   0.00000  Uiso   1.00
C440   C     0.40272   0.78914   0.48586   0.00000  Uiso   1.00
C441   C     0.43577   0.79292   0.01384   0.00000  Uiso   1.00
C442   C     0.49826   0.80203   0.43007   0.00000  Uiso   1.00
C443   C     0.51901   0.81075   0.01177   0.00000  Uiso   1.00
C444   C     0.56644   0.82002   0.48050   0.00000  Uiso   1.00
C445   C     0.58065   0.81030   0.42620   0.00000  Uiso   1.00
C446   C     0.54709   0.79875   0.40210   0.00000  Uiso   1.00
C447   C     0.50742   0.81448   0.06698   0.00000  Uiso   1.00
C448   C     0.58526   0.84230   0.05981   0.00000  Uiso   1.00
H449   H     0.60984   0.85601   0.07839   0.00000  Uiso   1.00
H450   H     0.39023   0.79569   0.40992   0.00000  Uiso   1.00
H451   H     0.42235   0.78880   0.05650   0.00000  Uiso   1.00
H452   H     0.36610   0.78174   0.00701   0.00000  Uiso   1.00
H453   H     0.56002   0.78844   0.36103   0.00000  Uiso   1.00
H454   H     0.57639   0.96257   0.23421   0.00000  Uiso   1.00
H455   H     0.60060   0.88350   0.35521   0.00000  Uiso   1.00
H456   H     0.61360   0.91870   0.30526   0.00000  Uiso   1.00
H457   H     0.66288   0.83300   0.45056   0.00000  Uiso   1.00
H458   H     0.63542   0.87853   0.44830   0.00000  Uiso   1.00
H459   H     0.57639   0.70423   0.23401   0.00000  Uiso   1.00
H460   H     0.42348   0.70412   0.26667   0.00000  Uiso   1.00
H461   H     0.42348   0.96243   0.26688   0.00000  Uiso   1.00
H462   H     0.64014   0.78526   0.19224   0.00000  Uiso   1.00
H463   H     0.39094   0.78533   0.19217   0.00000  Uiso   1.00
H464   H     0.36020   0.88125   0.30778   0.00000  Uiso   1.00
H465   H     0.61737   0.81185   0.40180   0.00000  Uiso   1.00
H466   H     0.47280   0.80586   0.09248   0.00000  Uiso   1.00
N467   N     0.38093   0.83334   0.25002   0.00000  Uiso   1.00
N468   N     0.61906   0.83331   0.25001   0.00000  Uiso   1.00
N469   N     0.60101   0.88854   0.31577   0.00000  Uiso   1.00
N470   N     0.64246   0.85628   0.47386   0.00000  Uiso   1.00
O471   O     0.46179   0.89442   0.25001   0.00000  Uiso   1.00
O472   O     0.53823   0.89441   0.25001   0.00000  Uiso   1.00
O473   O     0.44280   0.83333   0.32681   0.00000  Uiso   1.00
O474   O     0.51924   0.83332   0.32681   0.00000  Uiso   1.00
O475   O     0.46177   0.77226   0.25000   0.00000  Uiso   1.00
O476   O     0.53821   0.77225   0.25000   0.00000  Uiso   1.00
O477   O     0.48076   0.83335   0.17319   0.00000  Uiso   1.00
O478   O     0.55720   0.83334   0.17319   0.00000  Uiso   1.00
Zn479  Zn    0.44896   0.83334   0.25000   0.00000  Uiso   1.00
Zn480  Zn    0.55104   0.83333   0.25000   0.00000  Uiso   1.00
C481   C     0.83332   0.91336   0.25018   0.00000  Uiso   1.00
C482   C     0.79646   0.80750   0.40404   0.00000  Uiso   1.00
C483   C     0.87623   0.97874   0.24150   0.00000  Uiso   1.00
C484   C     0.80859   0.82502   0.34976   0.00000  Uiso   1.00
C485   C     0.87622   0.68800   0.24138   0.00000  Uiso   1.00
C486   C     0.83327   0.70915   0.25023   0.00000  Uiso   1.00
C487   C     0.79030   0.68794   0.25939   0.00000  Uiso   1.00
C488   C     0.79031   0.97867   0.25951   0.00000  Uiso   1.00
C489   C     0.83328   0.95752   0.25044   0.00000  Uiso   1.00
C490   C     0.98467   0.80662   0.21794   0.00000  Uiso   1.00
C491   C     0.69924   0.80666   0.21791   0.00000  Uiso   1.00
C492   C     0.81755   0.80107   0.48628   0.00000  Uiso   1.00
C493   C     0.68209   0.85999   0.28215   0.00000  Uiso   1.00
C494   C     0.96736   0.86013   0.28219   0.00000  Uiso   1.00
C495   C     0.83332   0.75330   0.24997   0.00000  Uiso   1.00
C496   C     0.85897   0.83315   0.14835   0.00000  Uiso   1.00
C497   C     0.93171   0.83834   0.00460   0.00000  Uiso   1.00
C498   C     0.87356   0.82973   0.09078   0.00000  Uiso   1.00
C499   C     0.74949   0.79734   0.43128   0.00000  Uiso   1.00
C500   C     0.73605   0.78914   0.48586   0.00000  Uiso   1.00
C501   C     0.76911   0.79292   0.01384   0.00000  Uiso   1.00
C502   C     0.83159   0.80203   0.43007   0.00000  Uiso   1.00
C503   C     0.85235   0.81075   0.01177   0.00000  Uiso   1.00
C504   C     0.89977   0.82002   0.48050   0.00000  Uiso   1.00
C505   C     0.91398   0.81030   0.42620   0.00000  Uiso   1.00
C506   C     0.88042   0.79875   0.40210   0.00000  Uiso   1.00
C507   C     0.84076   0.81448   0.06698   0.00000  Uiso   1.00
C508   C     0.91860   0.84230   0.05981   0.00000  Uiso   1.00
H509   H     0.94318   0.85601   0.07839   0.00000  Uiso   1.00
H510   H     0.72357   0.79569   0.40992   0.00000  Uiso   1.00
H511   H     0.75568   0.78880   0.05650   0.00000  Uiso   1.00
H512   H     0.69943   0.78174   0.00701   0.00000  Uiso   1.00
H513   H     0.89336   0.78844   0.36103   0.00000  Uiso   1.00
H514   H     0.90972   0.96257   0.23421   0.00000  Uiso   1.00
H515   H     0.93393   0.88350   0.35521   0.00000  Uiso   1.00
H516   H     0.94693   0.91870   0.30526   0.00000  Uiso   1.00
H517   H     0.99621   0.83300   0.45056   0.00000  Uiso   1.00
H518   H     0.96875   0.87853   0.44830   0.00000  Uiso   1.00
H519   H     0.90972   0.70423   0.23401   0.00000  Uiso   1.00
H520   H     0.75681   0.70412   0.26667   0.00000  Uiso   1.00
H521   H     0.75681   0.96243   0.26688   0.00000  Uiso   1.00
H522   H     0.97347   0.78526   0.19224   0.00000  Uiso   1.00
H523   H     0.72427   0.78533   0.19217   0.00000  Uiso   1.00
H524   H     0.69354   0.88125   0.30778   0.00000  Uiso   1.00
H525   H     0.95071   0.81185   0.40180   0.00000  Uiso   1.00
H526   H     0.80614   0.80586   0.09248   0.00000  Uiso   1.00
N527   N     0.71426   0.83334   0.25002   0.00000  Uiso   1.00
N528   N     0.95239   0.83331   0.25001   0.00000  Uiso   1.00
N529   N     0.93434   0.88854   0.31577   0.00000  Uiso   1.00
N530   N     0.97580   0.85628   0.47386   0.00000  Uiso   1.00
O531   O     0.79512   0.89442   0.25001   0.00000  Uiso   1.00
O532   O     0.87157   0.89441   0.25001   0.00000  Uiso   1.00
O533   O     0.77613   0.83333   0.32681   0.00000  Uiso   1.00
O534   O     0.85258   0.83332   0.32681   0.00000  Uiso   1.00
O535   O     0.79510   0.77226   0.25000   0.00000  Uiso   1.00
O536   O     0.87154   0.77225   0.25000   0.00000  Uiso   1.00
O537   O     0.81409   0.83335   0.17319   0.00000  Uiso   1.00
O538   O     0.89053   0.83334   0.17319   0.00000  Uiso   1.00
Zn539  Zn    0.78229   0.83334   0.25000   0.00000  Uiso   1.00
Zn540  Zn    0.88438   0.83333   0.25000   0.00000  Uiso   1.00
C541   C     0.16665   0.24669   0.75018   0.00000  Uiso   1.00
C542   C     0.12979   0.14083   0.90404   0.00000  Uiso   1.00
C543   C     0.20956   0.31207   0.74150   0.00000  Uiso   1.00
C544   C     0.14193   0.15835   0.84976   0.00000  Uiso   1.00
C545   C     0.20955   0.02134   0.74138   0.00000  Uiso   1.00
C546   C     0.16660   0.04248   0.75023   0.00000  Uiso   1.00
C547   C     0.12363   0.02127   0.75939   0.00000  Uiso   1.00
C548   C     0.12364   0.31200   0.75951   0.00000  Uiso   1.00
C549   C     0.16662   0.29085   0.75044   0.00000  Uiso   1.00
C550   C     0.31800   0.13996   0.71794   0.00000  Uiso   1.00
C551   C     0.03258   0.13999   0.71791   0.00000  Uiso   1.00
C552   C     0.15089   0.13440   0.98628   0.00000  Uiso   1.00
C553   C     0.01543   0.19332   0.78215   0.00000  Uiso   1.00
C554   C     0.30069   0.19346   0.78219   0.00000  Uiso   1.00
C555   C     0.16665   0.08664   0.74997   0.00000  Uiso   1.00
C556   C     0.19231   0.16649   0.64835   0.00000  Uiso   1.00
C557   C     0.26505   0.17167   0.50460   0.00000  Uiso   1.00
C558   C     0.20689   0.16307   0.59078   0.00000  Uiso   1.00
C559   C     0.08282   0.13067   0.93128   0.00000  Uiso   1.00
C560   C     0.06938   0.12247   0.98586   0.00000  Uiso   1.00
C561   C     0.10244   0.12625   0.51384   0.00000  Uiso   1.00
C562   C     0.16492   0.13536   0.93007   0.00000  Uiso   1.00
C563   C     0.18568   0.14408   0.51177   0.00000  Uiso   1.00
C564   C     0.23311   0.15336   0.98050   0.00000  Uiso   1.00
C565   C     0.24731   0.14363   0.92620   0.00000  Uiso   1.00
C566   C     0.21376   0.13209   0.90210   0.00000  Uiso   1.00
C567   C     0.17409   0.14781   0.56698   0.00000  Uiso   1.00
C568   C     0.25193   0.17563   0.55981   0.00000  Uiso   1.00
H569   H     0.27651   0.18934   0.57839   0.00000  Uiso   1.00
H570   H     0.05690   0.12902   0.90992   0.00000  Uiso   1.00
H571   H     0.08901   0.12214   0.55650   0.00000  Uiso   1.00
H572   H     0.03277   0.11507   0.50701   0.00000  Uiso   1.00
H573   H     0.22669   0.12177   0.86103   0.00000  Uiso   1.00
H574   H     0.24305   0.29590   0.73421   0.00000  Uiso   1.00
H575   H     0.26727   0.21684   0.85521   0.00000  Uiso   1.00
H576   H     0.28027   0.25203   0.80526   0.00000  Uiso   1.00
H577   H     0.32955   0.16633   0.95056   0.00000  Uiso   1.00
H578   H     0.30209   0.21186   0.94830   0.00000  Uiso   1.00
H579   H     0.24305   0.03756   0.73401   0.00000  Uiso   1.00
H580   H     0.09015   0.03745   0.76667   0.00000  Uiso   1.00
H581   H     0.09014   0.29577   0.76688   0.00000  Uiso   1.00
H582   H     0.30680   0.11859   0.69224   0.00000  Uiso   1.00
H583   H     0.05761   0.11866   0.69217   0.00000  Uiso   1.00
H584   H     0.02687   0.21459   0.80778   0.00000  Uiso   1.00
H585   H     0.28404   0.14518   0.90180   0.00000  Uiso   1.00
H586   H     0.13947   0.13919   0.59248   0.00000  Uiso   1.00
N587   N     0.04760   0.16668   0.75002   0.00000  Uiso   1.00
N588   N     0.28573   0.16665   0.75001   0.00000  Uiso   1.00
N589   N     0.26768   0.22188   0.81577   0.00000  Uiso   1.00
N590   N     0.30913   0.18962   0.97386   0.00000  Uiso   1.00
O591   O     0.12846   0.22775   0.75001   0.00000  Uiso   1.00
O592   O     0.20490   0.22774   0.75001   0.00000  Uiso   1.00
O593   O     0.10947   0.16666   0.82681   0.00000  Uiso   1.00
O594   O     0.18591   0.16665   0.82681   0.00000  Uiso   1.00
O595   O     0.12843   0.10559   0.75000   0.00000  Uiso   1.00
O596   O     0.20488   0.10558   0.75000   0.00000  Uiso   1.00
O597   O     0.14742   0.16668   0.67319   0.00000  Uiso   1.00
O598   O     0.22387   0.16667   0.67319   0.00000  Uiso   1.00
Zn599  Zn    0.11562   0.16667   0.75000   0.00000  Uiso   1.00
Zn600  Zn    0.21771   0.16666   0.75000   0.00000  Uiso   1.00
C601   C     0.49999   0.24669   0.75018   0.00000  Uiso   1.00
C602   C     0.46312   0.14083   0.90404   0.00000  Uiso   1.00
C603   C     0.54289   0.31207   0.74150   0.00000  Uiso   1.00
C604   C     0.47526   0.15835   0.84976   0.00000  Uiso   1.00
C605   C     0.54289   0.02134   0.74138   0.00000  Uiso   1.00
C606   C     0.49993   0.04248   0.75023   0.00000  Uiso   1.00
C607   C     0.45697   0.02127   0.75939   0.00000  Uiso   1.00
C608   C     0.45697   0.31200   0.75951   0.00000  Uiso   1.00
C609   C     0.49995   0.29085   0.75044   0.00000  Uiso   1.00
C610   C     0.65133   0.13996   0.71794   0.00000  Uiso   1.00
C611   C     0.36591   0.13999   0.71791   0.00000  Uiso   1.00
C612   C     0.48422   0.13440   0.98628   0.00000  Uiso   1.00
C613   C     0.34876   0.19332   0.78215   0.00000  Uiso   1.00
C614   C     0.63403   0.19346   0.78219   0.00000  Uiso   1.00
C615   C     0.49998   0.08664   0.74997   0.00000  Uiso   1.00
C616   C     0.52564   0.16649   0.64835   0.00000  Uiso   1.00
C617   C     0.59838   0.17167   0.50460   0.00000  Uiso   1.00
C618   C     0.54022   0.16307   0.59078   0.00000  Uiso   1.00
C619   C     0.41615   0.13067   0.93128   0.00000  Uiso   1.00
C620   C     0.40272   0.12247   0.98586   0.00000  Uiso   1.00
C621   C     0.43577   0.12625   0.51384   0.00000  Uiso   1.00
C622   C     0.49826   0.13536   0.93007   0.00000  Uiso   1.00
C623   C     0.51901   0.14408   0.51177   0.00000  Uiso   1.00
C624   C     0.56644   0.15336   0.98050   0.00000  Uiso   1.00
C625   C     0.58065   0.14363   0.92620   0.00000  Uiso   1.00
C626   C     0.54709   0.13209   0.90210   0.00000  Uiso   1.00
C627   C     0.50742   0.14781   0.56698   0.00000  Uiso   1.00
C628   C     0.58526   0.17563   0.55981   0.00000  Uiso   1.00
H629   H     0.60984   0.18934   0.57839   0.00000  Uiso   1.00
H630   H     0.39023   0.12902   0.90992   0.00000  Uiso   1.00
H631   H     0.42235   0.12214   0.55650   0.00000  Uiso   1.00
H632   H     0.36610   0.11507   0.50701   0.00000  Uiso   1.00
H633   H     0.56002   0.12177   0.86103   0.00000  Uiso   1.00
H634   H     0.57639   0.29590   0.73421   0.00000  Uiso   1.00
H635   H     0.60060   0.21684   0.85521   0.00000  Uiso   1.00
H636   H     0.61360   0.25203   0.80526   0.00000  Uiso   1.00
H637   H     0.66288   0.16633   0.95056   0.00000  Uiso   1.00
H638   H     0.63542   0.21186   0.94830   0.00000  Uiso   1.00
H639   H     0.57639   0.03756   0.73401   0.00000  Uiso   1.00
H640   H     0.42348   0.03745   0.76667   0.00000  Uiso   1.00
H641   H     0.42348   0.29577   0.76688   0.00000  Uiso   1.00
H642   H     0.64014   0.11859   0.69224   0.00000  Uiso   1.00
H643   H     0.39094   0.11866   0.69217   0.00000  Uiso   1.00
H644   H     0.36020   0.21459   0.80778   0.00000  Uiso   1.00
H645   H     0.61737   0.14518   0.90180   0.00000  Uiso   1.00
H646   H     0.47280   0.13919   0.59248   0.00000  Uiso   1.00
N647   N     0.38093   0.16668   0.75002   0.00000  Uiso   1.00
N648   N     0.61906   0.16665   0.75001   0.00000  Uiso   1.00
N649   N     0.60101   0.22188   0.81577   0.00000  Uiso   1.00
N650   N     0.64246   0.18962   0.97386   0.00000  Uiso   1.00
O651   O     0.46179   0.22775   0.75001   0.00000  Uiso   1.00
O652   O     0.53823   0.22774   0.75001   0.00000  Uiso   1.00
O653   O     0.44280   0.16666   0.82681   0.00000  Uiso   1.00
O654   O     0.51924   0.16665   0.82681   0.00000  Uiso   1.00
O655   O     0.46177   0.10559   0.75000   0.00000  Uiso   1.00
O656   O     0.53821   0.10558   0.75000   0.00000  Uiso   1.00
O657   O     0.48076   0.16668   0.67319   0.00000  Uiso   1.00
O658   O     0.55720   0.16667   0.67319   0.00000  Uiso   1.00
Zn659  Zn    0.44896   0.16667   0.75000   0.00000  Uiso   1.00
Zn660  Zn    0.55104   0.16666   0.75000   0.00000  Uiso   1.00
C661   C     0.83332   0.24669   0.75018   0.00000  Uiso   1.00
C662   C     0.79646   0.14083   0.90404   0.00000  Uiso   1.00
C663   C     0.87623   0.31207   0.74150   0.00000  Uiso   1.00
C664   C     0.80859   0.15835   0.84976   0.00000  Uiso   1.00
C665   C     0.87622   0.02134   0.74138   0.00000  Uiso   1.00
C666   C     0.83327   0.04248   0.75023   0.00000  Uiso   1.00
C667   C     0.79030   0.02127   0.75939   0.00000  Uiso   1.00
C668   C     0.79031   0.31200   0.75951   0.00000  Uiso   1.00
C669   C     0.83328   0.29085   0.75044   0.00000  Uiso   1.00
C670   C     0.98467   0.13996   0.71794   0.00000  Uiso   1.00
C671   C     0.69924   0.13999   0.71791   0.00000  Uiso   1.00
C672   C     0.81755   0.13440   0.98628   0.00000  Uiso   1.00
C673   C     0.68209   0.19332   0.78215   0.00000  Uiso   1.00
C674   C     0.96736   0.19346   0.78219   0.00000  Uiso   1.00
C675   C     0.83332   0.08664   0.74997   0.00000  Uiso   1.00
C676   C     0.85897   0.16649   0.64835   0.00000  Uiso   1.00
C677   C     0.93171   0.17167   0.50460   0.00000  Uiso   1.00
C678   C     0.87356   0.16307   0.59078   0.00000  Uiso   1.00
C679   C     0.74949   0.13067   0.93128   0.00000  Uiso   1.00
C680   C     0.73605   0.12247   0.98586   0.00000  Uiso   1.00
C681   C     0.76911   0.12625   0.51384   0.00000  Uiso   1.00
C682   C     0.83159   0.13536   0.93007   0.00000  Uiso   1.00
C683   C     0.85235   0.14408   0.51177   0.00000  Uiso   1.00
C684   C     0.89977   0.15336   0.98050   0.00000  Uiso   1.00
C685   C     0.91398   0.14363   0.92620   0.00000  Uiso   1.00
C686   C     0.88042   0.13209   0.90210   0.00000  Uiso   1.00
C687   C     0.84076   0.14781   0.56698   0.00000  Uiso   1.00
C688   C     0.91860   0.17563   0.55981   0.00000  Uiso   1.00
H689   H     0.94318   0.18934   0.57839   0.00000  Uiso   1.00
H690   H     0.72357   0.12902   0.90992   0.00000  Uiso   1.00
H691   H     0.75568   0.12214   0.55650   0.00000  Uiso   1.00
H692   H     0.69943   0.11507   0.50701   0.00000  Uiso   1.00
H693   H     0.89336   0.12177   0.86103   0.00000  Uiso   1.00
H694   H     0.90972   0.29590   0.73421   0.00000  Uiso   1.00
H695   H     0.93393   0.21684   0.85521   0.00000  Uiso   1.00
H696   H     0.94693   0.25203   0.80526   0.00000  Uiso   1.00
H697   H     0.99621   0.16633   0.95056   0.00000  Uiso   1.00
H698   H     0.96875   0.21186   0.94830   0.00000  Uiso   1.00
H699   H     0.90972   0.03756   0.73401   0.00000  Uiso   1.00
H700   H     0.75681   0.03745   0.76667   0.00000  Uiso   1.00
H701   H     0.75681   0.29577   0.76688   0.00000  Uiso   1.00
H702   H     0.97347   0.11859   0.69224   0.00000  Uiso   1.00
H703   H     0.72427   0.11866   0.69217   0.00000  Uiso   1.00
H704   H     0.69354   0.21459   0.80778   0.00000  Uiso   1.00
H705   H     0.95071   0.14518   0.90180   0.00000  Uiso   1.00
H706   H     0.80614   0.13919   0.59248   0.00000  Uiso   1.00
N707   N     0.71426   0.16668   0.75002   0.00000  Uiso   1.00
N708   N     0.95239   0.16665   0.75001   0.00000  Uiso   1.00
N709   N     0.93434   0.22188   0.81577   0.00000  Uiso   1.00
N710   N     0.97580   0.18962   0.97386   0.00000  Uiso   1.00
O711   O     0.79512   0.22775   0.75001   0.00000  Uiso   1.00
O712   O     0.87157   0.22774   0.75001   0.00000  Uiso   1.00
O713   O     0.77613   0.16666   0.82681   0.00000  Uiso   1.00
O714   O     0.85258   0.16665   0.82681   0.00000  Uiso   1.00
O715   O     0.79510   0.10559   0.75000   0.00000  Uiso   1.00
O716   O     0.87154   0.10558   0.75000   0.00000  Uiso   1.00
O717   O     0.81409   0.16668   0.67319   0.00000  Uiso   1.00
O718   O     0.89053   0.16667   0.67319   0.00000  Uiso   1.00
Zn719  Zn    0.78229   0.16667   0.75000   0.00000  Uiso   1.00
Zn720  Zn    0.88438   0.16666   0.75000   0.00000  Uiso   1.00
C721   C     0.16665   0.58002   0.75018   0.00000  Uiso   1.00
C722   C     0.12979   0.47416   0.90404   0.00000  Uiso   1.00
C723   C     0.20956   0.64540   0.74150   0.00000  Uiso   1.00
C724   C     0.14193   0.49168   0.84976   0.00000  Uiso   1.00
C725   C     0.20955   0.35467   0.74138   0.00000  Uiso   1.00
C726   C     0.16660   0.37582   0.75023   0.00000  Uiso   1.00
C727   C     0.12363   0.35460   0.75939   0.00000  Uiso   1.00
C728   C     0.12364   0.64533   0.75951   0.00000  Uiso   1.00
C729   C     0.16662   0.62418   0.75044   0.00000  Uiso   1.00
C730   C     0.31800   0.47329   0.71794   0.00000  Uiso   1.00
C731   C     0.03258   0.47333   0.71791   0.00000  Uiso   1.00
C732   C     0.15089   0.46773   0.98628   0.00000  Uiso   1.00
C733   C     0.01543   0.52665   0.78215   0.00000  Uiso   1.00
C734   C     0.30069   0.52680   0.78219   0.00000  Uiso   1.00
C735   C     0.16665   0.41997   0.74997   0.00000  Uiso   1.00
C736   C     0.19231   0.49982   0.64835   0.00000  Uiso   1.00
C737   C     0.26505   0.50500   0.50460   0.00000  Uiso   1.00
C738   C     0.20689   0.49640   0.59078   0.00000  Uiso   1.00
C739   C     0.08282   0.46401   0.93128   0.00000  Uiso   1.00
C740   C     0.06938   0.45581   0.98586   0.00000  Uiso   1.00
C741   C     0.10244   0.45958   0.51384   0.00000  Uiso   1.00
C742   C     0.16492   0.46870   0.93007   0.00000  Uiso   1.00
C743   C     0.18568   0.47742   0.51177   0.00000  Uiso   1.00
C744   C     0.23311   0.48669   0.98050   0.00000  Uiso   1.00
C745   C     0.24731   0.47697   0.92620   0.00000  Uiso   1.00
C746   C     0.21376   0.46542   0.90210   0.00000  Uiso   1.00
C747   C     0.17409   0.48115   0.56698   0.00000  Uiso   1.00
C748   C     0.25193   0.50896   0.55981   0.00000  Uiso   1.00
H749   H     0.27651   0.52268   0.57839   0.00000  Uiso   1.00
H750   H     0.05690   0.46235   0.90992   0.00000  Uiso   1.00
H751   H     0.08901   0.45547   0.55650   0.00000  Uiso   1.00
H752   H     0.03277   0.44841   0.50701   0.00000  Uiso   1.00
H753   H     0.22669   0.45510   0.86103   0.00000  Uiso   1.00
H754   H     0.24305   0.62924   0.73421   0.00000  Uiso   1.00
H755   H     0.26727   0.55017   0.85521   0.00000  Uiso   1.00
H756   H     0.28027   0.58536   0.80526   0.00000  Uiso   1.00
H757   H     0.32955   0.49967   0.95056   0.00000  Uiso   1.00
H758   H     0.30209   0.54519   0.94830   0.00000  Uiso   1.00
H759   H     0.24305   0.37089   0.73401   0.00000  Uiso   1.00
H760   H     0.09015   0.37078   0.76667   0.00000  Uiso   1.00
H761   H     0.09014   0.62910   0.76688   0.00000  Uiso   1.00
H762   H     0.30680   0.45193   0.69224   0.00000  Uiso   1.00
H763   H     0.05761   0.45200   0.69217   0.00000  Uiso   1.00
H764   H     0.02687   0.54792   0.80778   0.00000  Uiso   1.00
H765   H     0.28404   0.47851   0.90180   0.00000  Uiso   1.00
H766   H     0.13947   0.47253   0.59248   0.00000  Uiso   1.00
N767   N     0.04760   0.50001   0.75002   0.00000  Uiso   1.00
N768   N     0.28573   0.49998   0.75001   0.00000  Uiso   1.00
N769   N     0.26768   0.55521   0.81577   0.00000  Uiso   1.00
N770   N     0.30913   0.52295   0.97386   0.00000  Uiso   1.00
O771   O     0.12846   0.56108   0.75001   0.00000  Uiso   1.00
O772   O     0.20490   0.56107   0.75001   0.00000  Uiso   1.00
O773   O     0.10947   0.50000   0.82681   0.00000  Uiso   1.00
O774   O     0.18591   0.49999   0.82681   0.00000  Uiso   1.00
O775   O     0.12843   0.43893   0.75000   0.00000  Uiso   1.00
O776   O     0.20488   0.43892   0.75000   0.00000  Uiso   1.00
O777   O     0.14742   0.50001   0.67319   0.00000  Uiso   1.00
O778   O     0.22387   0.50000   0.67319   0.00000  Uiso   1.00
Zn779  Zn    0.11562   0.50001   0.75000   0.00000  Uiso   1.00
Zn780  Zn    0.21771   0.49999   0.75000   0.00000  Uiso   1.00
C781   C     0.49999   0.58002   0.75018   0.00000  Uiso   1.00
C782   C     0.46312   0.47416   0.90404   0.00000  Uiso   1.00
C783   C     0.54289   0.64540   0.74150   0.00000  Uiso   1.00
C784   C     0.47526   0.49168   0.84976   0.00000  Uiso   1.00
C785   C     0.54289   0.35467   0.74138   0.00000  Uiso   1.00
C786   C     0.49993   0.37582   0.75023   0.00000  Uiso   1.00
C787   C     0.45697   0.35460   0.75939   0.00000  Uiso   1.00
C788   C     0.45697   0.64533   0.75951   0.00000  Uiso   1.00
C789   C     0.49995   0.62418   0.75044   0.00000  Uiso   1.00
C790   C     0.65133   0.47329   0.71794   0.00000  Uiso   1.00
C791   C     0.36591   0.47333   0.71791   0.00000  Uiso   1.00
C792   C     0.48422   0.46773   0.98628   0.00000  Uiso   1.00
C793   C     0.34876   0.52665   0.78215   0.00000  Uiso   1.00
C794   C     0.63403   0.52680   0.78219   0.00000  Uiso   1.00
C795   C     0.49998   0.41997   0.74997   0.00000  Uiso   1.00
C796   C     0.52564   0.49982   0.64835   0.00000  Uiso   1.00
C797   C     0.59838   0.50500   0.50460   0.00000  Uiso   1.00
C798   C     0.54022   0.49640   0.59078   0.00000  Uiso   1.00
C799   C     0.41615   0.46401   0.93128   0.00000  Uiso   1.00
C800   C     0.40272   0.45581   0.98586   0.00000  Uiso   1.00
C801   C     0.43577   0.45958   0.51384   0.00000  Uiso   1.00
C802   C     0.49826   0.46870   0.93007   0.00000  Uiso   1.00
C803   C     0.51901   0.47742   0.51177   0.00000  Uiso   1.00
C804   C     0.56644   0.48669   0.98050   0.00000  Uiso   1.00
C805   C     0.58065   0.47697   0.92620   0.00000  Uiso   1.00
C806   C     0.54709   0.46542   0.90210   0.00000  Uiso   1.00
C807   C     0.50742   0.48115   0.56698   0.00000  Uiso   1.00
C808   C     0.58526   0.50896   0.55981   0.00000  Uiso   1.00
H809   H     0.60984   0.52268   0.57839   0.00000  Uiso   1.00
H810   H     0.39023   0.46235   0.90992   0.00000  Uiso   1.00
H811   H     0.42235   0.45547   0.55650   0.00000  Uiso   1.00
H812   H     0.36610   0.44841   0.50701   0.00000  Uiso   1.00
H813   H     0.56002   0.45510   0.86103   0.00000  Uiso   1.00
H814   H     0.57639   0.62924   0.73421   0.00000  Uiso   1.00
H815   H     0.60060   0.55017   0.85521   0.00000  Uiso   1.00
H816   H     0.61360   0.58536   0.80526   0.00000  Uiso   1.00
H817   H     0.66288   0.49967   0.95056   0.00000  Uiso   1.00
H818   H     0.63542   0.54519   0.94830   0.00000  Uiso   1.00
H819   H     0.57639   0.37089   0.73401   0.00000  Uiso   1.00
H820   H     0.42348   0.37078   0.76667   0.00000  Uiso   1.00
H821   H     0.42348   0.62910   0.76688   0.00000  Uiso   1.00
H822   H     0.64014   0.45193   0.69224   0.00000  Uiso   1.00
H823   H     0.39094   0.45200   0.69217   0.00000  Uiso   1.00
H824   H     0.36020   0.54792   0.80778   0.00000  Uiso   1.00
H825   H     0.61737   0.47851   0.90180   0.00000  Uiso   1.00
H826   H     0.47280   0.47253   0.59248   0.00000  Uiso   1.00
N827   N     0.38093   0.50001   0.75002   0.00000  Uiso   1.00
N828   N     0.61906   0.49998   0.75001   0.00000  Uiso   1.00
N829   N     0.60101   0.55521   0.81577   0.00000  Uiso   1.00
N830   N     0.64246   0.52295   0.97386   0.00000  Uiso   1.00
O831   O     0.46179   0.56108   0.75001   0.00000  Uiso   1.00
O832   O     0.53823   0.56107   0.75001   0.00000  Uiso   1.00
O833   O     0.44280   0.50000   0.82681   0.00000  Uiso   1.00
O834   O     0.51924   0.49999   0.82681   0.00000  Uiso   1.00
O835   O     0.46177   0.43893   0.75000   0.00000  Uiso   1.00
O836   O     0.53821   0.43892   0.75000   0.00000  Uiso   1.00
O837   O     0.48076   0.50001   0.67319   0.00000  Uiso   1.00
O838   O     0.55720   0.50000   0.67319   0.00000  Uiso   1.00
Zn839  Zn    0.44896   0.50001   0.75000   0.00000  Uiso   1.00
Zn840  Zn    0.55104   0.49999   0.75000   0.00000  Uiso   1.00
C841   C     0.83332   0.58002   0.75018   0.00000  Uiso   1.00
C842   C     0.79646   0.47416   0.90404   0.00000  Uiso   1.00
C843   C     0.87623   0.64540   0.74150   0.00000  Uiso   1.00
C844   C     0.80859   0.49168   0.84976   0.00000  Uiso   1.00
C845   C     0.87622   0.35467   0.74138   0.00000  Uiso   1.00
C846   C     0.83327   0.37582   0.75023   0.00000  Uiso   1.00
C847   C     0.79030   0.35460   0.75939   0.00000  Uiso   1.00
C848   C     0.79031   0.64533   0.75951   0.00000  Uiso   1.00
C849   C     0.83328   0.62418   0.75044   0.00000  Uiso   1.00
C850   C     0.98467   0.47329   0.71794   0.00000  Uiso   1.00
C851   C     0.69924   0.47333   0.71791   0.00000  Uiso   1.00
C852   C     0.81755   0.46773   0.98628   0.00000  Uiso   1.00
C853   C     0.68209   0.52665   0.78215   0.00000  Uiso   1.00
C854   C     0.96736   0.52680   0.78219   0.00000  Uiso   1.00
C855   C     0.83332   0.41997   0.74997   0.00000  Uiso   1.00
C856   C     0.85897   0.49982   0.64835   0.00000  Uiso   1.00
C857   C     0.93171   0.50500   0.50460   0.00000  Uiso   1.00
C858   C     0.87356   0.49640   0.59078   0.00000  Uiso   1.00
C859   C     0.74949   0.46401   0.93128   0.00000  Uiso   1.00
C860   C     0.73605   0.45581   0.98586   0.00000  Uiso   1.00
C861   C     0.76911   0.45958   0.51384   0.00000  Uiso   1.00
C862   C     0.83159   0.46870   0.93007   0.00000  Uiso   1.00
C863   C     0.85235   0.47742   0.51177   0.00000  Uiso   1.00
C864   C     0.89977   0.48669   0.98050   0.00000  Uiso   1.00
C865   C     0.91398   0.47697   0.92620   0.00000  Uiso   1.00
C866   C     0.88042   0.46542   0.90210   0.00000  Uiso   1.00
C867   C     0.84076   0.48115   0.56698   0.00000  Uiso   1.00
C868   C     0.91860   0.50896   0.55981   0.00000  Uiso   1.00
H869   H     0.94318   0.52268   0.57839   0.00000  Uiso   1.00
H870   H     0.72357   0.46235   0.90992   0.00000  Uiso   1.00
H871   H     0.75568   0.45547   0.55650   0.00000  Uiso   1.00
H872   H     0.69943   0.44841   0.50701   0.00000  Uiso   1.00
H873   H     0.89336   0.45510   0.86103   0.00000  Uiso   1.00
H874   H     0.90972   0.62924   0.73421   0.00000  Uiso   1.00
H875   H     0.93393   0.55017   0.85521   0.00000  Uiso   1.00
H876   H     0.94693   0.58536   0.80526   0.00000  Uiso   1.00
H877   H     0.99621   0.49967   0.95056   0.00000  Uiso   1.00
H878   H     0.96875   0.54519   0.94830   0.00000  Uiso   1.00
H879   H     0.90972   0.37089   0.73401   0.00000  Uiso   1.00
H880   H     0.75681   0.37078   0.76667   0.00000  Uiso   1.00
H881   H     0.75681   0.62910   0.76688   0.00000  Uiso   1.00
H882   H     0.97347   0.45193   0.69224   0.00000  Uiso   1.00
H883   H     0.72427   0.45200   0.69217   0.00000  Uiso   1.00
H884   H     0.69354   0.54792   0.80778   0.00000  Uiso   1.00
H885   H     0.95071   0.47851   0.90180   0.00000  Uiso   1.00
H886   H     0.80614   0.47253   0.59248   0.00000  Uiso   1.00
N887   N     0.71426   0.50001   0.75002   0.00000  Uiso   1.00
N888   N     0.95239   0.49998   0.75001   0.00000  Uiso   1.00
N889   N     0.93434   0.55521   0.81577   0.00000  Uiso   1.00
N890   N     0.97580   0.52295   0.97386   0.00000  Uiso   1.00
O891   O     0.79512   0.56108   0.75001   0.00000  Uiso   1.00
O892   O     0.87157   0.56107   0.75001   0.00000  Uiso   1.00
O893   O     0.77613   0.50000   0.82681   0.00000  Uiso   1.00
O894   O     0.85258   0.49999   0.82681   0.00000  Uiso   1.00
O895   O     0.79510   0.43893   0.75000   0.00000  Uiso   1.00
O896   O     0.87154   0.43892   0.75000   0.00000  Uiso   1.00
O897   O     0.81409   0.50001   0.67319   0.00000  Uiso   1.00
O898   O     0.89053   0.50000   0.67319   0.00000  Uiso   1.00
Zn899  Zn    0.78229   0.50001   0.75000   0.00000  Uiso   1.00
Zn900  Zn    0.88438   0.49999   0.75000   0.00000  Uiso   1.00
C901   C     0.16665   0.91336   0.75018   0.00000  Uiso   1.00
C902   C     0.12979   0.80750   0.90404   0.00000  Uiso   1.00
C903   C     0.20956   0.97874   0.74150   0.00000  Uiso   1.00
C904   C     0.14193   0.82502   0.84976   0.00000  Uiso   1.00
C905   C     0.20955   0.68800   0.74138   0.00000  Uiso   1.00
C906   C     0.16660   0.70915   0.75023   0.00000  Uiso   1.00
C907   C     0.12363   0.68794   0.75939   0.00000  Uiso   1.00
C908   C     0.12364   0.97867   0.75951   0.00000  Uiso   1.00
C909   C     0.16662   0.95752   0.75044   0.00000  Uiso   1.00
C910   C     0.31800   0.80662   0.71794   0.00000  Uiso   1.00
C911   C     0.03258   0.80666   0.71791   0.00000  Uiso   1.00
C912   C     0.15089   0.80107   0.98628   0.00000  Uiso   1.00
C913   C     0.01543   0.85999   0.78215   0.00000  Uiso   1.00
C914   C     0.30069   0.86013   0.78219   0.00000  Uiso   1.00
C915   C     0.16665   0.75330   0.74997   0.00000  Uiso   1.00
C916   C     0.19231   0.83315   0.64835   0.00000  Uiso   1.00
C917   C     0.26505   0.83834   0.50460   0.00000  Uiso   1.00
C918   C     0.20689   0.82973   0.59078   0.00000  Uiso   1.00
C919   C     0.08282   0.79734   0.93128   0.00000  Uiso   1.00
C920   C     0.06938   0.78914   0.98586   0.00000  Uiso   1.00
C921   C     0.10244   0.79292   0.51384   0.00000  Uiso   1.00
C922   C     0.16492   0.80203   0.93007   0.00000  Uiso   1.00
C923   C     0.18568   0.81075   0.51177   0.00000  Uiso   1.00
C924   C     0.23311   0.82002   0.98050   0.00000  Uiso   1.00
C925   C     0.24731   0.81030   0.92620   0.00000  Uiso   1.00
C926   C     0.21376   0.79875   0.90210   0.00000  Uiso   1.00
C927   C     0.17409   0.81448   0.56698   0.00000  Uiso   1.00
C928   C     0.25193   0.84230   0.55981   0.00000  Uiso   1.00
H929   H     0.27651   0.85601   0.57839   0.00000  Uiso   1.00
H930   H     0.05690   0.79569   0.90992   0.00000  Uiso   1.00
H931   H     0.08901   0.78880   0.55650   0.00000  Uiso   1.00
H932   H     0.03277   0.78174   0.50701   0.00000  Uiso   1.00
H933   H     0.22669   0.78844   0.86103   0.00000  Uiso   1.00
H934   H     0.24305   0.96257   0.73421   0.00000  Uiso   1.00
H935   H     0.26727   0.88350   0.85521   0.00000  Uiso   1.00
H936   H     0.28027   0.91870   0.80526   0.00000  Uiso   1.00
H937   H     0.32955   0.83300   0.95056   0.00000  Uiso   1.00
H938   H     0.30209   0.87853   0.94830   0.00000  Uiso   1.00
H939   H     0.24305   0.70423   0.73401   0.00000  Uiso   1.00
H940   H     0.09015   0.70412   0.76667   0.00000  Uiso   1.00
H941   H     0.09014   0.96243   0.76688   0.00000  Uiso   1.00
H942   H     0.30680   0.78526   0.69224   0.00000  Uiso   1.00
H943   H     0.05761   0.78533   0.69217   0.00000  Uiso   1.00
H944   H     0.02687   0.88125   0.80778   0.00000  Uiso   1.00
H945   H     0.28404   0.81185   0.90180   0.00000  Uiso   1.00
H946   H     0.13947   0.80586   0.59248   0.00000  Uiso   1.00
N947   N     0.04760   0.83334   0.75002   0.00000  Uiso   1.00
N948   N     0.28573   0.83331   0.75001   0.00000  Uiso   1.00
N949   N     0.26768   0.88854   0.81577   0.00000  Uiso   1.00
N950   N     0.30913   0.85628   0.97386   0.00000  Uiso   1.00
O951   O     0.12846   0.89442   0.75001   0.00000  Uiso   1.00
O952   O     0.20490   0.89441   0.75001   0.00000  Uiso   1.00
O953   O     0.10947   0.83333   0.82681   0.00000  Uiso   1.00
O954   O     0.18591   0.83332   0.82681   0.00000  Uiso   1.00
O955   O     0.12843   0.77226   0.75000   0.00000  Uiso   1.00
O956   O     0.20488   0.77225   0.75000   0.00000  Uiso   1.00
O957   O     0.14742   0.83335   0.67319   0.00000  Uiso   1.00
O958   O     0.22387   0.83334   0.67319   0.00000  Uiso   1.00
Zn959  Zn    0.11562   0.83334   0.75000   0.00000  Uiso   1.00
Zn960  Zn    0.21771   0.83333   0.75000   0.00000  Uiso   1.00
C961   C     0.49999   0.91336   0.75018   0.00000  Uiso   1.00
C962   C     0.46312   0.80750   0.90404   0.00000  Uiso   1.00
C963   C     0.54289   0.97874   0.74150   0.00000  Uiso   1.00
C964   C     0.47526   0.82502   0.84976   0.00000  Uiso   1.00
C965   C     0.54289   0.68800   0.74138   0.00000  Uiso   1.00
C966   C     0.49993   0.70915   0.75023   0.00000  Uiso   1.00
C967   C     0.45697   0.68794   0.75939   0.00000  Uiso   1.00
C968   C     0.45697   0.97867   0.75951   0.00000  Uiso   1.00
C969   C     0.49995   0.95752   0.75044   0.00000  Uiso   1.00
C970   C     0.65133   0.80662   0.71794   0.00000  Uiso   1.00
C971   C     0.36591   0.80666   0.71791   0.00000  Uiso   1.00
C972   C     0.48422   0.80107   0.98628   0.00000  Uiso   1.00
C973   C     0.34876   0.85999   0.78215   0.00000  Uiso   1.00
C974   C     0.63403   0.86013   0.78219   0.00000  Uiso   1.00
C975   C     0.49998   0.75330   0.74997   0.00000  Uiso   1.00
C976   C     0.52564   0.83315   0.64835   0.00000  Uiso   1.00
C977   C     0.59838   0.83834   0.50460   0.00000  Uiso   1.00
C978   C     0.54022   0.82973   0.59078   0.00000  Uiso   1.00
C979   C     0.41615   0.79734   0.93128   0.00000  Uiso   1.00
C980   C     0.40272   0.78914   0.98586   0.00000  Uiso   1.00
C981   C     0.43577   0.79292   0.51384   0.00000  Uiso   1.00
C982   C     0.49826   0.80203   0.93007   0.00000  Uiso   1.00
C983   C     0.51901   0.81075   0.51177   0.00000  Uiso   1.00
C984   C     0.56644   0.82002   0.98050   0.00000  Uiso   1.00
C985   C     0.58065   0.81030   0.92620   0.00000  Uiso   1.00
C986   C     0.54709   0.79875   0.90210   0.00000  Uiso   1.00
C987   C     0.50742   0.81448   0.56698   0.00000  Uiso   1.00
C988   C     0.58526   0.84230   0.55981   0.00000  Uiso   1.00
H989   H     0.60984   0.85601   0.57839   0.00000  Uiso   1.00
H990   H     0.39023   0.79569   0.90992   0.00000  Uiso   1.00
H991   H     0.42235   0.78880   0.55650   0.00000  Uiso   1.00
H992   H     0.36610   0.78174   0.50701   0.00000  Uiso   1.00
H993   H     0.56002   0.78844   0.86103   0.00000  Uiso   1.00
H994   H     0.57639   0.96257   0.73421   0.00000  Uiso   1.00
H995   H     0.60060   0.88350   0.85521   0.00000  Uiso   1.00
H996   H     0.61360   0.91870   0.80526   0.00000  Uiso   1.00
H997   H     0.66288   0.83300   0.95056   0.00000  Uiso   1.00
H998   H     0.63542   0.87853   0.94830   0.00000  Uiso   1.00
H999   H     0.57639   0.70423   0.73401   0.00000  Uiso   1.00
H1000  H     0.42348   0.70412   0.76667   0.00000  Uiso   1.00
H1001  H     0.42348   0.96243   0.76688   0.00000  Uiso   1.00
H1002  H     0.64014   0.78526   0.69224   0.00000  Uiso   1.00
H1003  H     0.39094   0.78533   0.69217   0.00000  Uiso   1.00
H1004  H     0.36020   0.88125   0.80778   0.00000  Uiso   1.00
H1005  H     0.61737   0.81185   0.90180   0.00000  Uiso   1.00
H1006  H     0.47280   0.80586   0.59248   0.00000  Uiso   1.00
N1007  N     0.38093   0.83334   0.75002   0.00000  Uiso   1.00
N1008  N     0.61906   0.83331   0.75001   0.00000  Uiso   1.00
N1009  N     0.60101   0.88854   0.81577   0.00000  Uiso   1.00
N1010  N     0.64246   0.85628   0.97386   0.00000  Uiso   1.00
O1011  O     0.46179   0.89442   0.75001   0.00000  Uiso   1.00
O1012  O     0.53823   0.89441   0.75001   0.00000  Uiso   1.00
O1013  O     0.44280   0.83333   0.82681   0.00000  Uiso   1.00
O1014  O     0.51924   0.83332   0.82681   0.00000  Uiso   1.00
O1015  O     0.46177   0.77226   0.75000   0.00000  Uiso   1.00
O1016  O     0.53821   0.77225   0.75000   0.00000  Uiso   1.00
O1017  O     0.48076   0.83335   0.67319   0.00000  Uiso   1.00
O1018  O     0.55720   0.83334   0.67319   0.00000  Uiso   1.00
Zn1019 Zn    0.44896   0.83334   0.75000   0.00000  Uiso   1.00
Zn1020 Zn    0.55104   0.83333   0.75000   0.00000  Uiso   1.00
C1021  C     0.83332   0.91336   0.75018   0.00000  Uiso   1.00
C1022  C     0.79646   0.80750   0.90404   0.00000  Uiso   1.00
C1023  C     0.87623   0.97874   0.74150   0.00000  Uiso   1.00
C1024  C     0.80859   0.82502   0.84976   0.00000  Uiso   1.00
C1025  C     0.87622   0.68800   0.74138   0.00000  Uiso   1.00
C1026  C     0.83327   0.70915   0.75023   0.00000  Uiso   1.00
C1027  C     0.79030   0.68794   0.75939   0.00000  Uiso   1.00
C1028  C     0.79031   0.97867   0.75951   0.00000  Uiso   1.00
C1029  C     0.83328   0.95752   0.75044   0.00000  Uiso   1.00
C1030  C     0.98467   0.80662   0.71794   0.00000  Uiso   1.00
C1031  C     0.69924   0.80666   0.71791   0.00000  Uiso   1.00
C1032  C     0.81755   0.80107   0.98628   0.00000  Uiso   1.00
C1033  C     0.68209   0.85999   0.78215   0.00000  Uiso   1.00
C1034  C     0.96736   0.86013   0.78219   0.00000  Uiso   1.00
C1035  C     0.83332   0.75330   0.74997   0.00000  Uiso   1.00
C1036  C     0.85897   0.83315   0.64835   0.00000  Uiso   1.00
C1037  C     0.93171   0.83834   0.50460   0.00000  Uiso   1.00
C1038  C     0.87356   0.82973   0.59078   0.00000  Uiso   1.00
C1039  C     0.74949   0.79734   0.93128   0.00000  Uiso   1.00
C1040  C     0.73605   0.78914   0.98586   0.00000  Uiso   1.00
C1041  C     0.76911   0.79292   0.51384   0.00000  Uiso   1.00
C1042  C     0.83159   0.80203   0.93007   0.00000  Uiso   1.00
C1043  C     0.85235   0.81075   0.51177   0.00000  Uiso   1.00
C1044  C     0.89977   0.82002   0.98050   0.00000  Uiso   1.00
C1045  C     0.91398   0.81030   0.92620   0.00000  Uiso   1.00
C1046  C     0.88042   0.79875   0.90210   0.00000  Uiso   1.00
C1047  C     0.84076   0.81448   0.56698   0.00000  Uiso   1.00
C1048  C     0.91860   0.84230   0.55981   0.00000  Uiso   1.00
H1049  H     0.94318   0.85601   0.57839   0.00000  Uiso   1.00
H1050  H     0.72357   0.79569   0.90992   0.00000  Uiso   1.00
H1051  H     0.75568   0.78880   0.55650   0.00000  Uiso   1.00
H1052  H     0.69943   0.78174   0.50701   0.00000  Uiso   1.00
H1053  H     0.89336   0.78844   0.86103   0.00000  Uiso   1.00
H1054  H     0.90972   0.96257   0.73421   0.00000  Uiso   1.00
H1055  H     0.93393   0.88350   0.85521   0.00000  Uiso   1.00
H1056  H     0.94693   0.91870   0.80526   0.00000  Uiso   1.00
H1057  H     0.99621   0.83300   0.95056   0.00000  Uiso   1.00
H1058  H     0.96875   0.87853   0.94830   0.00000  Uiso   1.00
H1059  H     0.90972   0.70423   0.73401   0.00000  Uiso   1.00
H1060  H     0.75681   0.70412   0.76667   0.00000  Uiso   1.00
H1061  H     0.75681   0.96243   0.76688   0.00000  Uiso   1.00
H1062  H     0.97347   0.78526   0.69224   0.00000  Uiso   1.00
H1063  H     0.72427   0.78533   0.69217   0.00000  Uiso   1.00
H1064  H     0.69354   0.88125   0.80778   0.00000  Uiso   1.00
H1065  H     0.95071   0.81185   0.90180   0.00000  Uiso   1.00
H1066  H     0.80614   0.80586   0.59248   0.00000  Uiso   1.00
N1067  N     0.71426   0.83334   0.75002   0.00000  Uiso   1.00
N1068  N     0.95239   0.83331   0.75001   0.00000  Uiso   1.00
N1069  N     0.93434   0.88854   0.81577   0.00000  Uiso   1.00
N1070  N     0.97580   0.85628   0.97386   0.00000  Uiso   1.00
O1071  O     0.79512   0.89442   0.75001   0.00000  Uiso   1.00
O1072  O     0.87157   0.89441   0.75001   0.00000  Uiso   1.00
O1073  O     0.77613   0.83333   0.82681   0.00000  Uiso   1.00
O1074  O     0.85258   0.83332   0.82681   0.00000  Uiso   1.00
O1075  O     0.79510   0.77226   0.75000   0.00000  Uiso   1.00
O1076  O     0.87154   0.77225   0.75000   0.00000  Uiso   1.00
O1077  O     0.81409   0.83335   0.67319   0.00000  Uiso   1.00
O1078  O     0.89053   0.83334   0.67319   0.00000  Uiso   1.00
Zn1079 Zn    0.78229   0.83334   0.75000   0.00000  Uiso   1.00
Zn1080 Zn    0.88438   0.83333   0.75000   0.00000  Uiso   1.00
loop_
_geom_bond_atom_site_label_1
_geom_bond_atom_site_label_2
_geom_bond_distance
_geom_bond_site_symmetry_2
_ccdc_geom_bond_type
C1     C9      1.420   .     S
C1     O51     1.284   .     A
C1     O52     1.284   .     A
C2     C22     1.418   .     A
C2     C4      1.473   .     S
C2     C19     1.394   .     A
C3     C9      1.397   .     A
C3     H34     1.084   .     S
C3     C185    1.370   .     S
C4     O53     1.308   .     A
C4     O54     1.285   .     A
C5     H39     1.084   .     S
C5     C6      1.397   .     A
C5     C363    1.370   1_545 S
C6     C7      1.397   .     A
C6     C15     1.420   .     S
C7     H40     1.084   .     S
C7     C368    1.370   1_545 S
C8     H41     1.084   .     S
C8     C9      1.397   .     A
C8     C187    1.370   .     S
C10    H42     1.082   .     S
C10    N48     1.366   .     A
C10    C71     1.417   .     S
C11    H43     1.082   .     S
C11    N47     1.367   .     A
C11    C130    1.417   1_455 S
C12    C22     1.407   .     A
C12    C561    1.420   .     S
C12    C563    1.422   .     S
C13    N47     1.365   .     A
C13    H44     1.082   .     S
C13    C134    1.422   1_455 S
C14    N49     1.429   .     S
C14    N48     1.370   .     A
C14    C73     1.422   .     S
C15    O56     1.284   .     A
C15    O55     1.285   .     A
C16    O58     1.291   .     A
C16    O57     1.289   .     A
C16    C18     1.445   .     S
C17    C28     1.388   .     A
C17    C564    1.414   1_554 S
C17    N590    1.430   1_554 S
C18    C28     1.393   .     A
C18    C27     1.393   .     A
C19    C20     1.392   .     A
C19    H30     1.080   .     S
C20    C561    1.396   .     S
C20    H572    1.083   .     S
C21    H31     1.077   .     S
C21    C552    1.420   1_554 S
C21    C560    1.396   1_554 S
C22    C26     1.411   .     A
C23    C27     1.389   .     A
C23    C552    1.422   1_554 S
C23    C564    1.425   1_554 S
C24    C25     1.393   .     A
C24    C557    1.414   .     S
C24    C563    1.425   .     S
C25    C26     1.380   .     A
C25    H45     1.082   .     S
C26    H33     1.081   .     S
C27    H46     1.076   .     S
C28    H29     1.084   .     S
H32    C560    1.083   1_554 S
H35    N49     1.045   .     S
H36    N49     1.045   .     S
H37    N50     1.036   .     S
H38    N50     1.046   .     S
N47    Zn59    2.012   .     S
N48    Zn60    2.012   .     S
N50    C557    1.430   .     S
O51    Zn59    2.000   .     S
O52    Zn60    2.001   .     S
O53    Zn59    1.969   .     S
O54    Zn60    1.949   .     S
O55    Zn59    2.001   .     S
O56    Zn60    2.000   .     S
O57    Zn59    1.949   .     S
O58    Zn60    1.969   .     S
C61    C69     1.420   .     S
C61    O111    1.284   .     A
C61    O112    1.284   .     A
C62    C82     1.418   .     A
C62    C64     1.473   .     S
C62    C79     1.394   .     A
C63    C69     1.397   .     A
C63    H94     1.084   .     S
C63    C245    1.370   .     S
C64    O113    1.308   .     A
C64    O114    1.285   .     A
C65    H99     1.084   .     S
C65    C66     1.397   .     A
C65    C423    1.370   1_545 S
C66    C67     1.397   .     A
C66    C75     1.420   .     S
C67    H100    1.084   .     S
C67    C428    1.370   1_545 S
C68    H101    1.084   .     S
C68    C69     1.397   .     A
C68    C247    1.370   .     S
C70    H102    1.082   .     S
C70    N108    1.366   .     A
C70    C131    1.417   .     S
C71    H103    1.082   .     S
C71    N107    1.367   .     A
C72    C82     1.407   .     A
C72    C621    1.420   .     S
C72    C623    1.422   .     S
C73    N107    1.365   .     A
C73    H104    1.082   .     S
C74    N109    1.429   .     S
C74    N108    1.370   .     A
C74    C133    1.422   .     S
C75    O116    1.284   .     A
C75    O115    1.285   .     A
C76    O118    1.291   .     A
C76    O117    1.289   .     A
C76    C78     1.445   .     S
C77    C88     1.388   .     A
C77    C624    1.414   1_554 S
C77    N650    1.430   1_554 S
C78    C88     1.393   .     A
C78    C87     1.393   .     A
C79    C80     1.392   .     A
C79    H90     1.080   .     S
C80    C621    1.396   .     S
C80    H632    1.083   .     S
C81    H91     1.077   .     S
C81    C612    1.420   1_554 S
C81    C620    1.396   1_554 S
C82    C86     1.411   .     A
C83    C87     1.389   .     A
C83    C612    1.422   1_554 S
C83    C624    1.425   1_554 S
C84    C85     1.393   .     A
C84    C617    1.414   .     S
C84    C623    1.425   .     S
C85    C86     1.380   .     A
C85    H105    1.082   .     S
C86    H93     1.081   .     S
C87    H106    1.076   .     S
C88    H89     1.084   .     S
H92    C620    1.083   1_554 S
H95    N109    1.045   .     S
H96    N109    1.045   .     S
H97    N110    1.036   .     S
H98    N110    1.046   .     S
N107   Zn119   2.012   .     S
N108   Zn120   2.012   .     S
N110   C617    1.430   .     S
O111   Zn119   2.000   .     S
O112   Zn120   2.001   .     S
O113   Zn119   1.969   .     S
O114   Zn120   1.949   .     S
O115   Zn119   2.001   .     S
O116   Zn120   2.000   .     S
O117   Zn119   1.949   .     S
O118   Zn120   1.969   .     S
C121   C129    1.420   .     S
C121   O171    1.284   .     A
C121   O172    1.284   .     A
C122   C142    1.418   .     A
C122   C124    1.473   .     S
C122   C139    1.394   .     A
C123   C129    1.397   .     A
C123   H154    1.084   .     S
C123   C305    1.370   .     S
C124   O173    1.308   .     A
C124   O174    1.285   .     A
C125   H159    1.084   .     S
C125   C126    1.397   .     A
C125   C483    1.370   1_545 S
C126   C127    1.397   .     A
C126   C135    1.420   .     S
C127   H160    1.084   .     S
C127   C488    1.370   1_545 S
C128   H161    1.084   .     S
C128   C129    1.397   .     A
C128   C307    1.370   .     S
C130   H162    1.082   .     S
C130   N168    1.366   .     A
C130   C11     1.417   1_655 S
C131   H163    1.082   .     S
C131   N167    1.367   .     A
C132   C142    1.407   .     A
C132   C681    1.420   .     S
C132   C683    1.422   .     S
C133   N167    1.365   .     A
C133   H164    1.082   .     S
C134   N169    1.429   .     S
C134   N168    1.370   .     A
C134   C13     1.422   1_655 S
C135   O176    1.284   .     A
C135   O175    1.285   .     A
C136   O178    1.291   .     A
C136   O177    1.289   .     A
C136   C138    1.445   .     S
C137   C148    1.388   .     A
C137   C684    1.414   1_554 S
C137   N710    1.430   1_554 S
C138   C148    1.393   .     A
C138   C147    1.393   .     A
C139   C140    1.392   .     A
C139   H150    1.080   .     S
C140   C681    1.396   .     S
C140   H692    1.083   .     S
C141   H151    1.077   .     S
C141   C672    1.420   1_554 S
C141   C680    1.396   1_554 S
C142   C146    1.411   .     A
C143   C147    1.389   .     A
C143   C672    1.422   1_554 S
C143   C684    1.425   1_554 S
C144   C145    1.393   .     A
C144   C677    1.414   .     S
C144   C683    1.425   .     S
C145   C146    1.380   .     A
C145   H165    1.082   .     S
C146   H153    1.081   .     S
C147   H166    1.076   .     S
C148   H149    1.084   .     S
H152   C680    1.083   1_554 S
H155   N169    1.045   .     S
H156   N169    1.045   .     S
H157   N170    1.036   .     S
H158   N170    1.046   .     S
N167   Zn179   2.012   .     S
N168   Zn180   2.012   .     S
N170   C677    1.430   .     S
O171   Zn179   2.000   .     S
O172   Zn180   2.001   .     S
O173   Zn179   1.969   .     S
O174   Zn180   1.949   .     S
O175   Zn179   2.001   .     S
O176   Zn180   2.000   .     S
O177   Zn179   1.949   .     S
O178   Zn180   1.969   .     S
C181   C189    1.420   .     S
C181   O231    1.284   .     A
C181   O232    1.284   .     A
C182   C202    1.418   .     A
C182   C184    1.473   .     S
C182   C199    1.394   .     A
C183   C189    1.397   .     A
C183   H214    1.084   .     S
C183   C365    1.370   .     S
C184   O233    1.308   .     A
C184   O234    1.285   .     A
C185   H219    1.084   .     S
C185   C186    1.397   .     A
C186   C187    1.397   .     A
C186   C195    1.420   .     S
C187   H220    1.084   .     S
C188   H221    1.084   .     S
C188   C189    1.397   .     A
C188   C367    1.370   .     S
C190   H222    1.082   .     S
C190   N228    1.366   .     A
C190   C251    1.417   .     S
C191   H223    1.082   .     S
C191   N227    1.367   .     A
C191   C310    1.417   1_455 S
C192   C202    1.407   .     A
C192   C741    1.420   .     S
C192   C743    1.422   .     S
C193   N227    1.365   .     A
C193   H224    1.082   .     S
C193   C314    1.422   1_455 S
C194   N229    1.429   .     S
C194   N228    1.370   .     A
C194   C253    1.422   .     S
C195   O236    1.284   .     A
C195   O235    1.285   .     A
C196   O238    1.291   .     A
C196   O237    1.289   .     A
C196   C198    1.445   .     S
C197   C208    1.388   .     A
C197   C744    1.414   1_554 S
C197   N770    1.430   1_554 S
C198   C208    1.393   .     A
C198   C207    1.393   .     A
C199   C200    1.392   .     A
C199   H210    1.080   .     S
C200   C741    1.396   .     S
C200   H752    1.083   .     S
C201   H211    1.077   .     S
C201   C732    1.420   1_554 S
C201   C740    1.396   1_554 S
C202   C206    1.411   .     A
C203   C207    1.389   .     A
C203   C732    1.422   1_554 S
C203   C744    1.425   1_554 S
C204   C205    1.393   .     A
C204   C737    1.414   .     S
C204   C743    1.425   .     S
C205   C206    1.380   .     A
C205   H225    1.082   .     S
C206   H213    1.081   .     S
C207   H226    1.076   .     S
C208   H209    1.084   .     S
H212   C740    1.083   1_554 S
H215   N229    1.045   .     S
H216   N229    1.045   .     S
H217   N230    1.036   .     S
H218   N230    1.046   .     S
N227   Zn239   2.012   .     S
N228   Zn240   2.012   .     S
N230   C737    1.430   .     S
O231   Zn239   2.000   .     S
O232   Zn240   2.001   .     S
O233   Zn239   1.969   .     S
O234   Zn240   1.949   .     S
O235   Zn239   2.001   .     S
O236   Zn240   2.000   .     S
O237   Zn239   1.949   .     S
O238   Zn240   1.969   .     S
C241   C249    1.420   .     S
C241   O291    1.284   .     A
C241   O292    1.284   .     A
C242   C262    1.418   .     A
C242   C244    1.473   .     S
C242   C259    1.394   .     A
C243   C249    1.397   .     A
C243   H274    1.084   .     S
C243   C425    1.370   .     S
C244   O293    1.308   .     A
C244   O294    1.285   .     A
C245   H279    1.084   .     S
C245   C246    1.397   .     A
C246   C247    1.397   .     A
C246   C255    1.420   .     S
C247   H280    1.084   .     S
C248   H281    1.084   .     S
C248   C249    1.397   .     A
C248   C427    1.370   .     S
C250   H282    1.082   .     S
C250   N288    1.366   .     A
C250   C311    1.417   .     S
C251   H283    1.082   .     S
C251   N287    1.367   .     A
C252   C262    1.407   .     A
C252   C801    1.420   .     S
C252   C803    1.422   .     S
C253   N287    1.365   .     A
C253   H284    1.082   .     S
C254   N289    1.429   .     S
C254   N288    1.370   .     A
C254   C313    1.422   .     S
C255   O296    1.284   .     A
C255   O295    1.285   .     A
C256   O298    1.291   .     A
C256   O297    1.289   .     A
C256   C258    1.445   .     S
C257   C268    1.388   .     A
C257   C804    1.414   1_554 S
C257   N830    1.430   1_554 S
C258   C268    1.393   .     A
C258   C267    1.393   .     A
C259   C260    1.392   .     A
C259   H270    1.080   .     S
C260   C801    1.396   .     S
C260   H812    1.083   .     S
C261   H271    1.077   .     S
C261   C792    1.420   1_554 S
C261   C800    1.396   1_554 S
C262   C266    1.411   .     A
C263   C267    1.389   .     A
C263   C792    1.422   1_554 S
C263   C804    1.425   1_554 S
C264   C265    1.393   .     A
C264   C797    1.414   .     S
C264   C803    1.425   .     S
C265   C266    1.380   .     A
C265   H285    1.082   .     S
C266   H273    1.081   .     S
C267   H286    1.076   .     S
C268   H269    1.084   .     S
H272   C800    1.083   1_554 S
H275   N289    1.045   .     S
H276   N289    1.045   .     S
H277   N290    1.036   .     S
H278   N290    1.046   .     S
N287   Zn299   2.012   .     S
N288   Zn300   2.012   .     S
N290   C797    1.430   .     S
O291   Zn299   2.000   .     S
O292   Zn300   2.001   .     S
O293   Zn299   1.969   .     S
O294   Zn300   1.949   .     S
O295   Zn299   2.001   .     S
O296   Zn300   2.000   .     S
O297   Zn299   1.949   .     S
O298   Zn300   1.969   .     S
C301   C309    1.420   .     S
C301   O351    1.284   .     A
C301   O352    1.284   .     A
C302   C322    1.418   .     A
C302   C304    1.473   .     S
C302   C319    1.394   .     A
C303   C309    1.397   .     A
C303   H334    1.084   .     S
C303   C485    1.370   .     S
C304   O353    1.308   .     A
C304   O354    1.285   .     A
C305   H339    1.084   .     S
C305   C306    1.397   .     A
C306   C307    1.397   .     A
C306   C315    1.420   .     S
C307   H340    1.084   .     S
C308   H341    1.084   .     S
C308   C309    1.397   .     A
C308   C487    1.370   .     S
C310   H342    1.082   .     S
C310   N348    1.366   .     A
C310   C191    1.417   1_655 S
C311   H343    1.082   .     S
C311   N347    1.367   .     A
C312   C322    1.407   .     A
C312   C861    1.420   .     S
C312   C863    1.422   .     S
C313   N347    1.365   .     A
C313   H344    1.082   .     S
C314   N349    1.429   .     S
C314   N348    1.370   .     A
C314   C193    1.422   1_655 S
C315   O356    1.284   .     A
C315   O355    1.285   .     A
C316   O358    1.291   .     A
C316   O357    1.289   .     A
C316   C318    1.445   .     S
C317   C328    1.388   .     A
C317   C864    1.414   1_554 S
C317   N890    1.430   1_554 S
C318   C328    1.393   .     A
C318   C327    1.393   .     A
C319   C320    1.392   .     A
C319   H330    1.080   .     S
C320   C861    1.396   .     S
C320   H872    1.083   .     S
C321   H331    1.077   .     S
C321   C852    1.420   1_554 S
C321   C860    1.396   1_554 S
C322   C326    1.411   .     A
C323   C327    1.389   .     A
C323   C852    1.422   1_554 S
C323   C864    1.425   1_554 S
C324   C325    1.393   .     A
C324   C857    1.414   .     S
C324   C863    1.425   .     S
C325   C326    1.380   .     A
C325   H345    1.082   .     S
C326   H333    1.081   .     S
C327   H346    1.076   .     S
C328   H329    1.084   .     S
H332   C860    1.083   1_554 S
H335   N349    1.045   .     S
H336   N349    1.045   .     S
H337   N350    1.036   .     S
H338   N350    1.046   .     S
N347   Zn359   2.012   .     S
N348   Zn360   2.012   .     S
N350   C857    1.430   .     S
O351   Zn359   2.000   .     S
O352   Zn360   2.001   .     S
O353   Zn359   1.969   .     S
O354   Zn360   1.949   .     S
O355   Zn359   2.001   .     S
O356   Zn360   2.000   .     S
O357   Zn359   1.949   .     S
O358   Zn360   1.969   .     S
C361   C369    1.420   .     S
C361   O411    1.284   .     A
C361   O412    1.284   .     A
C362   C382    1.418   .     A
C362   C364    1.473   .     S
C362   C379    1.394   .     A
C363   C369    1.397   .     A
C363   H394    1.084   .     S
C363   C5      1.370   1_565 S
C364   O413    1.308   .     A
C364   O414    1.285   .     A
C365   H399    1.084   .     S
C365   C366    1.397   .     A
C366   C367    1.397   .     A
C366   C375    1.420   .     S
C367   H400    1.084   .     S
C368   H401    1.084   .     S
C368   C369    1.397   .     A
C368   C7      1.370   1_565 S
C370   H402    1.082   .     S
C370   N408    1.366   .     A
C370   C431    1.417   .     S
C371   H403    1.082   .     S
C371   N407    1.367   .     A
C371   C490    1.417   1_455 S
C372   C382    1.407   .     A
C372   C921    1.420   .     S
C372   C923    1.422   .     S
C373   N407    1.365   .     A
C373   H404    1.082   .     S
C373   C494    1.422   1_455 S
C374   N409    1.429   .     S
C374   N408    1.370   .     A
C374   C433    1.422   .     S
C375   O416    1.284   .     A
C375   O415    1.285   .     A
C376   O418    1.291   .     A
C376   O417    1.289   .     A
C376   C378    1.445   .     S
C377   C388    1.388   .     A
C377   C924    1.414   1_554 S
C377   N950    1.430   1_554 S
C378   C388    1.393   .     A
C378   C387    1.393   .     A
C379   C380    1.392   .     A
C379   H390    1.080   .     S
C380   C921    1.396   .     S
C380   H932    1.083   .     S
C381   H391    1.077   .     S
C381   C912    1.420   1_554 S
C381   C920    1.396   1_554 S
C382   C386    1.411   .     A
C383   C387    1.389   .     A
C383   C912    1.422   1_554 S
C383   C924    1.425   1_554 S
C384   C385    1.393   .     A
C384   C917    1.414   .     S
C384   C923    1.425   .     S
C385   C386    1.380   .     A
C385   H405    1.082   .     S
C386   H393    1.081   .     S
C387   H406    1.076   .     S
C388   H389    1.084   .     S
H392   C920    1.083   1_554 S
H395   N409    1.045   .     S
H396   N409    1.045   .     S
H397   N410    1.036   .     S
H398   N410    1.046   .     S
N407   Zn419   2.012   .     S
N408   Zn420   2.012   .     S
N410   C917    1.430   .     S
O411   Zn419   2.000   .     S
O412   Zn420   2.001   .     S
O413   Zn419   1.969   .     S
O414   Zn420   1.949   .     S
O415   Zn419   2.001   .     S
O416   Zn420   2.000   .     S
O417   Zn419   1.949   .     S
O418   Zn420   1.969   .     S
C421   C429    1.420   .     S
C421   O471    1.284   .     A
C421   O472    1.284   .     A
C422   C442    1.418   .     A
C422   C424    1.473   .     S
C422   C439    1.394   .     A
C423   C429    1.397   .     A
C423   H454    1.084   .     S
C423   C65     1.370   1_565 S
C424   O473    1.308   .     A
C424   O474    1.285   .     A
C425   H459    1.084   .     S
C425   C426    1.397   .     A
C426   C427    1.397   .     A
C426   C435    1.420   .     S
C427   H460    1.084   .     S
C428   H461    1.084   .     S
C428   C429    1.397   .     A
C428   C67     1.370   1_565 S
C430   H462    1.082   .     S
C430   N468    1.366   .     A
C430   C491    1.417   .     S
C431   H463    1.082   .     S
C431   N467    1.367   .     A
C432   C442    1.407   .     A
C432   C981    1.420   .     S
C432   C983    1.422   .     S
C433   N467    1.365   .     A
C433   H464    1.082   .     S
C434   N469    1.429   .     S
C434   N468    1.370   .     A
C434   C493    1.422   .     S
C435   O476    1.284   .     A
C435   O475    1.285   .     A
C436   O478    1.291   .     A
C436   O477    1.289   .     A
C436   C438    1.445   .     S
C437   C448    1.388   .     A
C437   C984    1.414   1_554 S
C437   N1010   1.430   1_554 S
C438   C448    1.393   .     A
C438   C447    1.393   .     A
C439   C440    1.392   .     A
C439   H450    1.080   .     S
C440   C981    1.396   .     S
C440   H992    1.083   .     S
C441   H451    1.077   .     S
C441   C972    1.420   1_554 S
C441   C980    1.396   1_554 S
C442   C446    1.411   .     A
C443   C447    1.389   .     A
C443   C972    1.422   1_554 S
C443   C984    1.425   1_554 S
C444   C445    1.393   .     A
C444   C977    1.414   .     S
C444   C983    1.425   .     S
C445   C446    1.380   .     A
C445   H465    1.082   .     S
C446   H453    1.081   .     S
C447   H466    1.076   .     S
C448   H449    1.084   .     S
H452   C980    1.083   1_554 S
H455   N469    1.045   .     S
H456   N469    1.045   .     S
H457   N470    1.036   .     S
H458   N470    1.046   .     S
N467   Zn479   2.012   .     S
N468   Zn480   2.012   .     S
N470   C977    1.430   .     S
O471   Zn479   2.000   .     S
O472   Zn480   2.001   .     S
O473   Zn479   1.969   .     S
O474   Zn480   1.949   .     S
O475   Zn479   2.001   .     S
O476   Zn480   2.000   .     S
O477   Zn479   1.949   .     S
O478   Zn480   1.969   .     S
C481   C489    1.420   .     S
C481   O531    1.284   .     A
C481   O532    1.284   .     A
C482   C502    1.418   .     A
C482   C484    1.473   .     S
C482   C499    1.394   .     A
C483   C489    1.397   .     A
C483   H514    1.084   .     S
C483   C125    1.370   1_565 S
C484   O533    1.308   .     A
C484   O534    1.285   .     A
C485   H519    1.084   .     S
C485   C486    1.397   .     A
C486   C487    1.397   .     A
C486   C495    1.420   .     S
C487   H520    1.084   .     S
C488   H521    1.084   .     S
C488   C489    1.397   .     A
C488   C127    1.370   1_565 S
C490   H522    1.082   .     S
C490   N528    1.366   .     A
C490   C371    1.417   1_655 S
C491   H523    1.082   .     S
C491   N527    1.367   .     A
C492   C502    1.407   .     A
C492   C1041   1.420   .     S
C492   C1043   1.422   .     S
C493   N527    1.365   .     A
C493   H524    1.082   .     S
C494   N529    1.429   .     S
C494   N528    1.370   .     A
C494   C373    1.422   1_655 S
C495   O536    1.284   .     A
C495   O535    1.285   .     A
C496   O538    1.291   .     A
C496   O537    1.289   .     A
C496   C498    1.445   .     S
C497   C508    1.388   .     A
C497   C1044   1.414   1_554 S
C497   N1070   1.430   1_554 S
C498   C508    1.393   .     A
C498   C507    1.393   .     A
C499   C500    1.392   .     A
C499   H510    1.080   .     S
C500   C1041   1.396   .     S
C500   H1052   1.083   .     S
C501   H511    1.077   .     S
C501   C1032   1.420   1_554 S
C501   C1040   1.396   1_554 S
C502   C506    1.411   .     A
C503   C507    1.389   .     A
C503   C1032   1.422   1_554 S
C503   C1044   1.425   1_554 S
C504   C505    1.393   .     A
C504   C1037   1.414   .     S
C504   C1043   1.425   .     S
C505   C506    1.380   .     A
C505   H525    1.082   .     S
C506   H513    1.081   .     S
C507   H526    1.076   .     S
C508   H509    1.084   .     S
H512   C1040   1.083   1_554 S
H515   N529    1.045   .     S
H516   N529    1.045   .     S
H517   N530    1.036   .     S
H518   N530    1.046   .     S
N527   Zn539   2.012   .     S
N528   Zn540   2.012   .     S
N530   C1037   1.430   .     S
O531   Zn539   2.000   .     S
O532   Zn540   2.001   .     S
O533   Zn539   1.969   .     S
O534   Zn540   1.949   .     S
O535   Zn539   2.001   .     S
O536   Zn540   2.000   .     S
O537   Zn539   1.949   .     S
O538   Zn540   1.969   .     S
C541   C549    1.420   .     S
C541   O591    1.284   .     A
C541   O592    1.284   .     A
C542   C562    1.418   .     A
C542   C544    1.473   .     S
C542   C559    1.394   .     A
C543   C549    1.397   .     A
C543   H574    1.084   .     S
C543   C725    1.370   .     S
C544   O593    1.308   .     A
C544   O594    1.285   .     A
C545   H579    1.084   .     S
C545   C546    1.397   .     A
C545   C903    1.370   1_545 S
C546   C547    1.397   .     A
C546   C555    1.420   .     S
C547   H580    1.084   .     S
C547   C908    1.370   1_545 S
C548   H581    1.084   .     S
C548   C549    1.397   .     A
C548   C727    1.370   .     S
C550   H582    1.082   .     S
C550   N588    1.366   .     A
C550   C611    1.417   .     S
C551   H583    1.082   .     S
C551   N587    1.367   .     A
C551   C670    1.417   1_455 S
C552   C562    1.407   .     A
C552   C21     1.420   1_556 S
C552   C23     1.422   1_556 S
C553   N587    1.365   .     A
C553   H584    1.082   .     S
C553   C674    1.422   1_455 S
C554   N589    1.429   .     S
C554   N588    1.370   .     A
C554   C613    1.422   .     S
C555   O596    1.284   .     A
C555   O595    1.285   .     A
C556   O598    1.291   .     A
C556   O597    1.289   .     A
C556   C558    1.445   .     S
C557   C568    1.388   .     A
C558   C568    1.393   .     A
C558   C567    1.393   .     A
C559   C560    1.392   .     A
C559   H570    1.080   .     S
C560   C21     1.396   1_556 S
C560   H32     1.083   1_556 S
C561   H571    1.077   .     S
C562   C566    1.411   .     A
C563   C567    1.389   .     A
C564   C565    1.393   .     A
C564   C17     1.414   1_556 S
C564   C23     1.425   1_556 S
C565   C566    1.380   .     A
C565   H585    1.082   .     S
C566   H573    1.081   .     S
C567   H586    1.076   .     S
C568   H569    1.084   .     S
H575   N589    1.045   .     S
H576   N589    1.045   .     S
H577   N590    1.036   .     S
H578   N590    1.046   .     S
N587   Zn599   2.012   .     S
N588   Zn600   2.012   .     S
N590   C17     1.430   1_556 S
O591   Zn599   2.000   .     S
O592   Zn600   2.001   .     S
O593   Zn599   1.969   .     S
O594   Zn600   1.949   .     S
O595   Zn599   2.001   .     S
O596   Zn600   2.000   .     S
O597   Zn599   1.949   .     S
O598   Zn600   1.969   .     S
C601   C609    1.420   .     S
C601   O651    1.284   .     A
C601   O652    1.284   .     A
C602   C622    1.418   .     A
C602   C604    1.473   .     S
C602   C619    1.394   .     A
C603   C609    1.397   .     A
C603   H634    1.084   .     S
C603   C785    1.370   .     S
C604   O653    1.308   .     A
C604   O654    1.285   .     A
C605   H639    1.084   .     S
C605   C606    1.397   .     A
C605   C963    1.370   1_545 S
C606   C607    1.397   .     A
C606   C615    1.420   .     S
C607   H640    1.084   .     S
C607   C968    1.370   1_545 S
C608   H641    1.084   .     S
C608   C609    1.397   .     A
C608   C787    1.370   .     S
C610   H642    1.082   .     S
C610   N648    1.366   .     A
C610   C671    1.417   .     S
C611   H643    1.082   .     S
C611   N647    1.367   .     A
C612   C622    1.407   .     A
C612   C81     1.420   1_556 S
C612   C83     1.422   1_556 S
C613   N647    1.365   .     A
C613   H644    1.082   .     S
C614   N649    1.429   .     S
C614   N648    1.370   .     A
C614   C673    1.422   .     S
C615   O656    1.284   .     A
C615   O655    1.285   .     A
C616   O658    1.291   .     A
C616   O657    1.289   .     A
C616   C618    1.445   .     S
C617   C628    1.388   .     A
C618   C628    1.393   .     A
C618   C627    1.393   .     A
C619   C620    1.392   .     A
C619   H630    1.080   .     S
C620   C81     1.396   1_556 S
C620   H92     1.083   1_556 S
C621   H631    1.077   .     S
C622   C626    1.411   .     A
C623   C627    1.389   .     A
C624   C625    1.393   .     A
C624   C77     1.414   1_556 S
C624   C83     1.425   1_556 S
C625   C626    1.380   .     A
C625   H645    1.082   .     S
C626   H633    1.081   .     S
C627   H646    1.076   .     S
C628   H629    1.084   .     S
H635   N649    1.045   .     S
H636   N649    1.045   .     S
H637   N650    1.036   .     S
H638   N650    1.046   .     S
N647   Zn659   2.012   .     S
N648   Zn660   2.012   .     S
N650   C77     1.430   1_556 S
O651   Zn659   2.000   .     S
O652   Zn660   2.001   .     S
O653   Zn659   1.969   .     S
O654   Zn660   1.949   .     S
O655   Zn659   2.001   .     S
O656   Zn660   2.000   .     S
O657   Zn659   1.949   .     S
O658   Zn660   1.969   .     S
C661   C669    1.420   .     S
C661   O711    1.284   .     A
C661   O712    1.284   .     A
C662   C682    1.418   .     A
C662   C664    1.473   .     S
C662   C679    1.394   .     A
C663   C669    1.397   .     A
C663   H694    1.084   .     S
C663   C845    1.370   .     S
C664   O713    1.308   .     A
C664   O714    1.285   .     A
C665   H699    1.084   .     S
C665   C666    1.397   .     A
C665   C1023   1.370   1_545 S
C666   C667    1.397   .     A
C666   C675    1.420   .     S
C667   H700    1.084   .     S
C667   C1028   1.370   1_545 S
C668   H701    1.084   .     S
C668   C669    1.397   .     A
C668   C847    1.370   .     S
C670   H702    1.082   .     S
C670   N708    1.366   .     A
C670   C551    1.417   1_655 S
C671   H703    1.082   .     S
C671   N707    1.367   .     A
C672   C682    1.407   .     A
C672   C141    1.420   1_556 S
C672   C143    1.422   1_556 S
C673   N707    1.365   .     A
C673   H704    1.082   .     S
C674   N709    1.429   .     S
C674   N708    1.370   .     A
C674   C553    1.422   1_655 S
C675   O716    1.284   .     A
C675   O715    1.285   .     A
C676   O718    1.291   .     A
C676   O717    1.289   .     A
C676   C678    1.445   .     S
C677   C688    1.388   .     A
C678   C688    1.393   .     A
C678   C687    1.393   .     A
C679   C680    1.392   .     A
C679   H690    1.080   .     S
C680   C141    1.396   1_556 S
C680   H152    1.083   1_556 S
C681   H691    1.077   .     S
C682   C686    1.411   .     A
C683   C687    1.389   .     A
C684   C685    1.393   .     A
C684   C137    1.414   1_556 S
C684   C143    1.425   1_556 S
C685   C686    1.380   .     A
C685   H705    1.082   .     S
C686   H693    1.081   .     S
C687   H706    1.076   .     S
C688   H689    1.084   .     S
H695   N709    1.045   .     S
H696   N709    1.045   .     S
H697   N710    1.036   .     S
H698   N710    1.046   .     S
N707   Zn719   2.012   .     S
N708   Zn720   2.012   .     S
N710   C137    1.430   1_556 S
O711   Zn719   2.000   .     S
O712   Zn720   2.001   .     S
O713   Zn719   1.969   .     S
O714   Zn720   1.949   .     S
O715   Zn719   2.001   .     S
O716   Zn720   2.000   .     S
O717   Zn719   1.949   .     S
O718   Zn720   1.969   .     S
C721   C729    1.420   .     S
C721   O771    1.284   .     A
C721   O772    1.284   .     A
C722   C742    1.418   .     A
C722   C724    1.473   .     S
C722   C739    1.394   .     A
C723   C729    1.397   .     A
C723   H754    1.084   .     S
C723   C905    1.370   .     S
C724   O773    1.308   .     A
C724   O774    1.285   .     A
C725   H759    1.084   .     S
C725   C726    1.397   .     A
C726   C727    1.397   .     A
C726   C735    1.420   .     S
C727   H760    1.084   .     S
C728   H761    1.084   .     S
C728   C729    1.397   .     A
C728   C907    1.370   .     S
C730   H762    1.082   .     S
C730   N768    1.366   .     A
C730   C791    1.417   .     S
C731   H763    1.082   .     S
C731   N767    1.367   .     A
C731   C850    1.417   1_455 S
C732   C742    1.407   .     A
C732   C201    1.420   1_556 S
C732   C203    1.422   1_556 S
C733   N767    1.365   .     A
C733   H764    1.082   .     S
C733   C854    1.422   1_455 S
C734   N769    1.429   .     S
C734   N768    1.370   .     A
C734   C793    1.422   .     S
C735   O776    1.284   .     A
C735   O775    1.285   .     A
C736   O778    1.291   .     A
C736   O777    1.289   .     A
C736   C738    1.445   .     S
C737   C748    1.388   .     A
C738   C748    1.393   .     A
C738   C747    1.393   .     A
C739   C740    1.392   .     A
C739   H750    1.080   .     S
C740   C201    1.396   1_556 S
C740   H212    1.083   1_556 S
C741   H751    1.077   .     S
C742   C746    1.411   .     A
C743   C747    1.389   .     A
C744   C745    1.393   .     A
C744   C197    1.414   1_556 S
C744   C203    1.425   1_556 S
C745   C746    1.380   .     A
C745   H765    1.082   .     S
C746   H753    1.081   .     S
C747   H766    1.076   .     S
C748   H749    1.084   .     S
H755   N769    1.045   .     S
H756   N769    1.045   .     S
H757   N770    1.036   .     S
H758   N770    1.046   .     S
N767   Zn779   2.012   .     S
N768   Zn780   2.012   .     S
N770   C197    1.430   1_556 S
O771   Zn779   2.000   .     S
O772   Zn780   2.001   .     S
O773   Zn779   1.969   .     S
O774   Zn780   1.949   .     S
O775   Zn779   2.001   .     S
O776   Zn780   2.000   .     S
O777   Zn779   1.949   .     S
O778   Zn780   1.969   .     S
C781   C789    1.420   .     S
C781   O831    1.284   .     A
C781   O832    1.284   .     A
C782   C802    1.418   .     A
C782   C784    1.473   .     S
C782   C799    1.394   .     A
C783   C789    1.397   .     A
C783   H814    1.084   .     S
C783   C965    1.370   .     S
C784   O833    1.308   .     A
C784   O834    1.285   .     A
C785   H819    1.084   .     S
C785   C786    1.397   .     A
C786   C787    1.397   .     A
C786   C795    1.420   .     S
C787   H820    1.084   .     S
C788   H821    1.084   .     S
C788   C789    1.397   .     A
C788   C967    1.370   .     S
C790   H822    1.082   .     S
C790   N828    1.366   .     A
C790   C851    1.417   .     S
C791   H823    1.082   .     S
C791   N827    1.367   .     A
C792   C802    1.407   .     A
C792   C261    1.420   1_556 S
C792   C263    1.422   1_556 S
C793   N827    1.365   .     A
C793   H824    1.082   .     S
C794   N829    1.429   .     S
C794   N828    1.370   .     A
C794   C853    1.422   .     S
C795   O836    1.284   .     A
C795   O835    1.285   .     A
C796   O838    1.291   .     A
C796   O837    1.289   .     A
C796   C798    1.445   .     S
C797   C808    1.388   .     A
C798   C808    1.393   .     A
C798   C807    1.393   .     A
C799   C800    1.392   .     A
C799   H810    1.080   .     S
C800   C261    1.396   1_556 S
C800   H272    1.083   1_556 S
C801   H811    1.077   .     S
C802   C806    1.411   .     A
C803   C807    1.389   .     A
C804   C805    1.393   .     A
C804   C257    1.414   1_556 S
C804   C263    1.425   1_556 S
C805   C806    1.380   .     A
C805   H825    1.082   .     S
C806   H813    1.081   .     S
C807   H826    1.076   .     S
C808   H809    1.084   .     S
H815   N829    1.045   .     S
H816   N829    1.045   .     S
H817   N830    1.036   .     S
H818   N830    1.046   .     S
N827   Zn839   2.012   .     S
N828   Zn840   2.012   .     S
N830   C257    1.430   1_556 S
O831   Zn839   2.000   .     S
O832   Zn840   2.001   .     S
O833   Zn839   1.969   .     S
O834   Zn840   1.949   .     S
O835   Zn839   2.001   .     S
O836   Zn840   2.000   .     S
O837   Zn839   1.949   .     S
O838   Zn840   1.969   .     S
C841   C849    1.420   .     S
C841   O891    1.284   .     A
C841   O892    1.284   .     A
C842   C862    1.418   .     A
C842   C844    1.473   .     S
C842   C859    1.394   .     A
C843   C849    1.397   .     A
C843   H874    1.084   .     S
C843   C1025   1.370   .     S
C844   O893    1.308   .     A
C844   O894    1.285   .     A
C845   H879    1.084   .     S
C845   C846    1.397   .     A
C846   C847    1.397   .     A
C846   C855    1.420   .     S
C847   H880    1.084   .     S
C848   H881    1.084   .     S
C848   C849    1.397   .     A
C848   C1027   1.370   .     S
C850   H882    1.082   .     S
C850   N888    1.366   .     A
C850   C731    1.417   1_655 S
C851   H883    1.082   .     S
C851   N887    1.367   .     A
C852   C862    1.407   .     A
C852   C321    1.420   1_556 S
C852   C323    1.422   1_556 S
C853   N887    1.365   .     A
C853   H884    1.082   .     S
C854   N889    1.429   .     S
C854   N888    1.370   .     A
C854   C733    1.422   1_655 S
C855   O896    1.284   .     A
C855   O895    1.285   .     A
C856   O898    1.291   .     A
C856   O897    1.289   .     A
C856   C858    1.445   .     S
C857   C868    1.388   .     A
C858   C868    1.393   .     A
C858   C867    1.393   .     A
C859   C860    1.392   .     A
C859   H870    1.080   .     S
C860   C321    1.396   1_556 S
C860   H332    1.083   1_556 S
C861   H871    1.077   .     S
C862   C866    1.411   .     A
C863   C867    1.389   .     A
C864   C865    1.393   .     A
C864   C317    1.414   1_556 S
C864   C323    1.425   1_556 S
C865   C866    1.380   .     A
C865   H885    1.082   .     S
C866   H873    1.081   .     S
C867   H886    1.076   .     S
C868   H869    1.084   .     S
H875   N889    1.045   .     S
H876   N889    1.045   .     S
H877   N890    1.036   .     S
H878   N890    1.046   .     S
N887   Zn899   2.012   .     S
N888   Zn900   2.012   .     S
N890   C317    1.430   1_556 S
O891   Zn899   2.000   .     S
O892   Zn900   2.001   .     S
O893   Zn899   1.969   .     S
O894   Zn900   1.949   .     S
O895   Zn899   2.001   .     S
O896   Zn900   2.000   .     S
O897   Zn899   1.949   .     S
O898   Zn900   1.969   .     S
C901   C909    1.420   .     S
C901   O951    1.284   .     A
C901   O952    1.284   .     A
C902   C922    1.418   .     A
C902   C904    1.473   .     S
C902   C919    1.394   .     A
C903   C909    1.397   .     A
C903   H934    1.084   .     S
C903   C545    1.370   1_565 S
C904   O953    1.308   .     A
C904   O954    1.285   .     A
C905   H939    1.084   .     S
C905   C906    1.397   .     A
C906   C907    1.397   .     A
C906   C915    1.420   .     S
C907   H940    1.084   .     S
C908   H941    1.084   .     S
C908   C909    1.397   .     A
C908   C547    1.370   1_565 S
C910   H942    1.082   .     S
C910   N948    1.366   .     A
C910   C971    1.417   .     S
C911   H943    1.082   .     S
C911   N947    1.367   .     A
C911   C1030   1.417   1_455 S
C912   C922    1.407   .     A
C912   C381    1.420   1_556 S
C912   C383    1.422   1_556 S
C913   N947    1.365   .     A
C913   H944    1.082   .     S
C913   C1034   1.422   1_455 S
C914   N949    1.429   .     S
C914   N948    1.370   .     A
C914   C973    1.422   .     S
C915   O956    1.284   .     A
C915   O955    1.285   .     A
C916   O958    1.291   .     A
C916   O957    1.289   .     A
C916   C918    1.445   .     S
C917   C928    1.388   .     A
C918   C928    1.393   .     A
C918   C927    1.393   .     A
C919   C920    1.392   .     A
C919   H930    1.080   .     S
C920   C381    1.396   1_556 S
C920   H392    1.083   1_556 S
C921   H931    1.077   .     S
C922   C926    1.411   .     A
C923   C927    1.389   .     A
C924   C925    1.393   .     A
C924   C377    1.414   1_556 S
C924   C383    1.425   1_556 S
C925   C926    1.380   .     A
C925   H945    1.082   .     S
C926   H933    1.081   .     S
C927   H946    1.076   .     S
C928   H929    1.084   .     S
H935   N949    1.045   .     S
H936   N949    1.045   .     S
H937   N950    1.036   .     S
H938   N950    1.046   .     S
N947   Zn959   2.012   .     S
N948   Zn960   2.012   .     S
N950   C377    1.430   1_556 S
O951   Zn959   2.000   .     S
O952   Zn960   2.001   .     S
O953   Zn959   1.969   .     S
O954   Zn960   1.949   .     S
O955   Zn959   2.001   .     S
O956   Zn960   2.000   .     S
O957   Zn959   1.949   .     S
O958   Zn960   1.969   .     S
C961   C969    1.420   .     S
C961   O1011   1.284   .     A
C961   O1012   1.284   .     A
C962   C982    1.418   .     A
C962   C964    1.473   .     S
C962   C979    1.394   .     A
C963   C969    1.397   .     A
C963   H994    1.084   .     S
C963   C605    1.370   1_565 S
C964   O1013   1.308   .     A
C964   O1014   1.285   .     A
C965   H999    1.084   .     S
C965   C966    1.397   .     A
C966   C967    1.397   .     A
C966   C975    1.420   .     S
C967   H1000   1.084   .     S
C968   H1001   1.084   .     S
C968   C969    1.397   .     A
C968   C607    1.370   1_565 S
C970   H1002   1.082   .     S
C970   N1008   1.366   .     A
C970   C1031   1.417   .     S
C971   H1003   1.082   .     S
C971   N1007   1.367   .     A
C972   C982    1.407   .     A
C972   C441    1.420   1_556 S
C972   C443    1.422   1_556 S
C973   N1007   1.365   .     A
C973   H1004   1.082   .     S
C974   N1009   1.429   .     S
C974   N1008   1.370   .     A
C974   C1033   1.422   .     S
C975   O1016   1.284   .     A
C975   O1015   1.285   .     A
C976   O1018   1.291   .     A
C976   O1017   1.289   .     A
C976   C978    1.445   .     S
C977   C988    1.388   .     A
C978   C988    1.393   .     A
C978   C987    1.393   .     A
C979   C980    1.392   .     A
C979   H990    1.080   .     S
C980   C441    1.396   1_556 S
C980   H452    1.083   1_556 S
C981   H991    1.077   .     S
C982   C986    1.411   .     A
C983   C987    1.389   .     A
C984   C985    1.393   .     A
C984   C437    1.414   1_556 S
C984   C443    1.425   1_556 S
C985   C986    1.380   .     A
C985   H1005   1.082   .     S
C986   H993    1.081   .     S
C987   H1006   1.076   .     S
C988   H989    1.084   .     S
H995   N1009   1.045   .     S
H996   N1009   1.045   .     S
H997   N1010   1.036   .     S
H998   N1010   1.046   .     S
N1007  Zn1019  2.012   .     S
N1008  Zn1020  2.012   .     S
N1010  C437    1.430   1_556 S
O1011  Zn1019  2.000   .     S
O1012  Zn1020  2.001   .     S
O1013  Zn1019  1.969   .     S
O1014  Zn1020  1.949   .     S
O1015  Zn1019  2.001   .     S
O1016  Zn1020  2.000   .     S
O1017  Zn1019  1.949   .     S
O1018  Zn1020  1.969   .     S
C1021  C1029   1.420   .     S
C1021  O1071   1.284   .     A
C1021  O1072   1.284   .     A
C1022  C1042   1.418   .     A
C1022  C1024   1.473   .     S
C1022  C1039   1.394   .     A
C1023  C1029   1.397   .     A
C1023  H1054   1.084   .     S
C1023  C665    1.370   1_565 S
C1024  O1073   1.308   .     A
C1024  O1074   1.285   .     A
C1025  H1059   1.084   .     S
C1025  C1026   1.397   .     A
C1026  C1027   1.397   .     A
C1026  C1035   1.420   .     S
C1027  H1060   1.084   .     S
C1028  H1061   1.084   .     S
C1028  C1029   1.397   .     A
C1028  C667    1.370   1_565 S
C1030  H1062   1.082   .     S
C1030  N1068   1.366   .     A
C1030  C911    1.417   1_655 S
C1031  H1063   1.082   .     S
C1031  N1067   1.367   .     A
C1032  C1042   1.407   .     A
C1032  C501    1.420   1_556 S
C1032  C503    1.422   1_556 S
C1033  N1067   1.365   .     A
C1033  H1064   1.082   .     S
C1034  N1069   1.429   .     S
C1034  N1068   1.370   .     A
C1034  C913    1.422   1_655 S
C1035  O1076   1.284   .     A
C1035  O1075   1.285   .     A
C1036  O1078   1.291   .     A
C1036  O1077   1.289   .     A
C1036  C1038   1.445   .     S
C1037  C1048   1.388   .     A
C1038  C1048   1.393   .     A
C1038  C1047   1.393   .     A
C1039  C1040   1.392   .     A
C1039  H1050   1.080   .     S
C1040  C501    1.396   1_556 S
C1040  H512    1.083   1_556 S
C1041  H1051   1.077   .     S
C1042  C1046   1.411   .     A
C1043  C1047   1.389   .     A
C1044  C1045   1.393   .     A
C1044  C497    1.414   1_556 S
C1044  C503    1.425   1_556 S
C1045  C1046   1.380   .     A
C1045  H1065   1.082   .     S
C1046  H1053   1.081   .     S
C1047  H1066   1.076   .     S
C1048  H1049   1.084   .     S
H1055  N1069   1.045   .     S
H1056  N1069   1.045   .     S
H1057  N1070   1.036   .     S
H1058  N1070   1.046   .     S
N1067  Zn1079  2.012   .     S
N1068  Zn1080  2.012   .     S
N1070  C497    1.430   1_556 S
O1071  Zn1079  2.000   .     S
O1072  Zn1080  2.001   .     S
O1073  Zn1079  1.969   .     S
O1074  Zn1080  1.949   .     S
O1075  Zn1079  2.001   .     S
O1076  Zn1080  2.000   .     S
O1077  Zn1079  1.949   .     S
O1078  Zn1080  1.969   .     S
