data_str_m1_o10_o18_pcu_sym.202
_audit_creation_date              2020-01-03
_audit_creation_method            'Materials Studio'
_symmetry_space_group_name_H-M    'P1'
_symmetry_Int_Tables_number       1
_symmetry_cell_setting            triclinic
loop_
_symmetry_equiv_pos_as_xyz
  x,y,z
_cell_length_a                    32.5811
_cell_length_b                    32.5331
_cell_length_c                    35.7378
_cell_angle_alpha                 98.2063
_cell_angle_beta                  72.9396
_cell_angle_gamma                 98.7630
loop_
_atom_site_label
_atom_site_type_symbol
_atom_site_fract_x
_atom_site_fract_y
_atom_site_fract_z
_atom_site_U_iso_or_equiv
_atom_site_adp_type
_atom_site_occupancy
C1     C     0.05239   0.15951   0.25918   0.00000  Uiso   1.00
C2     C     0.19563   0.12715   0.46032   0.00000  Uiso   1.00
C3     C     0.21792   0.10941   0.48027   0.00000  Uiso   1.00
C4     C     0.28120   0.17378   0.24115   0.00000  Uiso   1.00
C5     C     0.20932   0.11737   0.02090   0.00000  Uiso   1.00
C6     C     0.17559   0.14161   0.04256   0.00000  Uiso   1.00
C7     C     0.23478   0.10184   0.04002   0.00000  Uiso   1.00
C8     C     0.22806   0.11106   0.08042   0.00000  Uiso   1.00
C9     C     0.17130   0.15246   0.08301   0.00000  Uiso   1.00
C10    C     0.32754   0.17761   0.23781   0.00000  Uiso   1.00
C11    C     0.00721   0.15751   0.26175   0.00000  Uiso   1.00
C12    C     0.09691   0.21274   0.42120   0.00000  Uiso   1.00
C13    C     0.18103   0.32220   0.23809   0.00000  Uiso   1.00
C14    C     0.15154   0.01202   0.26193   0.00000  Uiso   1.00
C15    C     0.15596   0.05610   0.25881   0.00000  Uiso   1.00
C16    C     0.17690   0.27769   0.24132   0.00000  Uiso   1.00
C17    C     0.18815   0.14530   0.14406   0.00000  Uiso   1.00
C18    C     0.14532   0.18759   0.35618   0.00000  Uiso   1.00
C19    C     0.13289   0.19261   0.39949   0.00000  Uiso   1.00
C20    C     0.19654   0.13658   0.10171   0.00000  Uiso   1.00
C21    C     0.08298   0.21316   0.46199   0.00000  Uiso   1.00
C22    C     0.06514   0.12836   0.08501   0.00000  Uiso   1.00
C23    C     0.15542   0.17401   0.41914   0.00000  Uiso   1.00
C24    C     0.04149   0.12391   0.12803   0.00000  Uiso   1.00
C25    C     0.14106   0.17263   0.46023   0.00000  Uiso   1.00
C26    C     0.10449   0.19301   0.48159   0.00000  Uiso   1.00
C27    C     0.16232   0.15213   0.48060   0.00000  Uiso   1.00
C28    C     0.14914   0.15585   0.02259   0.00000  Uiso   1.00
C29    C     0.10945   0.17254   0.04257   0.00000  Uiso   1.00
C30    C     0.08878   0.19202   0.02213   0.00000  Uiso   1.00
H31    H     0.05939   0.20561   0.03823   0.00000  Uiso   1.00
H32    H     0.07895   0.22732   0.40662   0.00000  Uiso   1.00
H33    H     0.18430   0.16103   0.40154   0.00000  Uiso   1.00
H34    H     0.20457   0.11956   0.42888   0.00000  Uiso   1.00
H35    H     0.01063   0.21296   0.19098   0.00000  Uiso   1.00
H36    H     0.03734   0.22885   0.22496   0.00000  Uiso   1.00
H37    H     0.08711   0.10349   0.07422   0.00000  Uiso   1.00
H38    H     0.04069   0.12369   0.06810   0.00000  Uiso   1.00
H39    H     0.01792   0.14717   0.13923   0.00000  Uiso   1.00
H40    H     0.02376   0.09204   0.13107   0.00000  Uiso   1.00
H41    H     0.06495   0.12899   0.14585   0.00000  Uiso   1.00
H42    H     0.26008   0.08280   0.02366   0.00000  Uiso   1.00
H43    H     0.31791   0.13844   0.28317   0.00000  Uiso   1.00
H44    H     0.20833   0.00291   0.21616   0.00000  Uiso   1.00
H45    H     0.12381   0.33204   0.28387   0.00000  Uiso   1.00
H46    H     0.15002   0.17460   0.10053   0.00000  Uiso   1.00
H47    H     0.24756   0.09859   0.09502   0.00000  Uiso   1.00
H48    H     0.24314   0.09040   0.46354   0.00000  Uiso   1.00
H49    H     0.05480   0.22856   0.47820   0.00000  Uiso   1.00
N50    N     0.02538   0.20228   0.20945   0.00000  Uiso   1.00
O51    O     0.16667   0.16667   0.25000   0.00000  Uiso   1.00
O52    O     0.15693   0.12393   0.16625   0.00000  Uiso   1.00
O53    O     0.12687   0.20646   0.33749   0.00000  Uiso   1.00
O54    O     0.21088   0.17493   0.15877   0.00000  Uiso   1.00
O55    O     0.17198   0.16135   0.33749   0.00000  Uiso   1.00
O56    O     0.08865   0.16854   0.08180   0.00000  Uiso   1.00
O57    O     0.17849   0.08101   0.27820   0.00000  Uiso   1.00
O58    O     0.14581   0.26136   0.26767   0.00000  Uiso   1.00
O59    O     0.07452   0.13251   0.23607   0.00000  Uiso   1.00
O60    O     0.26785   0.19179   0.21805   0.00000  Uiso   1.00
O61    O     0.06990   0.18960   0.27820   0.00000  Uiso   1.00
O62    O     0.25440   0.15277   0.26767   0.00000  Uiso   1.00
O63    O     0.13800   0.06903   0.23607   0.00000  Uiso   1.00
O64    O     0.20437   0.25527   0.21805   0.00000  Uiso   1.00
Zn65   Zn    0.19244   0.14090   0.28277   0.00000  Uiso   1.00
Zn66   Zn    0.13459   0.12378   0.22257   0.00000  Uiso   1.00
Zn67   Zn    0.21166   0.19664   0.21188   0.00000  Uiso   1.00
Zn68   Zn    0.12798   0.20535   0.28277   0.00000  Uiso   1.00
C69    C     0.38572   0.15951   0.25918   0.00000  Uiso   1.00
C70    C     0.52896   0.12715   0.46032   0.00000  Uiso   1.00
C71    C     0.55126   0.10941   0.48027   0.00000  Uiso   1.00
C72    C     0.61453   0.17378   0.24115   0.00000  Uiso   1.00
C73    C     0.54265   0.11737   0.02090   0.00000  Uiso   1.00
C74    C     0.50892   0.14161   0.04256   0.00000  Uiso   1.00
C75    C     0.56812   0.10184   0.04002   0.00000  Uiso   1.00
C76    C     0.56139   0.11106   0.08042   0.00000  Uiso   1.00
C77    C     0.50464   0.15246   0.08301   0.00000  Uiso   1.00
C78    C     0.66088   0.17761   0.23781   0.00000  Uiso   1.00
C79    C     0.34054   0.15751   0.26175   0.00000  Uiso   1.00
C80    C     0.43024   0.21274   0.42120   0.00000  Uiso   1.00
C81    C     0.51437   0.32220   0.23809   0.00000  Uiso   1.00
C82    C     0.48487   0.01202   0.26193   0.00000  Uiso   1.00
C83    C     0.48930   0.05610   0.25881   0.00000  Uiso   1.00
C84    C     0.51023   0.27769   0.24132   0.00000  Uiso   1.00
C85    C     0.52149   0.14530   0.14406   0.00000  Uiso   1.00
C86    C     0.47865   0.18759   0.35618   0.00000  Uiso   1.00
C87    C     0.46622   0.19261   0.39949   0.00000  Uiso   1.00
C88    C     0.52988   0.13658   0.10171   0.00000  Uiso   1.00
C89    C     0.41632   0.21316   0.46199   0.00000  Uiso   1.00
C90    C     0.39848   0.12836   0.08501   0.00000  Uiso   1.00
C91    C     0.48875   0.17401   0.41914   0.00000  Uiso   1.00
C92    C     0.37482   0.12391   0.12803   0.00000  Uiso   1.00
C93    C     0.47440   0.17263   0.46023   0.00000  Uiso   1.00
C94    C     0.43782   0.19301   0.48159   0.00000  Uiso   1.00
C95    C     0.49565   0.15213   0.48060   0.00000  Uiso   1.00
C96    C     0.48248   0.15585   0.02259   0.00000  Uiso   1.00
C97    C     0.44279   0.17254   0.04257   0.00000  Uiso   1.00
C98    C     0.42211   0.19202   0.02213   0.00000  Uiso   1.00
H99    H     0.39272   0.20561   0.03823   0.00000  Uiso   1.00
H100   H     0.41229   0.22732   0.40662   0.00000  Uiso   1.00
H101   H     0.51764   0.16103   0.40154   0.00000  Uiso   1.00
H102   H     0.53790   0.11956   0.42888   0.00000  Uiso   1.00
H103   H     0.34396   0.21296   0.19098   0.00000  Uiso   1.00
H104   H     0.37068   0.22885   0.22496   0.00000  Uiso   1.00
H105   H     0.42044   0.10349   0.07422   0.00000  Uiso   1.00
H106   H     0.37402   0.12369   0.06810   0.00000  Uiso   1.00
H107   H     0.35126   0.14717   0.13923   0.00000  Uiso   1.00
H108   H     0.35709   0.09204   0.13107   0.00000  Uiso   1.00
H109   H     0.39828   0.12899   0.14585   0.00000  Uiso   1.00
H110   H     0.59342   0.08280   0.02366   0.00000  Uiso   1.00
H111   H     0.65125   0.13844   0.28317   0.00000  Uiso   1.00
H112   H     0.54166   0.00291   0.21616   0.00000  Uiso   1.00
H113   H     0.45715   0.33204   0.28387   0.00000  Uiso   1.00
H114   H     0.48335   0.17460   0.10053   0.00000  Uiso   1.00
H115   H     0.58089   0.09859   0.09502   0.00000  Uiso   1.00
H116   H     0.57647   0.09040   0.46354   0.00000  Uiso   1.00
H117   H     0.38813   0.22856   0.47820   0.00000  Uiso   1.00
N118   N     0.35872   0.20228   0.20945   0.00000  Uiso   1.00
O119   O     0.50000   0.16667   0.25000   0.00000  Uiso   1.00
O120   O     0.49027   0.12393   0.16625   0.00000  Uiso   1.00
O121   O     0.46020   0.20646   0.33749   0.00000  Uiso   1.00
O122   O     0.54421   0.17493   0.15877   0.00000  Uiso   1.00
O123   O     0.50532   0.16135   0.33749   0.00000  Uiso   1.00
O124   O     0.42199   0.16854   0.08180   0.00000  Uiso   1.00
O125   O     0.51182   0.08101   0.27820   0.00000  Uiso   1.00
O126   O     0.47914   0.26136   0.26767   0.00000  Uiso   1.00
O127   O     0.40785   0.13251   0.23607   0.00000  Uiso   1.00
O128   O     0.60119   0.19179   0.21805   0.00000  Uiso   1.00
O129   O     0.40323   0.18960   0.27820   0.00000  Uiso   1.00
O130   O     0.58773   0.15277   0.26767   0.00000  Uiso   1.00
O131   O     0.47133   0.06903   0.23607   0.00000  Uiso   1.00
O132   O     0.53771   0.25527   0.21805   0.00000  Uiso   1.00
Zn133  Zn    0.52577   0.14090   0.28277   0.00000  Uiso   1.00
Zn134  Zn    0.46792   0.12378   0.22257   0.00000  Uiso   1.00
Zn135  Zn    0.54500   0.19664   0.21188   0.00000  Uiso   1.00
Zn136  Zn    0.46131   0.20535   0.28277   0.00000  Uiso   1.00
C137   C     0.71906   0.15951   0.25918   0.00000  Uiso   1.00
C138   C     0.86230   0.12715   0.46032   0.00000  Uiso   1.00
C139   C     0.88459   0.10941   0.48027   0.00000  Uiso   1.00
C140   C     0.94786   0.17378   0.24115   0.00000  Uiso   1.00
C141   C     0.87599   0.11737   0.02090   0.00000  Uiso   1.00
C142   C     0.84226   0.14161   0.04256   0.00000  Uiso   1.00
C143   C     0.90145   0.10184   0.04002   0.00000  Uiso   1.00
C144   C     0.89472   0.11106   0.08042   0.00000  Uiso   1.00
C145   C     0.83797   0.15246   0.08301   0.00000  Uiso   1.00
C146   C     0.99421   0.17761   0.23781   0.00000  Uiso   1.00
C147   C     0.67388   0.15751   0.26175   0.00000  Uiso   1.00
C148   C     0.76358   0.21274   0.42120   0.00000  Uiso   1.00
C149   C     0.84770   0.32220   0.23809   0.00000  Uiso   1.00
C150   C     0.81820   0.01202   0.26193   0.00000  Uiso   1.00
C151   C     0.82263   0.05610   0.25881   0.00000  Uiso   1.00
C152   C     0.84356   0.27769   0.24132   0.00000  Uiso   1.00
C153   C     0.85482   0.14530   0.14406   0.00000  Uiso   1.00
C154   C     0.81198   0.18759   0.35618   0.00000  Uiso   1.00
C155   C     0.79956   0.19261   0.39949   0.00000  Uiso   1.00
C156   C     0.86321   0.13658   0.10171   0.00000  Uiso   1.00
C157   C     0.74965   0.21316   0.46199   0.00000  Uiso   1.00
C158   C     0.73181   0.12836   0.08501   0.00000  Uiso   1.00
C159   C     0.82209   0.17401   0.41914   0.00000  Uiso   1.00
C160   C     0.70815   0.12391   0.12803   0.00000  Uiso   1.00
C161   C     0.80773   0.17263   0.46023   0.00000  Uiso   1.00
C162   C     0.77115   0.19301   0.48159   0.00000  Uiso   1.00
C163   C     0.82899   0.15213   0.48060   0.00000  Uiso   1.00
C164   C     0.81581   0.15585   0.02259   0.00000  Uiso   1.00
C165   C     0.77612   0.17254   0.04257   0.00000  Uiso   1.00
C166   C     0.75545   0.19202   0.02213   0.00000  Uiso   1.00
H167   H     0.72606   0.20561   0.03823   0.00000  Uiso   1.00
H168   H     0.74562   0.22732   0.40662   0.00000  Uiso   1.00
H169   H     0.85097   0.16103   0.40154   0.00000  Uiso   1.00
H170   H     0.87123   0.11956   0.42888   0.00000  Uiso   1.00
H171   H     0.67729   0.21296   0.19098   0.00000  Uiso   1.00
H172   H     0.70401   0.22885   0.22496   0.00000  Uiso   1.00
H173   H     0.75378   0.10349   0.07422   0.00000  Uiso   1.00
H174   H     0.70735   0.12369   0.06810   0.00000  Uiso   1.00
H175   H     0.68459   0.14717   0.13923   0.00000  Uiso   1.00
H176   H     0.69042   0.09204   0.13107   0.00000  Uiso   1.00
H177   H     0.73162   0.12899   0.14585   0.00000  Uiso   1.00
H178   H     0.92675   0.08280   0.02366   0.00000  Uiso   1.00
H179   H     0.98458   0.13844   0.28317   0.00000  Uiso   1.00
H180   H     0.87500   0.00291   0.21616   0.00000  Uiso   1.00
H181   H     0.79048   0.33204   0.28387   0.00000  Uiso   1.00
H182   H     0.81668   0.17460   0.10053   0.00000  Uiso   1.00
H183   H     0.91422   0.09859   0.09502   0.00000  Uiso   1.00
H184   H     0.90980   0.09040   0.46354   0.00000  Uiso   1.00
H185   H     0.72147   0.22856   0.47820   0.00000  Uiso   1.00
N186   N     0.69205   0.20228   0.20945   0.00000  Uiso   1.00
O187   O     0.83333   0.16667   0.25000   0.00000  Uiso   1.00
O188   O     0.82360   0.12393   0.16625   0.00000  Uiso   1.00
O189   O     0.79354   0.20646   0.33749   0.00000  Uiso   1.00
O190   O     0.87755   0.17493   0.15877   0.00000  Uiso   1.00
O191   O     0.83865   0.16135   0.33749   0.00000  Uiso   1.00
O192   O     0.75532   0.16854   0.08180   0.00000  Uiso   1.00
O193   O     0.84515   0.08101   0.27820   0.00000  Uiso   1.00
O194   O     0.81247   0.26136   0.26767   0.00000  Uiso   1.00
O195   O     0.74119   0.13251   0.23607   0.00000  Uiso   1.00
O196   O     0.93452   0.19179   0.21805   0.00000  Uiso   1.00
O197   O     0.73656   0.18960   0.27820   0.00000  Uiso   1.00
O198   O     0.92106   0.15277   0.26767   0.00000  Uiso   1.00
O199   O     0.80467   0.06903   0.23607   0.00000  Uiso   1.00
O200   O     0.87104   0.25527   0.21805   0.00000  Uiso   1.00
Zn201  Zn    0.85910   0.14090   0.28277   0.00000  Uiso   1.00
Zn202  Zn    0.80125   0.12378   0.22257   0.00000  Uiso   1.00
Zn203  Zn    0.87833   0.19664   0.21188   0.00000  Uiso   1.00
Zn204  Zn    0.79465   0.20535   0.28277   0.00000  Uiso   1.00
C205   C     0.05239   0.49284   0.25918   0.00000  Uiso   1.00
C206   C     0.19563   0.46049   0.46032   0.00000  Uiso   1.00
C207   C     0.21792   0.44274   0.48027   0.00000  Uiso   1.00
C208   C     0.28120   0.50712   0.24115   0.00000  Uiso   1.00
C209   C     0.20932   0.45071   0.02090   0.00000  Uiso   1.00
C210   C     0.17559   0.47494   0.04256   0.00000  Uiso   1.00
C211   C     0.23478   0.43518   0.04002   0.00000  Uiso   1.00
C212   C     0.22806   0.44439   0.08042   0.00000  Uiso   1.00
C213   C     0.17130   0.48579   0.08301   0.00000  Uiso   1.00
C214   C     0.32754   0.51095   0.23781   0.00000  Uiso   1.00
C215   C     0.00721   0.49085   0.26175   0.00000  Uiso   1.00
C216   C     0.09691   0.54607   0.42120   0.00000  Uiso   1.00
C217   C     0.18103   0.65553   0.23809   0.00000  Uiso   1.00
C218   C     0.15154   0.34536   0.26193   0.00000  Uiso   1.00
C219   C     0.15596   0.38943   0.25881   0.00000  Uiso   1.00
C220   C     0.17690   0.61102   0.24132   0.00000  Uiso   1.00
C221   C     0.18815   0.47864   0.14406   0.00000  Uiso   1.00
C222   C     0.14532   0.52093   0.35618   0.00000  Uiso   1.00
C223   C     0.13289   0.52594   0.39949   0.00000  Uiso   1.00
C224   C     0.19654   0.46991   0.10171   0.00000  Uiso   1.00
C225   C     0.08298   0.54649   0.46199   0.00000  Uiso   1.00
C226   C     0.06514   0.46169   0.08501   0.00000  Uiso   1.00
C227   C     0.15542   0.50734   0.41914   0.00000  Uiso   1.00
C228   C     0.04149   0.45724   0.12803   0.00000  Uiso   1.00
C229   C     0.14106   0.50596   0.46023   0.00000  Uiso   1.00
C230   C     0.10449   0.52634   0.48159   0.00000  Uiso   1.00
C231   C     0.16232   0.48547   0.48060   0.00000  Uiso   1.00
C232   C     0.14914   0.48918   0.02259   0.00000  Uiso   1.00
C233   C     0.10945   0.50587   0.04257   0.00000  Uiso   1.00
C234   C     0.08878   0.52536   0.02213   0.00000  Uiso   1.00
H235   H     0.05939   0.53894   0.03823   0.00000  Uiso   1.00
H236   H     0.07895   0.56065   0.40662   0.00000  Uiso   1.00
H237   H     0.18430   0.49436   0.40154   0.00000  Uiso   1.00
H238   H     0.20457   0.45289   0.42888   0.00000  Uiso   1.00
H239   H     0.01063   0.54629   0.19098   0.00000  Uiso   1.00
H240   H     0.03734   0.56218   0.22496   0.00000  Uiso   1.00
H241   H     0.08711   0.43682   0.07422   0.00000  Uiso   1.00
H242   H     0.04069   0.45702   0.06810   0.00000  Uiso   1.00
H243   H     0.01792   0.48051   0.13923   0.00000  Uiso   1.00
H244   H     0.02376   0.42538   0.13107   0.00000  Uiso   1.00
H245   H     0.06495   0.46233   0.14585   0.00000  Uiso   1.00
H246   H     0.26008   0.41613   0.02366   0.00000  Uiso   1.00
H247   H     0.31791   0.47177   0.28317   0.00000  Uiso   1.00
H248   H     0.20833   0.33624   0.21616   0.00000  Uiso   1.00
H249   H     0.12381   0.66537   0.28387   0.00000  Uiso   1.00
H250   H     0.15002   0.50794   0.10053   0.00000  Uiso   1.00
H251   H     0.24756   0.43192   0.09502   0.00000  Uiso   1.00
H252   H     0.24314   0.42373   0.46354   0.00000  Uiso   1.00
H253   H     0.05480   0.56189   0.47820   0.00000  Uiso   1.00
N254   N     0.02538   0.53562   0.20945   0.00000  Uiso   1.00
O255   O     0.16667   0.50000   0.25000   0.00000  Uiso   1.00
O256   O     0.15693   0.45726   0.16625   0.00000  Uiso   1.00
O257   O     0.12687   0.53979   0.33749   0.00000  Uiso   1.00
O258   O     0.21088   0.50826   0.15877   0.00000  Uiso   1.00
O259   O     0.17198   0.49468   0.33749   0.00000  Uiso   1.00
O260   O     0.08865   0.50187   0.08180   0.00000  Uiso   1.00
O261   O     0.17849   0.41434   0.27820   0.00000  Uiso   1.00
O262   O     0.14581   0.59469   0.26767   0.00000  Uiso   1.00
O263   O     0.07452   0.46584   0.23607   0.00000  Uiso   1.00
O264   O     0.26785   0.52512   0.21805   0.00000  Uiso   1.00
O265   O     0.06990   0.52293   0.27820   0.00000  Uiso   1.00
O266   O     0.25440   0.48610   0.26767   0.00000  Uiso   1.00
O267   O     0.13800   0.40236   0.23607   0.00000  Uiso   1.00
O268   O     0.20437   0.58860   0.21805   0.00000  Uiso   1.00
Zn269  Zn    0.19244   0.47423   0.28277   0.00000  Uiso   1.00
Zn270  Zn    0.13459   0.45711   0.22257   0.00000  Uiso   1.00
Zn271  Zn    0.21166   0.52997   0.21188   0.00000  Uiso   1.00
Zn272  Zn    0.12798   0.53868   0.28277   0.00000  Uiso   1.00
C273   C     0.38572   0.49284   0.25918   0.00000  Uiso   1.00
C274   C     0.52896   0.46049   0.46032   0.00000  Uiso   1.00
C275   C     0.55126   0.44274   0.48027   0.00000  Uiso   1.00
C276   C     0.61453   0.50712   0.24115   0.00000  Uiso   1.00
C277   C     0.54265   0.45071   0.02090   0.00000  Uiso   1.00
C278   C     0.50892   0.47494   0.04256   0.00000  Uiso   1.00
C279   C     0.56812   0.43518   0.04002   0.00000  Uiso   1.00
C280   C     0.56139   0.44439   0.08042   0.00000  Uiso   1.00
C281   C     0.50464   0.48579   0.08301   0.00000  Uiso   1.00
C282   C     0.66088   0.51095   0.23781   0.00000  Uiso   1.00
C283   C     0.34054   0.49085   0.26175   0.00000  Uiso   1.00
C284   C     0.43024   0.54607   0.42120   0.00000  Uiso   1.00
C285   C     0.51437   0.65553   0.23809   0.00000  Uiso   1.00
C286   C     0.48487   0.34536   0.26193   0.00000  Uiso   1.00
C287   C     0.48930   0.38943   0.25881   0.00000  Uiso   1.00
C288   C     0.51023   0.61102   0.24132   0.00000  Uiso   1.00
C289   C     0.52149   0.47864   0.14406   0.00000  Uiso   1.00
C290   C     0.47865   0.52093   0.35618   0.00000  Uiso   1.00
C291   C     0.46622   0.52594   0.39949   0.00000  Uiso   1.00
C292   C     0.52988   0.46991   0.10171   0.00000  Uiso   1.00
C293   C     0.41632   0.54649   0.46199   0.00000  Uiso   1.00
C294   C     0.39848   0.46169   0.08501   0.00000  Uiso   1.00
C295   C     0.48875   0.50734   0.41914   0.00000  Uiso   1.00
C296   C     0.37482   0.45724   0.12803   0.00000  Uiso   1.00
C297   C     0.47440   0.50596   0.46023   0.00000  Uiso   1.00
C298   C     0.43782   0.52634   0.48159   0.00000  Uiso   1.00
C299   C     0.49565   0.48547   0.48060   0.00000  Uiso   1.00
C300   C     0.48248   0.48918   0.02259   0.00000  Uiso   1.00
C301   C     0.44279   0.50587   0.04257   0.00000  Uiso   1.00
C302   C     0.42211   0.52536   0.02213   0.00000  Uiso   1.00
H303   H     0.39272   0.53894   0.03823   0.00000  Uiso   1.00
H304   H     0.41229   0.56065   0.40662   0.00000  Uiso   1.00
H305   H     0.51764   0.49436   0.40154   0.00000  Uiso   1.00
H306   H     0.53790   0.45289   0.42888   0.00000  Uiso   1.00
H307   H     0.34396   0.54629   0.19098   0.00000  Uiso   1.00
H308   H     0.37068   0.56218   0.22496   0.00000  Uiso   1.00
H309   H     0.42044   0.43682   0.07422   0.00000  Uiso   1.00
H310   H     0.37402   0.45702   0.06810   0.00000  Uiso   1.00
H311   H     0.35126   0.48051   0.13923   0.00000  Uiso   1.00
H312   H     0.35709   0.42538   0.13107   0.00000  Uiso   1.00
H313   H     0.39828   0.46233   0.14585   0.00000  Uiso   1.00
H314   H     0.59342   0.41613   0.02366   0.00000  Uiso   1.00
H315   H     0.65125   0.47177   0.28317   0.00000  Uiso   1.00
H316   H     0.54166   0.33624   0.21616   0.00000  Uiso   1.00
H317   H     0.45715   0.66537   0.28387   0.00000  Uiso   1.00
H318   H     0.48335   0.50794   0.10053   0.00000  Uiso   1.00
H319   H     0.58089   0.43192   0.09502   0.00000  Uiso   1.00
H320   H     0.57647   0.42373   0.46354   0.00000  Uiso   1.00
H321   H     0.38813   0.56189   0.47820   0.00000  Uiso   1.00
N322   N     0.35872   0.53562   0.20945   0.00000  Uiso   1.00
O323   O     0.50000   0.50000   0.25000   0.00000  Uiso   1.00
O324   O     0.49027   0.45726   0.16625   0.00000  Uiso   1.00
O325   O     0.46020   0.53979   0.33749   0.00000  Uiso   1.00
O326   O     0.54421   0.50826   0.15877   0.00000  Uiso   1.00
O327   O     0.50532   0.49468   0.33749   0.00000  Uiso   1.00
O328   O     0.42199   0.50187   0.08180   0.00000  Uiso   1.00
O329   O     0.51182   0.41434   0.27820   0.00000  Uiso   1.00
O330   O     0.47914   0.59469   0.26767   0.00000  Uiso   1.00
O331   O     0.40785   0.46584   0.23607   0.00000  Uiso   1.00
O332   O     0.60119   0.52512   0.21805   0.00000  Uiso   1.00
O333   O     0.40323   0.52293   0.27820   0.00000  Uiso   1.00
O334   O     0.58773   0.48610   0.26767   0.00000  Uiso   1.00
O335   O     0.47133   0.40236   0.23607   0.00000  Uiso   1.00
O336   O     0.53771   0.58860   0.21805   0.00000  Uiso   1.00
Zn337  Zn    0.52577   0.47423   0.28277   0.00000  Uiso   1.00
Zn338  Zn    0.46792   0.45711   0.22257   0.00000  Uiso   1.00
Zn339  Zn    0.54500   0.52997   0.21188   0.00000  Uiso   1.00
Zn340  Zn    0.46131   0.53868   0.28277   0.00000  Uiso   1.00
C341   C     0.71906   0.49284   0.25918   0.00000  Uiso   1.00
C342   C     0.86230   0.46049   0.46032   0.00000  Uiso   1.00
C343   C     0.88459   0.44274   0.48027   0.00000  Uiso   1.00
C344   C     0.94786   0.50712   0.24115   0.00000  Uiso   1.00
C345   C     0.87599   0.45071   0.02090   0.00000  Uiso   1.00
C346   C     0.84226   0.47494   0.04256   0.00000  Uiso   1.00
C347   C     0.90145   0.43518   0.04002   0.00000  Uiso   1.00
C348   C     0.89472   0.44439   0.08042   0.00000  Uiso   1.00
C349   C     0.83797   0.48579   0.08301   0.00000  Uiso   1.00
C350   C     0.99421   0.51095   0.23781   0.00000  Uiso   1.00
C351   C     0.67388   0.49085   0.26175   0.00000  Uiso   1.00
C352   C     0.76358   0.54607   0.42120   0.00000  Uiso   1.00
C353   C     0.84770   0.65553   0.23809   0.00000  Uiso   1.00
C354   C     0.81820   0.34536   0.26193   0.00000  Uiso   1.00
C355   C     0.82263   0.38943   0.25881   0.00000  Uiso   1.00
C356   C     0.84356   0.61102   0.24132   0.00000  Uiso   1.00
C357   C     0.85482   0.47864   0.14406   0.00000  Uiso   1.00
C358   C     0.81198   0.52093   0.35618   0.00000  Uiso   1.00
C359   C     0.79956   0.52594   0.39949   0.00000  Uiso   1.00
C360   C     0.86321   0.46991   0.10171   0.00000  Uiso   1.00
C361   C     0.74965   0.54649   0.46199   0.00000  Uiso   1.00
C362   C     0.73181   0.46169   0.08501   0.00000  Uiso   1.00
C363   C     0.82209   0.50734   0.41914   0.00000  Uiso   1.00
C364   C     0.70815   0.45724   0.12803   0.00000  Uiso   1.00
C365   C     0.80773   0.50596   0.46023   0.00000  Uiso   1.00
C366   C     0.77115   0.52634   0.48159   0.00000  Uiso   1.00
C367   C     0.82899   0.48547   0.48060   0.00000  Uiso   1.00
C368   C     0.81581   0.48918   0.02259   0.00000  Uiso   1.00
C369   C     0.77612   0.50587   0.04257   0.00000  Uiso   1.00
C370   C     0.75545   0.52536   0.02213   0.00000  Uiso   1.00
H371   H     0.72606   0.53894   0.03823   0.00000  Uiso   1.00
H372   H     0.74562   0.56065   0.40662   0.00000  Uiso   1.00
H373   H     0.85097   0.49436   0.40154   0.00000  Uiso   1.00
H374   H     0.87123   0.45289   0.42888   0.00000  Uiso   1.00
H375   H     0.67729   0.54629   0.19098   0.00000  Uiso   1.00
H376   H     0.70401   0.56218   0.22496   0.00000  Uiso   1.00
H377   H     0.75378   0.43682   0.07422   0.00000  Uiso   1.00
H378   H     0.70735   0.45702   0.06810   0.00000  Uiso   1.00
H379   H     0.68459   0.48051   0.13923   0.00000  Uiso   1.00
H380   H     0.69042   0.42538   0.13107   0.00000  Uiso   1.00
H381   H     0.73162   0.46233   0.14585   0.00000  Uiso   1.00
H382   H     0.92675   0.41613   0.02366   0.00000  Uiso   1.00
H383   H     0.98458   0.47177   0.28317   0.00000  Uiso   1.00
H384   H     0.87500   0.33624   0.21616   0.00000  Uiso   1.00
H385   H     0.79048   0.66537   0.28387   0.00000  Uiso   1.00
H386   H     0.81668   0.50794   0.10053   0.00000  Uiso   1.00
H387   H     0.91422   0.43192   0.09502   0.00000  Uiso   1.00
H388   H     0.90980   0.42373   0.46354   0.00000  Uiso   1.00
H389   H     0.72147   0.56189   0.47820   0.00000  Uiso   1.00
N390   N     0.69205   0.53562   0.20945   0.00000  Uiso   1.00
O391   O     0.83333   0.50000   0.25000   0.00000  Uiso   1.00
O392   O     0.82360   0.45726   0.16625   0.00000  Uiso   1.00
O393   O     0.79354   0.53979   0.33749   0.00000  Uiso   1.00
O394   O     0.87755   0.50826   0.15877   0.00000  Uiso   1.00
O395   O     0.83865   0.49468   0.33749   0.00000  Uiso   1.00
O396   O     0.75532   0.50187   0.08180   0.00000  Uiso   1.00
O397   O     0.84515   0.41434   0.27820   0.00000  Uiso   1.00
O398   O     0.81247   0.59469   0.26767   0.00000  Uiso   1.00
O399   O     0.74119   0.46584   0.23607   0.00000  Uiso   1.00
O400   O     0.93452   0.52512   0.21805   0.00000  Uiso   1.00
O401   O     0.73656   0.52293   0.27820   0.00000  Uiso   1.00
O402   O     0.92106   0.48610   0.26767   0.00000  Uiso   1.00
O403   O     0.80467   0.40236   0.23607   0.00000  Uiso   1.00
O404   O     0.87104   0.58860   0.21805   0.00000  Uiso   1.00
Zn405  Zn    0.85910   0.47423   0.28277   0.00000  Uiso   1.00
Zn406  Zn    0.80125   0.45711   0.22257   0.00000  Uiso   1.00
Zn407  Zn    0.87833   0.52997   0.21188   0.00000  Uiso   1.00
Zn408  Zn    0.79465   0.53868   0.28277   0.00000  Uiso   1.00
C409   C     0.05239   0.82618   0.25918   0.00000  Uiso   1.00
C410   C     0.19563   0.79382   0.46032   0.00000  Uiso   1.00
C411   C     0.21792   0.77607   0.48027   0.00000  Uiso   1.00
C412   C     0.28120   0.84045   0.24115   0.00000  Uiso   1.00
C413   C     0.20932   0.78404   0.02090   0.00000  Uiso   1.00
C414   C     0.17559   0.80827   0.04256   0.00000  Uiso   1.00
C415   C     0.23478   0.76851   0.04002   0.00000  Uiso   1.00
C416   C     0.22806   0.77773   0.08042   0.00000  Uiso   1.00
C417   C     0.17130   0.81913   0.08301   0.00000  Uiso   1.00
C418   C     0.32754   0.84428   0.23781   0.00000  Uiso   1.00
C419   C     0.00721   0.82418   0.26175   0.00000  Uiso   1.00
C420   C     0.09691   0.87940   0.42120   0.00000  Uiso   1.00
C421   C     0.18103   0.98887   0.23809   0.00000  Uiso   1.00
C422   C     0.15154   0.67869   0.26193   0.00000  Uiso   1.00
C423   C     0.15596   0.72276   0.25881   0.00000  Uiso   1.00
C424   C     0.17690   0.94435   0.24132   0.00000  Uiso   1.00
C425   C     0.18815   0.81197   0.14406   0.00000  Uiso   1.00
C426   C     0.14532   0.85426   0.35618   0.00000  Uiso   1.00
C427   C     0.13289   0.85927   0.39949   0.00000  Uiso   1.00
C428   C     0.19654   0.80324   0.10171   0.00000  Uiso   1.00
C429   C     0.08298   0.87982   0.46199   0.00000  Uiso   1.00
C430   C     0.06514   0.79503   0.08501   0.00000  Uiso   1.00
C431   C     0.15542   0.84067   0.41914   0.00000  Uiso   1.00
C432   C     0.04149   0.79057   0.12803   0.00000  Uiso   1.00
C433   C     0.14106   0.83930   0.46023   0.00000  Uiso   1.00
C434   C     0.10449   0.85967   0.48159   0.00000  Uiso   1.00
C435   C     0.16232   0.81880   0.48060   0.00000  Uiso   1.00
C436   C     0.14914   0.82251   0.02259   0.00000  Uiso   1.00
C437   C     0.10945   0.83920   0.04257   0.00000  Uiso   1.00
C438   C     0.08878   0.85869   0.02213   0.00000  Uiso   1.00
H439   H     0.05939   0.87227   0.03823   0.00000  Uiso   1.00
H440   H     0.07895   0.89399   0.40662   0.00000  Uiso   1.00
H441   H     0.18430   0.82769   0.40154   0.00000  Uiso   1.00
H442   H     0.20457   0.78622   0.42888   0.00000  Uiso   1.00
H443   H     0.01063   0.87963   0.19098   0.00000  Uiso   1.00
H444   H     0.03734   0.89551   0.22496   0.00000  Uiso   1.00
H445   H     0.08711   0.77015   0.07422   0.00000  Uiso   1.00
H446   H     0.04069   0.79036   0.06810   0.00000  Uiso   1.00
H447   H     0.01792   0.81384   0.13923   0.00000  Uiso   1.00
H448   H     0.02376   0.75871   0.13107   0.00000  Uiso   1.00
H449   H     0.06495   0.79566   0.14585   0.00000  Uiso   1.00
H450   H     0.26008   0.74946   0.02366   0.00000  Uiso   1.00
H451   H     0.31791   0.80511   0.28317   0.00000  Uiso   1.00
H452   H     0.20833   0.66958   0.21616   0.00000  Uiso   1.00
H453   H     0.12381   0.99871   0.28387   0.00000  Uiso   1.00
H454   H     0.15002   0.84127   0.10053   0.00000  Uiso   1.00
H455   H     0.24756   0.76526   0.09502   0.00000  Uiso   1.00
H456   H     0.24314   0.75706   0.46354   0.00000  Uiso   1.00
H457   H     0.05480   0.89522   0.47820   0.00000  Uiso   1.00
N458   N     0.02538   0.86895   0.20945   0.00000  Uiso   1.00
O459   O     0.16667   0.83333   0.25000   0.00000  Uiso   1.00
O460   O     0.15693   0.79060   0.16625   0.00000  Uiso   1.00
O461   O     0.12687   0.87313   0.33749   0.00000  Uiso   1.00
O462   O     0.21088   0.84159   0.15877   0.00000  Uiso   1.00
O463   O     0.17198   0.82802   0.33749   0.00000  Uiso   1.00
O464   O     0.08865   0.83521   0.08180   0.00000  Uiso   1.00
O465   O     0.17849   0.74768   0.27820   0.00000  Uiso   1.00
O466   O     0.14581   0.92803   0.26767   0.00000  Uiso   1.00
O467   O     0.07452   0.79917   0.23607   0.00000  Uiso   1.00
O468   O     0.26785   0.85845   0.21805   0.00000  Uiso   1.00
O469   O     0.06990   0.85627   0.27820   0.00000  Uiso   1.00
O470   O     0.25440   0.81944   0.26767   0.00000  Uiso   1.00
O471   O     0.13800   0.73570   0.23607   0.00000  Uiso   1.00
O472   O     0.20437   0.92193   0.21805   0.00000  Uiso   1.00
Zn473  Zn    0.19244   0.80756   0.28277   0.00000  Uiso   1.00
Zn474  Zn    0.13459   0.79044   0.22257   0.00000  Uiso   1.00
Zn475  Zn    0.21166   0.86331   0.21188   0.00000  Uiso   1.00
Zn476  Zn    0.12798   0.87202   0.28277   0.00000  Uiso   1.00
C477   C     0.38572   0.82618   0.25918   0.00000  Uiso   1.00
C478   C     0.52896   0.79382   0.46032   0.00000  Uiso   1.00
C479   C     0.55126   0.77607   0.48027   0.00000  Uiso   1.00
C480   C     0.61453   0.84045   0.24115   0.00000  Uiso   1.00
C481   C     0.54265   0.78404   0.02090   0.00000  Uiso   1.00
C482   C     0.50892   0.80827   0.04256   0.00000  Uiso   1.00
C483   C     0.56812   0.76851   0.04002   0.00000  Uiso   1.00
C484   C     0.56139   0.77773   0.08042   0.00000  Uiso   1.00
C485   C     0.50464   0.81913   0.08301   0.00000  Uiso   1.00
C486   C     0.66088   0.84428   0.23781   0.00000  Uiso   1.00
C487   C     0.34054   0.82418   0.26175   0.00000  Uiso   1.00
C488   C     0.43024   0.87940   0.42120   0.00000  Uiso   1.00
C489   C     0.51437   0.98887   0.23809   0.00000  Uiso   1.00
C490   C     0.48487   0.67869   0.26193   0.00000  Uiso   1.00
C491   C     0.48930   0.72276   0.25881   0.00000  Uiso   1.00
C492   C     0.51023   0.94435   0.24132   0.00000  Uiso   1.00
C493   C     0.52149   0.81197   0.14406   0.00000  Uiso   1.00
C494   C     0.47865   0.85426   0.35618   0.00000  Uiso   1.00
C495   C     0.46622   0.85927   0.39949   0.00000  Uiso   1.00
C496   C     0.52988   0.80324   0.10171   0.00000  Uiso   1.00
C497   C     0.41632   0.87982   0.46199   0.00000  Uiso   1.00
C498   C     0.39848   0.79503   0.08501   0.00000  Uiso   1.00
C499   C     0.48875   0.84067   0.41914   0.00000  Uiso   1.00
C500   C     0.37482   0.79057   0.12803   0.00000  Uiso   1.00
C501   C     0.47440   0.83930   0.46023   0.00000  Uiso   1.00
C502   C     0.43782   0.85967   0.48159   0.00000  Uiso   1.00
C503   C     0.49565   0.81880   0.48060   0.00000  Uiso   1.00
C504   C     0.48248   0.82251   0.02259   0.00000  Uiso   1.00
C505   C     0.44279   0.83920   0.04257   0.00000  Uiso   1.00
C506   C     0.42211   0.85869   0.02213   0.00000  Uiso   1.00
H507   H     0.39272   0.87227   0.03823   0.00000  Uiso   1.00
H508   H     0.41229   0.89399   0.40662   0.00000  Uiso   1.00
H509   H     0.51764   0.82769   0.40154   0.00000  Uiso   1.00
H510   H     0.53790   0.78622   0.42888   0.00000  Uiso   1.00
H511   H     0.34396   0.87963   0.19098   0.00000  Uiso   1.00
H512   H     0.37068   0.89551   0.22496   0.00000  Uiso   1.00
H513   H     0.42044   0.77015   0.07422   0.00000  Uiso   1.00
H514   H     0.37402   0.79036   0.06810   0.00000  Uiso   1.00
H515   H     0.35126   0.81384   0.13923   0.00000  Uiso   1.00
H516   H     0.35709   0.75871   0.13107   0.00000  Uiso   1.00
H517   H     0.39828   0.79566   0.14585   0.00000  Uiso   1.00
H518   H     0.59342   0.74946   0.02366   0.00000  Uiso   1.00
H519   H     0.65125   0.80511   0.28317   0.00000  Uiso   1.00
H520   H     0.54166   0.66958   0.21616   0.00000  Uiso   1.00
H521   H     0.45715   0.99871   0.28387   0.00000  Uiso   1.00
H522   H     0.48335   0.84127   0.10053   0.00000  Uiso   1.00
H523   H     0.58089   0.76526   0.09502   0.00000  Uiso   1.00
H524   H     0.57647   0.75706   0.46354   0.00000  Uiso   1.00
H525   H     0.38813   0.89522   0.47820   0.00000  Uiso   1.00
N526   N     0.35872   0.86895   0.20945   0.00000  Uiso   1.00
O527   O     0.50000   0.83333   0.25000   0.00000  Uiso   1.00
O528   O     0.49027   0.79060   0.16625   0.00000  Uiso   1.00
O529   O     0.46020   0.87313   0.33749   0.00000  Uiso   1.00
O530   O     0.54421   0.84159   0.15877   0.00000  Uiso   1.00
O531   O     0.50532   0.82802   0.33749   0.00000  Uiso   1.00
O532   O     0.42199   0.83521   0.08180   0.00000  Uiso   1.00
O533   O     0.51182   0.74768   0.27820   0.00000  Uiso   1.00
O534   O     0.47914   0.92803   0.26767   0.00000  Uiso   1.00
O535   O     0.40785   0.79917   0.23607   0.00000  Uiso   1.00
O536   O     0.60119   0.85845   0.21805   0.00000  Uiso   1.00
O537   O     0.40323   0.85627   0.27820   0.00000  Uiso   1.00
O538   O     0.58773   0.81944   0.26767   0.00000  Uiso   1.00
O539   O     0.47133   0.73570   0.23607   0.00000  Uiso   1.00
O540   O     0.53771   0.92193   0.21805   0.00000  Uiso   1.00
Zn541  Zn    0.52577   0.80756   0.28277   0.00000  Uiso   1.00
Zn542  Zn    0.46792   0.79044   0.22257   0.00000  Uiso   1.00
Zn543  Zn    0.54500   0.86331   0.21188   0.00000  Uiso   1.00
Zn544  Zn    0.46131   0.87202   0.28277   0.00000  Uiso   1.00
C545   C     0.71906   0.82618   0.25918   0.00000  Uiso   1.00
C546   C     0.86230   0.79382   0.46032   0.00000  Uiso   1.00
C547   C     0.88459   0.77607   0.48027   0.00000  Uiso   1.00
C548   C     0.94786   0.84045   0.24115   0.00000  Uiso   1.00
C549   C     0.87599   0.78404   0.02090   0.00000  Uiso   1.00
C550   C     0.84226   0.80827   0.04256   0.00000  Uiso   1.00
C551   C     0.90145   0.76851   0.04002   0.00000  Uiso   1.00
C552   C     0.89472   0.77773   0.08042   0.00000  Uiso   1.00
C553   C     0.83797   0.81913   0.08301   0.00000  Uiso   1.00
C554   C     0.99421   0.84428   0.23781   0.00000  Uiso   1.00
C555   C     0.67388   0.82418   0.26175   0.00000  Uiso   1.00
C556   C     0.76358   0.87940   0.42120   0.00000  Uiso   1.00
C557   C     0.84770   0.98887   0.23809   0.00000  Uiso   1.00
C558   C     0.81820   0.67869   0.26193   0.00000  Uiso   1.00
C559   C     0.82263   0.72276   0.25881   0.00000  Uiso   1.00
C560   C     0.84356   0.94435   0.24132   0.00000  Uiso   1.00
C561   C     0.85482   0.81197   0.14406   0.00000  Uiso   1.00
C562   C     0.81198   0.85426   0.35618   0.00000  Uiso   1.00
C563   C     0.79956   0.85927   0.39949   0.00000  Uiso   1.00
C564   C     0.86321   0.80324   0.10171   0.00000  Uiso   1.00
C565   C     0.74965   0.87982   0.46199   0.00000  Uiso   1.00
C566   C     0.73181   0.79503   0.08501   0.00000  Uiso   1.00
C567   C     0.82209   0.84067   0.41914   0.00000  Uiso   1.00
C568   C     0.70815   0.79057   0.12803   0.00000  Uiso   1.00
C569   C     0.80773   0.83930   0.46023   0.00000  Uiso   1.00
C570   C     0.77115   0.85967   0.48159   0.00000  Uiso   1.00
C571   C     0.82899   0.81880   0.48060   0.00000  Uiso   1.00
C572   C     0.81581   0.82251   0.02259   0.00000  Uiso   1.00
C573   C     0.77612   0.83920   0.04257   0.00000  Uiso   1.00
C574   C     0.75545   0.85869   0.02213   0.00000  Uiso   1.00
H575   H     0.72606   0.87227   0.03823   0.00000  Uiso   1.00
H576   H     0.74562   0.89399   0.40662   0.00000  Uiso   1.00
H577   H     0.85097   0.82769   0.40154   0.00000  Uiso   1.00
H578   H     0.87123   0.78622   0.42888   0.00000  Uiso   1.00
H579   H     0.67729   0.87963   0.19098   0.00000  Uiso   1.00
H580   H     0.70401   0.89551   0.22496   0.00000  Uiso   1.00
H581   H     0.75378   0.77015   0.07422   0.00000  Uiso   1.00
H582   H     0.70735   0.79036   0.06810   0.00000  Uiso   1.00
H583   H     0.68459   0.81384   0.13923   0.00000  Uiso   1.00
H584   H     0.69042   0.75871   0.13107   0.00000  Uiso   1.00
H585   H     0.73162   0.79566   0.14585   0.00000  Uiso   1.00
H586   H     0.92675   0.74946   0.02366   0.00000  Uiso   1.00
H587   H     0.98458   0.80511   0.28317   0.00000  Uiso   1.00
H588   H     0.87500   0.66958   0.21616   0.00000  Uiso   1.00
H589   H     0.79048   0.99871   0.28387   0.00000  Uiso   1.00
H590   H     0.81668   0.84127   0.10053   0.00000  Uiso   1.00
H591   H     0.91422   0.76526   0.09502   0.00000  Uiso   1.00
H592   H     0.90980   0.75706   0.46354   0.00000  Uiso   1.00
H593   H     0.72147   0.89522   0.47820   0.00000  Uiso   1.00
N594   N     0.69205   0.86895   0.20945   0.00000  Uiso   1.00
O595   O     0.83333   0.83333   0.25000   0.00000  Uiso   1.00
O596   O     0.82360   0.79060   0.16625   0.00000  Uiso   1.00
O597   O     0.79354   0.87313   0.33749   0.00000  Uiso   1.00
O598   O     0.87755   0.84159   0.15877   0.00000  Uiso   1.00
O599   O     0.83865   0.82802   0.33749   0.00000  Uiso   1.00
O600   O     0.75532   0.83521   0.08180   0.00000  Uiso   1.00
O601   O     0.84515   0.74768   0.27820   0.00000  Uiso   1.00
O602   O     0.81247   0.92803   0.26767   0.00000  Uiso   1.00
O603   O     0.74119   0.79917   0.23607   0.00000  Uiso   1.00
O604   O     0.93452   0.85845   0.21805   0.00000  Uiso   1.00
O605   O     0.73656   0.85627   0.27820   0.00000  Uiso   1.00
O606   O     0.92106   0.81944   0.26767   0.00000  Uiso   1.00
O607   O     0.80467   0.73570   0.23607   0.00000  Uiso   1.00
O608   O     0.87104   0.92193   0.21805   0.00000  Uiso   1.00
Zn609  Zn    0.85910   0.80756   0.28277   0.00000  Uiso   1.00
Zn610  Zn    0.80125   0.79044   0.22257   0.00000  Uiso   1.00
Zn611  Zn    0.87833   0.86331   0.21188   0.00000  Uiso   1.00
Zn612  Zn    0.79465   0.87202   0.28277   0.00000  Uiso   1.00
C613   C     0.05239   0.15951   0.75918   0.00000  Uiso   1.00
C614   C     0.19563   0.12715   0.96032   0.00000  Uiso   1.00
C615   C     0.21792   0.10941   0.98027   0.00000  Uiso   1.00
C616   C     0.28120   0.17378   0.74115   0.00000  Uiso   1.00
C617   C     0.20932   0.11737   0.52090   0.00000  Uiso   1.00
C618   C     0.17559   0.14161   0.54256   0.00000  Uiso   1.00
C619   C     0.23478   0.10184   0.54002   0.00000  Uiso   1.00
C620   C     0.22806   0.11106   0.58042   0.00000  Uiso   1.00
C621   C     0.17130   0.15246   0.58301   0.00000  Uiso   1.00
C622   C     0.32754   0.17761   0.73781   0.00000  Uiso   1.00
C623   C     0.00721   0.15751   0.76175   0.00000  Uiso   1.00
C624   C     0.09691   0.21274   0.92120   0.00000  Uiso   1.00
C625   C     0.18103   0.32220   0.73809   0.00000  Uiso   1.00
C626   C     0.15154   0.01202   0.76193   0.00000  Uiso   1.00
C627   C     0.15596   0.05610   0.75881   0.00000  Uiso   1.00
C628   C     0.17690   0.27769   0.74132   0.00000  Uiso   1.00
C629   C     0.18815   0.14530   0.64406   0.00000  Uiso   1.00
C630   C     0.14532   0.18759   0.85618   0.00000  Uiso   1.00
C631   C     0.13289   0.19261   0.89949   0.00000  Uiso   1.00
C632   C     0.19654   0.13658   0.60171   0.00000  Uiso   1.00
C633   C     0.08298   0.21316   0.96199   0.00000  Uiso   1.00
C634   C     0.06514   0.12836   0.58501   0.00000  Uiso   1.00
C635   C     0.15542   0.17401   0.91914   0.00000  Uiso   1.00
C636   C     0.04149   0.12391   0.62803   0.00000  Uiso   1.00
C637   C     0.14106   0.17263   0.96023   0.00000  Uiso   1.00
C638   C     0.10449   0.19301   0.98159   0.00000  Uiso   1.00
C639   C     0.16232   0.15213   0.98060   0.00000  Uiso   1.00
C640   C     0.14914   0.15585   0.52259   0.00000  Uiso   1.00
C641   C     0.10945   0.17254   0.54257   0.00000  Uiso   1.00
C642   C     0.08878   0.19202   0.52213   0.00000  Uiso   1.00
H643   H     0.05939   0.20561   0.53823   0.00000  Uiso   1.00
H644   H     0.07895   0.22732   0.90662   0.00000  Uiso   1.00
H645   H     0.18430   0.16103   0.90154   0.00000  Uiso   1.00
H646   H     0.20457   0.11956   0.92888   0.00000  Uiso   1.00
H647   H     0.01063   0.21296   0.69098   0.00000  Uiso   1.00
H648   H     0.03734   0.22885   0.72496   0.00000  Uiso   1.00
H649   H     0.08711   0.10349   0.57422   0.00000  Uiso   1.00
H650   H     0.04069   0.12369   0.56810   0.00000  Uiso   1.00
H651   H     0.01792   0.14717   0.63923   0.00000  Uiso   1.00
H652   H     0.02376   0.09204   0.63107   0.00000  Uiso   1.00
H653   H     0.06495   0.12899   0.64585   0.00000  Uiso   1.00
H654   H     0.26008   0.08280   0.52366   0.00000  Uiso   1.00
H655   H     0.31791   0.13844   0.78317   0.00000  Uiso   1.00
H656   H     0.20833   0.00291   0.71616   0.00000  Uiso   1.00
H657   H     0.12381   0.33204   0.78387   0.00000  Uiso   1.00
H658   H     0.15002   0.17460   0.60053   0.00000  Uiso   1.00
H659   H     0.24756   0.09859   0.59502   0.00000  Uiso   1.00
H660   H     0.24314   0.09040   0.96354   0.00000  Uiso   1.00
H661   H     0.05480   0.22856   0.97820   0.00000  Uiso   1.00
N662   N     0.02538   0.20228   0.70945   0.00000  Uiso   1.00
O663   O     0.16667   0.16667   0.75000   0.00000  Uiso   1.00
O664   O     0.15693   0.12393   0.66625   0.00000  Uiso   1.00
O665   O     0.12687   0.20646   0.83749   0.00000  Uiso   1.00
O666   O     0.21088   0.17493   0.65877   0.00000  Uiso   1.00
O667   O     0.17198   0.16135   0.83749   0.00000  Uiso   1.00
O668   O     0.08865   0.16854   0.58180   0.00000  Uiso   1.00
O669   O     0.17849   0.08101   0.77820   0.00000  Uiso   1.00
O670   O     0.14581   0.26136   0.76767   0.00000  Uiso   1.00
O671   O     0.07452   0.13251   0.73607   0.00000  Uiso   1.00
O672   O     0.26785   0.19179   0.71805   0.00000  Uiso   1.00
O673   O     0.06990   0.18960   0.77820   0.00000  Uiso   1.00
O674   O     0.25440   0.15277   0.76767   0.00000  Uiso   1.00
O675   O     0.13800   0.06903   0.73607   0.00000  Uiso   1.00
O676   O     0.20437   0.25527   0.71805   0.00000  Uiso   1.00
Zn677  Zn    0.19244   0.14090   0.78277   0.00000  Uiso   1.00
Zn678  Zn    0.13459   0.12378   0.72257   0.00000  Uiso   1.00
Zn679  Zn    0.21166   0.19664   0.71188   0.00000  Uiso   1.00
Zn680  Zn    0.12798   0.20535   0.78277   0.00000  Uiso   1.00
C681   C     0.38572   0.15951   0.75918   0.00000  Uiso   1.00
C682   C     0.52896   0.12715   0.96032   0.00000  Uiso   1.00
C683   C     0.55126   0.10941   0.98027   0.00000  Uiso   1.00
C684   C     0.61453   0.17378   0.74115   0.00000  Uiso   1.00
C685   C     0.54265   0.11737   0.52090   0.00000  Uiso   1.00
C686   C     0.50892   0.14161   0.54256   0.00000  Uiso   1.00
C687   C     0.56812   0.10184   0.54002   0.00000  Uiso   1.00
C688   C     0.56139   0.11106   0.58042   0.00000  Uiso   1.00
C689   C     0.50464   0.15246   0.58301   0.00000  Uiso   1.00
C690   C     0.66088   0.17761   0.73781   0.00000  Uiso   1.00
C691   C     0.34054   0.15751   0.76175   0.00000  Uiso   1.00
C692   C     0.43024   0.21274   0.92120   0.00000  Uiso   1.00
C693   C     0.51437   0.32220   0.73809   0.00000  Uiso   1.00
C694   C     0.48487   0.01202   0.76193   0.00000  Uiso   1.00
C695   C     0.48930   0.05610   0.75881   0.00000  Uiso   1.00
C696   C     0.51023   0.27769   0.74132   0.00000  Uiso   1.00
C697   C     0.52149   0.14530   0.64406   0.00000  Uiso   1.00
C698   C     0.47865   0.18759   0.85618   0.00000  Uiso   1.00
C699   C     0.46622   0.19261   0.89949   0.00000  Uiso   1.00
C700   C     0.52988   0.13658   0.60171   0.00000  Uiso   1.00
C701   C     0.41632   0.21316   0.96199   0.00000  Uiso   1.00
C702   C     0.39848   0.12836   0.58501   0.00000  Uiso   1.00
C703   C     0.48875   0.17401   0.91914   0.00000  Uiso   1.00
C704   C     0.37482   0.12391   0.62803   0.00000  Uiso   1.00
C705   C     0.47440   0.17263   0.96023   0.00000  Uiso   1.00
C706   C     0.43782   0.19301   0.98159   0.00000  Uiso   1.00
C707   C     0.49565   0.15213   0.98060   0.00000  Uiso   1.00
C708   C     0.48248   0.15585   0.52259   0.00000  Uiso   1.00
C709   C     0.44279   0.17254   0.54257   0.00000  Uiso   1.00
C710   C     0.42211   0.19202   0.52213   0.00000  Uiso   1.00
H711   H     0.39272   0.20561   0.53823   0.00000  Uiso   1.00
H712   H     0.41229   0.22732   0.90662   0.00000  Uiso   1.00
H713   H     0.51764   0.16103   0.90154   0.00000  Uiso   1.00
H714   H     0.53790   0.11956   0.92888   0.00000  Uiso   1.00
H715   H     0.34396   0.21296   0.69098   0.00000  Uiso   1.00
H716   H     0.37068   0.22885   0.72496   0.00000  Uiso   1.00
H717   H     0.42044   0.10349   0.57422   0.00000  Uiso   1.00
H718   H     0.37402   0.12369   0.56810   0.00000  Uiso   1.00
H719   H     0.35126   0.14717   0.63923   0.00000  Uiso   1.00
H720   H     0.35709   0.09204   0.63107   0.00000  Uiso   1.00
H721   H     0.39828   0.12899   0.64585   0.00000  Uiso   1.00
H722   H     0.59342   0.08280   0.52366   0.00000  Uiso   1.00
H723   H     0.65125   0.13844   0.78317   0.00000  Uiso   1.00
H724   H     0.54166   0.00291   0.71616   0.00000  Uiso   1.00
H725   H     0.45715   0.33204   0.78387   0.00000  Uiso   1.00
H726   H     0.48335   0.17460   0.60053   0.00000  Uiso   1.00
H727   H     0.58089   0.09859   0.59502   0.00000  Uiso   1.00
H728   H     0.57647   0.09040   0.96354   0.00000  Uiso   1.00
H729   H     0.38813   0.22856   0.97820   0.00000  Uiso   1.00
N730   N     0.35872   0.20228   0.70945   0.00000  Uiso   1.00
O731   O     0.50000   0.16667   0.75000   0.00000  Uiso   1.00
O732   O     0.49027   0.12393   0.66625   0.00000  Uiso   1.00
O733   O     0.46020   0.20646   0.83749   0.00000  Uiso   1.00
O734   O     0.54421   0.17493   0.65877   0.00000  Uiso   1.00
O735   O     0.50532   0.16135   0.83749   0.00000  Uiso   1.00
O736   O     0.42199   0.16854   0.58180   0.00000  Uiso   1.00
O737   O     0.51182   0.08101   0.77820   0.00000  Uiso   1.00
O738   O     0.47914   0.26136   0.76767   0.00000  Uiso   1.00
O739   O     0.40785   0.13251   0.73607   0.00000  Uiso   1.00
O740   O     0.60119   0.19179   0.71805   0.00000  Uiso   1.00
O741   O     0.40323   0.18960   0.77820   0.00000  Uiso   1.00
O742   O     0.58773   0.15277   0.76767   0.00000  Uiso   1.00
O743   O     0.47133   0.06903   0.73607   0.00000  Uiso   1.00
O744   O     0.53771   0.25527   0.71805   0.00000  Uiso   1.00
Zn745  Zn    0.52577   0.14090   0.78277   0.00000  Uiso   1.00
Zn746  Zn    0.46792   0.12378   0.72257   0.00000  Uiso   1.00
Zn747  Zn    0.54500   0.19664   0.71188   0.00000  Uiso   1.00
Zn748  Zn    0.46131   0.20535   0.78277   0.00000  Uiso   1.00
C749   C     0.71906   0.15951   0.75918   0.00000  Uiso   1.00
C750   C     0.86230   0.12715   0.96032   0.00000  Uiso   1.00
C751   C     0.88459   0.10941   0.98027   0.00000  Uiso   1.00
C752   C     0.94786   0.17378   0.74115   0.00000  Uiso   1.00
C753   C     0.87599   0.11737   0.52090   0.00000  Uiso   1.00
C754   C     0.84226   0.14161   0.54256   0.00000  Uiso   1.00
C755   C     0.90145   0.10184   0.54002   0.00000  Uiso   1.00
C756   C     0.89472   0.11106   0.58042   0.00000  Uiso   1.00
C757   C     0.83797   0.15246   0.58301   0.00000  Uiso   1.00
C758   C     0.99421   0.17761   0.73781   0.00000  Uiso   1.00
C759   C     0.67388   0.15751   0.76175   0.00000  Uiso   1.00
C760   C     0.76358   0.21274   0.92120   0.00000  Uiso   1.00
C761   C     0.84770   0.32220   0.73809   0.00000  Uiso   1.00
C762   C     0.81820   0.01202   0.76193   0.00000  Uiso   1.00
C763   C     0.82263   0.05610   0.75881   0.00000  Uiso   1.00
C764   C     0.84356   0.27769   0.74132   0.00000  Uiso   1.00
C765   C     0.85482   0.14530   0.64406   0.00000  Uiso   1.00
C766   C     0.81198   0.18759   0.85618   0.00000  Uiso   1.00
C767   C     0.79956   0.19261   0.89949   0.00000  Uiso   1.00
C768   C     0.86321   0.13658   0.60171   0.00000  Uiso   1.00
C769   C     0.74965   0.21316   0.96199   0.00000  Uiso   1.00
C770   C     0.73181   0.12836   0.58501   0.00000  Uiso   1.00
C771   C     0.82209   0.17401   0.91914   0.00000  Uiso   1.00
C772   C     0.70815   0.12391   0.62803   0.00000  Uiso   1.00
C773   C     0.80773   0.17263   0.96023   0.00000  Uiso   1.00
C774   C     0.77115   0.19301   0.98159   0.00000  Uiso   1.00
C775   C     0.82899   0.15213   0.98060   0.00000  Uiso   1.00
C776   C     0.81581   0.15585   0.52259   0.00000  Uiso   1.00
C777   C     0.77612   0.17254   0.54257   0.00000  Uiso   1.00
C778   C     0.75545   0.19202   0.52213   0.00000  Uiso   1.00
H779   H     0.72606   0.20561   0.53823   0.00000  Uiso   1.00
H780   H     0.74562   0.22732   0.90662   0.00000  Uiso   1.00
H781   H     0.85097   0.16103   0.90154   0.00000  Uiso   1.00
H782   H     0.87123   0.11956   0.92888   0.00000  Uiso   1.00
H783   H     0.67729   0.21296   0.69098   0.00000  Uiso   1.00
H784   H     0.70401   0.22885   0.72496   0.00000  Uiso   1.00
H785   H     0.75378   0.10349   0.57422   0.00000  Uiso   1.00
H786   H     0.70735   0.12369   0.56810   0.00000  Uiso   1.00
H787   H     0.68459   0.14717   0.63923   0.00000  Uiso   1.00
H788   H     0.69042   0.09204   0.63107   0.00000  Uiso   1.00
H789   H     0.73162   0.12899   0.64585   0.00000  Uiso   1.00
H790   H     0.92675   0.08280   0.52366   0.00000  Uiso   1.00
H791   H     0.98458   0.13844   0.78317   0.00000  Uiso   1.00
H792   H     0.87500   0.00291   0.71616   0.00000  Uiso   1.00
H793   H     0.79048   0.33204   0.78387   0.00000  Uiso   1.00
H794   H     0.81668   0.17460   0.60053   0.00000  Uiso   1.00
H795   H     0.91422   0.09859   0.59502   0.00000  Uiso   1.00
H796   H     0.90980   0.09040   0.96354   0.00000  Uiso   1.00
H797   H     0.72147   0.22856   0.97820   0.00000  Uiso   1.00
N798   N     0.69205   0.20228   0.70945   0.00000  Uiso   1.00
O799   O     0.83333   0.16667   0.75000   0.00000  Uiso   1.00
O800   O     0.82360   0.12393   0.66625   0.00000  Uiso   1.00
O801   O     0.79354   0.20646   0.83749   0.00000  Uiso   1.00
O802   O     0.87755   0.17493   0.65877   0.00000  Uiso   1.00
O803   O     0.83865   0.16135   0.83749   0.00000  Uiso   1.00
O804   O     0.75532   0.16854   0.58180   0.00000  Uiso   1.00
O805   O     0.84515   0.08101   0.77820   0.00000  Uiso   1.00
O806   O     0.81247   0.26136   0.76767   0.00000  Uiso   1.00
O807   O     0.74119   0.13251   0.73607   0.00000  Uiso   1.00
O808   O     0.93452   0.19179   0.71805   0.00000  Uiso   1.00
O809   O     0.73656   0.18960   0.77820   0.00000  Uiso   1.00
O810   O     0.92106   0.15277   0.76767   0.00000  Uiso   1.00
O811   O     0.80467   0.06903   0.73607   0.00000  Uiso   1.00
O812   O     0.87104   0.25527   0.71805   0.00000  Uiso   1.00
Zn813  Zn    0.85910   0.14090   0.78277   0.00000  Uiso   1.00
Zn814  Zn    0.80125   0.12378   0.72257   0.00000  Uiso   1.00
Zn815  Zn    0.87833   0.19664   0.71188   0.00000  Uiso   1.00
Zn816  Zn    0.79465   0.20535   0.78277   0.00000  Uiso   1.00
C817   C     0.05239   0.49284   0.75918   0.00000  Uiso   1.00
C818   C     0.19563   0.46049   0.96032   0.00000  Uiso   1.00
C819   C     0.21792   0.44274   0.98027   0.00000  Uiso   1.00
C820   C     0.28120   0.50712   0.74115   0.00000  Uiso   1.00
C821   C     0.20932   0.45071   0.52090   0.00000  Uiso   1.00
C822   C     0.17559   0.47494   0.54256   0.00000  Uiso   1.00
C823   C     0.23478   0.43518   0.54002   0.00000  Uiso   1.00
C824   C     0.22806   0.44439   0.58042   0.00000  Uiso   1.00
C825   C     0.17130   0.48579   0.58301   0.00000  Uiso   1.00
C826   C     0.32754   0.51095   0.73781   0.00000  Uiso   1.00
C827   C     0.00721   0.49085   0.76175   0.00000  Uiso   1.00
C828   C     0.09691   0.54607   0.92120   0.00000  Uiso   1.00
C829   C     0.18103   0.65553   0.73809   0.00000  Uiso   1.00
C830   C     0.15154   0.34536   0.76193   0.00000  Uiso   1.00
C831   C     0.15596   0.38943   0.75881   0.00000  Uiso   1.00
C832   C     0.17690   0.61102   0.74132   0.00000  Uiso   1.00
C833   C     0.18815   0.47864   0.64406   0.00000  Uiso   1.00
C834   C     0.14532   0.52093   0.85618   0.00000  Uiso   1.00
C835   C     0.13289   0.52594   0.89949   0.00000  Uiso   1.00
C836   C     0.19654   0.46991   0.60171   0.00000  Uiso   1.00
C837   C     0.08298   0.54649   0.96199   0.00000  Uiso   1.00
C838   C     0.06514   0.46169   0.58501   0.00000  Uiso   1.00
C839   C     0.15542   0.50734   0.91914   0.00000  Uiso   1.00
C840   C     0.04149   0.45724   0.62803   0.00000  Uiso   1.00
C841   C     0.14106   0.50596   0.96023   0.00000  Uiso   1.00
C842   C     0.10449   0.52634   0.98159   0.00000  Uiso   1.00
C843   C     0.16232   0.48547   0.98060   0.00000  Uiso   1.00
C844   C     0.14914   0.48918   0.52259   0.00000  Uiso   1.00
C845   C     0.10945   0.50587   0.54257   0.00000  Uiso   1.00
C846   C     0.08878   0.52536   0.52213   0.00000  Uiso   1.00
H847   H     0.05939   0.53894   0.53823   0.00000  Uiso   1.00
H848   H     0.07895   0.56065   0.90662   0.00000  Uiso   1.00
H849   H     0.18430   0.49436   0.90154   0.00000  Uiso   1.00
H850   H     0.20457   0.45289   0.92888   0.00000  Uiso   1.00
H851   H     0.01063   0.54629   0.69098   0.00000  Uiso   1.00
H852   H     0.03734   0.56218   0.72496   0.00000  Uiso   1.00
H853   H     0.08711   0.43682   0.57422   0.00000  Uiso   1.00
H854   H     0.04069   0.45702   0.56810   0.00000  Uiso   1.00
H855   H     0.01792   0.48051   0.63923   0.00000  Uiso   1.00
H856   H     0.02376   0.42538   0.63107   0.00000  Uiso   1.00
H857   H     0.06495   0.46233   0.64585   0.00000  Uiso   1.00
H858   H     0.26008   0.41613   0.52366   0.00000  Uiso   1.00
H859   H     0.31791   0.47177   0.78317   0.00000  Uiso   1.00
H860   H     0.20833   0.33624   0.71616   0.00000  Uiso   1.00
H861   H     0.12381   0.66537   0.78387   0.00000  Uiso   1.00
H862   H     0.15002   0.50794   0.60053   0.00000  Uiso   1.00
H863   H     0.24756   0.43192   0.59502   0.00000  Uiso   1.00
H864   H     0.24314   0.42373   0.96354   0.00000  Uiso   1.00
H865   H     0.05480   0.56189   0.97820   0.00000  Uiso   1.00
N866   N     0.02538   0.53562   0.70945   0.00000  Uiso   1.00
O867   O     0.16667   0.50000   0.75000   0.00000  Uiso   1.00
O868   O     0.15693   0.45726   0.66625   0.00000  Uiso   1.00
O869   O     0.12687   0.53979   0.83749   0.00000  Uiso   1.00
O870   O     0.21088   0.50826   0.65877   0.00000  Uiso   1.00
O871   O     0.17198   0.49468   0.83749   0.00000  Uiso   1.00
O872   O     0.08865   0.50187   0.58180   0.00000  Uiso   1.00
O873   O     0.17849   0.41434   0.77820   0.00000  Uiso   1.00
O874   O     0.14581   0.59469   0.76767   0.00000  Uiso   1.00
O875   O     0.07452   0.46584   0.73607   0.00000  Uiso   1.00
O876   O     0.26785   0.52512   0.71805   0.00000  Uiso   1.00
O877   O     0.06990   0.52293   0.77820   0.00000  Uiso   1.00
O878   O     0.25440   0.48610   0.76767   0.00000  Uiso   1.00
O879   O     0.13800   0.40236   0.73607   0.00000  Uiso   1.00
O880   O     0.20437   0.58860   0.71805   0.00000  Uiso   1.00
Zn881  Zn    0.19244   0.47423   0.78277   0.00000  Uiso   1.00
Zn882  Zn    0.13459   0.45711   0.72257   0.00000  Uiso   1.00
Zn883  Zn    0.21166   0.52997   0.71188   0.00000  Uiso   1.00
Zn884  Zn    0.12798   0.53868   0.78277   0.00000  Uiso   1.00
C885   C     0.38572   0.49284   0.75918   0.00000  Uiso   1.00
C886   C     0.52896   0.46049   0.96032   0.00000  Uiso   1.00
C887   C     0.55126   0.44274   0.98027   0.00000  Uiso   1.00
C888   C     0.61453   0.50712   0.74115   0.00000  Uiso   1.00
C889   C     0.54265   0.45071   0.52090   0.00000  Uiso   1.00
C890   C     0.50892   0.47494   0.54256   0.00000  Uiso   1.00
C891   C     0.56812   0.43518   0.54002   0.00000  Uiso   1.00
C892   C     0.56139   0.44439   0.58042   0.00000  Uiso   1.00
C893   C     0.50464   0.48579   0.58301   0.00000  Uiso   1.00
C894   C     0.66088   0.51095   0.73781   0.00000  Uiso   1.00
C895   C     0.34054   0.49085   0.76175   0.00000  Uiso   1.00
C896   C     0.43024   0.54607   0.92120   0.00000  Uiso   1.00
C897   C     0.51437   0.65553   0.73809   0.00000  Uiso   1.00
C898   C     0.48487   0.34536   0.76193   0.00000  Uiso   1.00
C899   C     0.48930   0.38943   0.75881   0.00000  Uiso   1.00
C900   C     0.51023   0.61102   0.74132   0.00000  Uiso   1.00
C901   C     0.52149   0.47864   0.64406   0.00000  Uiso   1.00
C902   C     0.47865   0.52093   0.85618   0.00000  Uiso   1.00
C903   C     0.46622   0.52594   0.89949   0.00000  Uiso   1.00
C904   C     0.52988   0.46991   0.60171   0.00000  Uiso   1.00
C905   C     0.41632   0.54649   0.96199   0.00000  Uiso   1.00
C906   C     0.39848   0.46169   0.58501   0.00000  Uiso   1.00
C907   C     0.48875   0.50734   0.91914   0.00000  Uiso   1.00
C908   C     0.37482   0.45724   0.62803   0.00000  Uiso   1.00
C909   C     0.47440   0.50596   0.96023   0.00000  Uiso   1.00
C910   C     0.43782   0.52634   0.98159   0.00000  Uiso   1.00
C911   C     0.49565   0.48547   0.98060   0.00000  Uiso   1.00
C912   C     0.48248   0.48918   0.52259   0.00000  Uiso   1.00
C913   C     0.44279   0.50587   0.54257   0.00000  Uiso   1.00
C914   C     0.42211   0.52536   0.52213   0.00000  Uiso   1.00
H915   H     0.39272   0.53894   0.53823   0.00000  Uiso   1.00
H916   H     0.41229   0.56065   0.90662   0.00000  Uiso   1.00
H917   H     0.51764   0.49436   0.90154   0.00000  Uiso   1.00
H918   H     0.53790   0.45289   0.92888   0.00000  Uiso   1.00
H919   H     0.34396   0.54629   0.69098   0.00000  Uiso   1.00
H920   H     0.37068   0.56218   0.72496   0.00000  Uiso   1.00
H921   H     0.42044   0.43682   0.57422   0.00000  Uiso   1.00
H922   H     0.37402   0.45702   0.56810   0.00000  Uiso   1.00
H923   H     0.35126   0.48051   0.63923   0.00000  Uiso   1.00
H924   H     0.35709   0.42538   0.63107   0.00000  Uiso   1.00
H925   H     0.39828   0.46233   0.64585   0.00000  Uiso   1.00
H926   H     0.59342   0.41613   0.52366   0.00000  Uiso   1.00
H927   H     0.65125   0.47177   0.78317   0.00000  Uiso   1.00
H928   H     0.54166   0.33624   0.71616   0.00000  Uiso   1.00
H929   H     0.45715   0.66537   0.78387   0.00000  Uiso   1.00
H930   H     0.48335   0.50794   0.60053   0.00000  Uiso   1.00
H931   H     0.58089   0.43192   0.59502   0.00000  Uiso   1.00
H932   H     0.57647   0.42373   0.96354   0.00000  Uiso   1.00
H933   H     0.38813   0.56189   0.97820   0.00000  Uiso   1.00
N934   N     0.35872   0.53562   0.70945   0.00000  Uiso   1.00
O935   O     0.50000   0.50000   0.75000   0.00000  Uiso   1.00
O936   O     0.49027   0.45726   0.66625   0.00000  Uiso   1.00
O937   O     0.46020   0.53979   0.83749   0.00000  Uiso   1.00
O938   O     0.54421   0.50826   0.65877   0.00000  Uiso   1.00
O939   O     0.50532   0.49468   0.83749   0.00000  Uiso   1.00
O940   O     0.42199   0.50187   0.58180   0.00000  Uiso   1.00
O941   O     0.51182   0.41434   0.77820   0.00000  Uiso   1.00
O942   O     0.47914   0.59469   0.76767   0.00000  Uiso   1.00
O943   O     0.40785   0.46584   0.73607   0.00000  Uiso   1.00
O944   O     0.60119   0.52512   0.71805   0.00000  Uiso   1.00
O945   O     0.40323   0.52293   0.77820   0.00000  Uiso   1.00
O946   O     0.58773   0.48610   0.76767   0.00000  Uiso   1.00
O947   O     0.47133   0.40236   0.73607   0.00000  Uiso   1.00
O948   O     0.53771   0.58860   0.71805   0.00000  Uiso   1.00
Zn949  Zn    0.52577   0.47423   0.78277   0.00000  Uiso   1.00
Zn950  Zn    0.46792   0.45711   0.72257   0.00000  Uiso   1.00
Zn951  Zn    0.54500   0.52997   0.71188   0.00000  Uiso   1.00
Zn952  Zn    0.46131   0.53868   0.78277   0.00000  Uiso   1.00
C953   C     0.71906   0.49284   0.75918   0.00000  Uiso   1.00
C954   C     0.86230   0.46049   0.96032   0.00000  Uiso   1.00
C955   C     0.88459   0.44274   0.98027   0.00000  Uiso   1.00
C956   C     0.94786   0.50712   0.74115   0.00000  Uiso   1.00
C957   C     0.87599   0.45071   0.52090   0.00000  Uiso   1.00
C958   C     0.84226   0.47494   0.54256   0.00000  Uiso   1.00
C959   C     0.90145   0.43518   0.54002   0.00000  Uiso   1.00
C960   C     0.89472   0.44439   0.58042   0.00000  Uiso   1.00
C961   C     0.83797   0.48579   0.58301   0.00000  Uiso   1.00
C962   C     0.99421   0.51095   0.73781   0.00000  Uiso   1.00
C963   C     0.67388   0.49085   0.76175   0.00000  Uiso   1.00
C964   C     0.76358   0.54607   0.92120   0.00000  Uiso   1.00
C965   C     0.84770   0.65553   0.73809   0.00000  Uiso   1.00
C966   C     0.81820   0.34536   0.76193   0.00000  Uiso   1.00
C967   C     0.82263   0.38943   0.75881   0.00000  Uiso   1.00
C968   C     0.84356   0.61102   0.74132   0.00000  Uiso   1.00
C969   C     0.85482   0.47864   0.64406   0.00000  Uiso   1.00
C970   C     0.81198   0.52093   0.85618   0.00000  Uiso   1.00
C971   C     0.79956   0.52594   0.89949   0.00000  Uiso   1.00
C972   C     0.86321   0.46991   0.60171   0.00000  Uiso   1.00
C973   C     0.74965   0.54649   0.96199   0.00000  Uiso   1.00
C974   C     0.73181   0.46169   0.58501   0.00000  Uiso   1.00
C975   C     0.82209   0.50734   0.91914   0.00000  Uiso   1.00
C976   C     0.70815   0.45724   0.62803   0.00000  Uiso   1.00
C977   C     0.80773   0.50596   0.96023   0.00000  Uiso   1.00
C978   C     0.77115   0.52634   0.98159   0.00000  Uiso   1.00
C979   C     0.82899   0.48547   0.98060   0.00000  Uiso   1.00
C980   C     0.81581   0.48918   0.52259   0.00000  Uiso   1.00
C981   C     0.77612   0.50587   0.54257   0.00000  Uiso   1.00
C982   C     0.75545   0.52536   0.52213   0.00000  Uiso   1.00
H983   H     0.72606   0.53894   0.53823   0.00000  Uiso   1.00
H984   H     0.74562   0.56065   0.90662   0.00000  Uiso   1.00
H985   H     0.85097   0.49436   0.90154   0.00000  Uiso   1.00
H986   H     0.87123   0.45289   0.92888   0.00000  Uiso   1.00
H987   H     0.67729   0.54629   0.69098   0.00000  Uiso   1.00
H988   H     0.70401   0.56218   0.72496   0.00000  Uiso   1.00
H989   H     0.75378   0.43682   0.57422   0.00000  Uiso   1.00
H990   H     0.70735   0.45702   0.56810   0.00000  Uiso   1.00
H991   H     0.68459   0.48051   0.63923   0.00000  Uiso   1.00
H992   H     0.69042   0.42538   0.63107   0.00000  Uiso   1.00
H993   H     0.73162   0.46233   0.64585   0.00000  Uiso   1.00
H994   H     0.92675   0.41613   0.52366   0.00000  Uiso   1.00
H995   H     0.98458   0.47177   0.78317   0.00000  Uiso   1.00
H996   H     0.87500   0.33624   0.71616   0.00000  Uiso   1.00
H997   H     0.79048   0.66537   0.78387   0.00000  Uiso   1.00
H998   H     0.81668   0.50794   0.60053   0.00000  Uiso   1.00
H999   H     0.91422   0.43192   0.59502   0.00000  Uiso   1.00
H1000  H     0.90980   0.42373   0.96354   0.00000  Uiso   1.00
H1001  H     0.72147   0.56189   0.97820   0.00000  Uiso   1.00
N1002  N     0.69205   0.53562   0.70945   0.00000  Uiso   1.00
O1003  O     0.83333   0.50000   0.75000   0.00000  Uiso   1.00
O1004  O     0.82360   0.45726   0.66625   0.00000  Uiso   1.00
O1005  O     0.79354   0.53979   0.83749   0.00000  Uiso   1.00
O1006  O     0.87755   0.50826   0.65877   0.00000  Uiso   1.00
O1007  O     0.83865   0.49468   0.83749   0.00000  Uiso   1.00
O1008  O     0.75532   0.50187   0.58180   0.00000  Uiso   1.00
O1009  O     0.84515   0.41434   0.77820   0.00000  Uiso   1.00
O1010  O     0.81247   0.59469   0.76767   0.00000  Uiso   1.00
O1011  O     0.74119   0.46584   0.73607   0.00000  Uiso   1.00
O1012  O     0.93452   0.52512   0.71805   0.00000  Uiso   1.00
O1013  O     0.73656   0.52293   0.77820   0.00000  Uiso   1.00
O1014  O     0.92106   0.48610   0.76767   0.00000  Uiso   1.00
O1015  O     0.80467   0.40236   0.73607   0.00000  Uiso   1.00
O1016  O     0.87104   0.58860   0.71805   0.00000  Uiso   1.00
Zn1017 Zn    0.85910   0.47423   0.78277   0.00000  Uiso   1.00
Zn1018 Zn    0.80125   0.45711   0.72257   0.00000  Uiso   1.00
Zn1019 Zn    0.87833   0.52997   0.71188   0.00000  Uiso   1.00
Zn1020 Zn    0.79465   0.53868   0.78277   0.00000  Uiso   1.00
C1021  C     0.05239   0.82618   0.75918   0.00000  Uiso   1.00
C1022  C     0.19563   0.79382   0.96032   0.00000  Uiso   1.00
C1023  C     0.21792   0.77607   0.98027   0.00000  Uiso   1.00
C1024  C     0.28120   0.84045   0.74115   0.00000  Uiso   1.00
C1025  C     0.20932   0.78404   0.52090   0.00000  Uiso   1.00
C1026  C     0.17559   0.80827   0.54256   0.00000  Uiso   1.00
C1027  C     0.23478   0.76851   0.54002   0.00000  Uiso   1.00
C1028  C     0.22806   0.77773   0.58042   0.00000  Uiso   1.00
C1029  C     0.17130   0.81913   0.58301   0.00000  Uiso   1.00
C1030  C     0.32754   0.84428   0.73781   0.00000  Uiso   1.00
C1031  C     0.00721   0.82418   0.76175   0.00000  Uiso   1.00
C1032  C     0.09691   0.87940   0.92120   0.00000  Uiso   1.00
C1033  C     0.18103   0.98887   0.73809   0.00000  Uiso   1.00
C1034  C     0.15154   0.67869   0.76193   0.00000  Uiso   1.00
C1035  C     0.15596   0.72276   0.75881   0.00000  Uiso   1.00
C1036  C     0.17690   0.94435   0.74132   0.00000  Uiso   1.00
C1037  C     0.18815   0.81197   0.64406   0.00000  Uiso   1.00
C1038  C     0.14532   0.85426   0.85618   0.00000  Uiso   1.00
C1039  C     0.13289   0.85927   0.89949   0.00000  Uiso   1.00
C1040  C     0.19654   0.80324   0.60171   0.00000  Uiso   1.00
C1041  C     0.08298   0.87982   0.96199   0.00000  Uiso   1.00
C1042  C     0.06514   0.79503   0.58501   0.00000  Uiso   1.00
C1043  C     0.15542   0.84067   0.91914   0.00000  Uiso   1.00
C1044  C     0.04149   0.79057   0.62803   0.00000  Uiso   1.00
C1045  C     0.14106   0.83930   0.96023   0.00000  Uiso   1.00
C1046  C     0.10449   0.85967   0.98159   0.00000  Uiso   1.00
C1047  C     0.16232   0.81880   0.98060   0.00000  Uiso   1.00
C1048  C     0.14914   0.82251   0.52259   0.00000  Uiso   1.00
C1049  C     0.10945   0.83920   0.54257   0.00000  Uiso   1.00
C1050  C     0.08878   0.85869   0.52213   0.00000  Uiso   1.00
H1051  H     0.05939   0.87227   0.53823   0.00000  Uiso   1.00
H1052  H     0.07895   0.89399   0.90662   0.00000  Uiso   1.00
H1053  H     0.18430   0.82769   0.90154   0.00000  Uiso   1.00
H1054  H     0.20457   0.78622   0.92888   0.00000  Uiso   1.00
H1055  H     0.01063   0.87963   0.69098   0.00000  Uiso   1.00
H1056  H     0.03734   0.89551   0.72496   0.00000  Uiso   1.00
H1057  H     0.08711   0.77015   0.57422   0.00000  Uiso   1.00
H1058  H     0.04069   0.79036   0.56810   0.00000  Uiso   1.00
H1059  H     0.01792   0.81384   0.63923   0.00000  Uiso   1.00
H1060  H     0.02376   0.75871   0.63107   0.00000  Uiso   1.00
H1061  H     0.06495   0.79566   0.64585   0.00000  Uiso   1.00
H1062  H     0.26008   0.74946   0.52366   0.00000  Uiso   1.00
H1063  H     0.31791   0.80511   0.78317   0.00000  Uiso   1.00
H1064  H     0.20833   0.66958   0.71616   0.00000  Uiso   1.00
H1065  H     0.12381   0.99871   0.78387   0.00000  Uiso   1.00
H1066  H     0.15002   0.84127   0.60053   0.00000  Uiso   1.00
H1067  H     0.24756   0.76526   0.59502   0.00000  Uiso   1.00
H1068  H     0.24314   0.75706   0.96354   0.00000  Uiso   1.00
H1069  H     0.05480   0.89522   0.97820   0.00000  Uiso   1.00
N1070  N     0.02538   0.86895   0.70945   0.00000  Uiso   1.00
O1071  O     0.16667   0.83333   0.75000   0.00000  Uiso   1.00
O1072  O     0.15693   0.79060   0.66625   0.00000  Uiso   1.00
O1073  O     0.12687   0.87313   0.83749   0.00000  Uiso   1.00
O1074  O     0.21088   0.84159   0.65877   0.00000  Uiso   1.00
O1075  O     0.17198   0.82802   0.83749   0.00000  Uiso   1.00
O1076  O     0.08865   0.83521   0.58180   0.00000  Uiso   1.00
O1077  O     0.17849   0.74768   0.77820   0.00000  Uiso   1.00
O1078  O     0.14581   0.92803   0.76767   0.00000  Uiso   1.00
O1079  O     0.07452   0.79917   0.73607   0.00000  Uiso   1.00
O1080  O     0.26785   0.85845   0.71805   0.00000  Uiso   1.00
O1081  O     0.06990   0.85627   0.77820   0.00000  Uiso   1.00
O1082  O     0.25440   0.81944   0.76767   0.00000  Uiso   1.00
O1083  O     0.13800   0.73570   0.73607   0.00000  Uiso   1.00
O1084  O     0.20437   0.92193   0.71805   0.00000  Uiso   1.00
Zn1085 Zn    0.19244   0.80756   0.78277   0.00000  Uiso   1.00
Zn1086 Zn    0.13459   0.79044   0.72257   0.00000  Uiso   1.00
Zn1087 Zn    0.21166   0.86331   0.71188   0.00000  Uiso   1.00
Zn1088 Zn    0.12798   0.87202   0.78277   0.00000  Uiso   1.00
C1089  C     0.38572   0.82618   0.75918   0.00000  Uiso   1.00
C1090  C     0.52896   0.79382   0.96032   0.00000  Uiso   1.00
C1091  C     0.55126   0.77607   0.98027   0.00000  Uiso   1.00
C1092  C     0.61453   0.84045   0.74115   0.00000  Uiso   1.00
C1093  C     0.54265   0.78404   0.52090   0.00000  Uiso   1.00
C1094  C     0.50892   0.80827   0.54256   0.00000  Uiso   1.00
C1095  C     0.56812   0.76851   0.54002   0.00000  Uiso   1.00
C1096  C     0.56139   0.77773   0.58042   0.00000  Uiso   1.00
C1097  C     0.50464   0.81913   0.58301   0.00000  Uiso   1.00
C1098  C     0.66088   0.84428   0.73781   0.00000  Uiso   1.00
C1099  C     0.34054   0.82418   0.76175   0.00000  Uiso   1.00
C1100  C     0.43024   0.87940   0.92120   0.00000  Uiso   1.00
C1101  C     0.51437   0.98887   0.73809   0.00000  Uiso   1.00
C1102  C     0.48487   0.67869   0.76193   0.00000  Uiso   1.00
C1103  C     0.48930   0.72276   0.75881   0.00000  Uiso   1.00
C1104  C     0.51023   0.94435   0.74132   0.00000  Uiso   1.00
C1105  C     0.52149   0.81197   0.64406   0.00000  Uiso   1.00
C1106  C     0.47865   0.85426   0.85618   0.00000  Uiso   1.00
C1107  C     0.46622   0.85927   0.89949   0.00000  Uiso   1.00
C1108  C     0.52988   0.80324   0.60171   0.00000  Uiso   1.00
C1109  C     0.41632   0.87982   0.96199   0.00000  Uiso   1.00
C1110  C     0.39848   0.79503   0.58501   0.00000  Uiso   1.00
C1111  C     0.48875   0.84067   0.91914   0.00000  Uiso   1.00
C1112  C     0.37482   0.79057   0.62803   0.00000  Uiso   1.00
C1113  C     0.47440   0.83930   0.96023   0.00000  Uiso   1.00
C1114  C     0.43782   0.85967   0.98159   0.00000  Uiso   1.00
C1115  C     0.49565   0.81880   0.98060   0.00000  Uiso   1.00
C1116  C     0.48248   0.82251   0.52259   0.00000  Uiso   1.00
C1117  C     0.44279   0.83920   0.54257   0.00000  Uiso   1.00
C1118  C     0.42211   0.85869   0.52213   0.00000  Uiso   1.00
H1119  H     0.39272   0.87227   0.53823   0.00000  Uiso   1.00
H1120  H     0.41229   0.89399   0.90662   0.00000  Uiso   1.00
H1121  H     0.51764   0.82769   0.90154   0.00000  Uiso   1.00
H1122  H     0.53790   0.78622   0.92888   0.00000  Uiso   1.00
H1123  H     0.34396   0.87963   0.69098   0.00000  Uiso   1.00
H1124  H     0.37068   0.89551   0.72496   0.00000  Uiso   1.00
H1125  H     0.42044   0.77015   0.57422   0.00000  Uiso   1.00
H1126  H     0.37402   0.79036   0.56810   0.00000  Uiso   1.00
H1127  H     0.35126   0.81384   0.63923   0.00000  Uiso   1.00
H1128  H     0.35709   0.75871   0.63107   0.00000  Uiso   1.00
H1129  H     0.39828   0.79566   0.64585   0.00000  Uiso   1.00
H1130  H     0.59342   0.74946   0.52366   0.00000  Uiso   1.00
H1131  H     0.65125   0.80511   0.78317   0.00000  Uiso   1.00
H1132  H     0.54166   0.66958   0.71616   0.00000  Uiso   1.00
H1133  H     0.45715   0.99871   0.78387   0.00000  Uiso   1.00
H1134  H     0.48335   0.84127   0.60053   0.00000  Uiso   1.00
H1135  H     0.58089   0.76526   0.59502   0.00000  Uiso   1.00
H1136  H     0.57647   0.75706   0.96354   0.00000  Uiso   1.00
H1137  H     0.38813   0.89522   0.97820   0.00000  Uiso   1.00
N1138  N     0.35872   0.86895   0.70945   0.00000  Uiso   1.00
O1139  O     0.50000   0.83333   0.75000   0.00000  Uiso   1.00
O1140  O     0.49027   0.79060   0.66625   0.00000  Uiso   1.00
O1141  O     0.46020   0.87313   0.83749   0.00000  Uiso   1.00
O1142  O     0.54421   0.84159   0.65877   0.00000  Uiso   1.00
O1143  O     0.50532   0.82802   0.83749   0.00000  Uiso   1.00
O1144  O     0.42199   0.83521   0.58180   0.00000  Uiso   1.00
O1145  O     0.51182   0.74768   0.77820   0.00000  Uiso   1.00
O1146  O     0.47914   0.92803   0.76767   0.00000  Uiso   1.00
O1147  O     0.40785   0.79917   0.73607   0.00000  Uiso   1.00
O1148  O     0.60119   0.85845   0.71805   0.00000  Uiso   1.00
O1149  O     0.40323   0.85627   0.77820   0.00000  Uiso   1.00
O1150  O     0.58773   0.81944   0.76767   0.00000  Uiso   1.00
O1151  O     0.47133   0.73570   0.73607   0.00000  Uiso   1.00
O1152  O     0.53771   0.92193   0.71805   0.00000  Uiso   1.00
Zn1153 Zn    0.52577   0.80756   0.78277   0.00000  Uiso   1.00
Zn1154 Zn    0.46792   0.79044   0.72257   0.00000  Uiso   1.00
Zn1155 Zn    0.54500   0.86331   0.71188   0.00000  Uiso   1.00
Zn1156 Zn    0.46131   0.87202   0.78277   0.00000  Uiso   1.00
C1157  C     0.71906   0.82618   0.75918   0.00000  Uiso   1.00
C1158  C     0.86230   0.79382   0.96032   0.00000  Uiso   1.00
C1159  C     0.88459   0.77607   0.98027   0.00000  Uiso   1.00
C1160  C     0.94786   0.84045   0.74115   0.00000  Uiso   1.00
C1161  C     0.87599   0.78404   0.52090   0.00000  Uiso   1.00
C1162  C     0.84226   0.80827   0.54256   0.00000  Uiso   1.00
C1163  C     0.90145   0.76851   0.54002   0.00000  Uiso   1.00
C1164  C     0.89472   0.77773   0.58042   0.00000  Uiso   1.00
C1165  C     0.83797   0.81913   0.58301   0.00000  Uiso   1.00
C1166  C     0.99421   0.84428   0.73781   0.00000  Uiso   1.00
C1167  C     0.67388   0.82418   0.76175   0.00000  Uiso   1.00
C1168  C     0.76358   0.87940   0.92120   0.00000  Uiso   1.00
C1169  C     0.84770   0.98887   0.73809   0.00000  Uiso   1.00
C1170  C     0.81820   0.67869   0.76193   0.00000  Uiso   1.00
C1171  C     0.82263   0.72276   0.75881   0.00000  Uiso   1.00
C1172  C     0.84356   0.94435   0.74132   0.00000  Uiso   1.00
C1173  C     0.85482   0.81197   0.64406   0.00000  Uiso   1.00
C1174  C     0.81198   0.85426   0.85618   0.00000  Uiso   1.00
C1175  C     0.79956   0.85927   0.89949   0.00000  Uiso   1.00
C1176  C     0.86321   0.80324   0.60171   0.00000  Uiso   1.00
C1177  C     0.74965   0.87982   0.96199   0.00000  Uiso   1.00
C1178  C     0.73181   0.79503   0.58501   0.00000  Uiso   1.00
C1179  C     0.82209   0.84067   0.91914   0.00000  Uiso   1.00
C1180  C     0.70815   0.79057   0.62803   0.00000  Uiso   1.00
C1181  C     0.80773   0.83930   0.96023   0.00000  Uiso   1.00
C1182  C     0.77115   0.85967   0.98159   0.00000  Uiso   1.00
C1183  C     0.82899   0.81880   0.98060   0.00000  Uiso   1.00
C1184  C     0.81581   0.82251   0.52259   0.00000  Uiso   1.00
C1185  C     0.77612   0.83920   0.54257   0.00000  Uiso   1.00
C1186  C     0.75545   0.85869   0.52213   0.00000  Uiso   1.00
H1187  H     0.72606   0.87227   0.53823   0.00000  Uiso   1.00
H1188  H     0.74562   0.89399   0.90662   0.00000  Uiso   1.00
H1189  H     0.85097   0.82769   0.90154   0.00000  Uiso   1.00
H1190  H     0.87123   0.78622   0.92888   0.00000  Uiso   1.00
H1191  H     0.67729   0.87963   0.69098   0.00000  Uiso   1.00
H1192  H     0.70401   0.89551   0.72496   0.00000  Uiso   1.00
H1193  H     0.75378   0.77015   0.57422   0.00000  Uiso   1.00
H1194  H     0.70735   0.79036   0.56810   0.00000  Uiso   1.00
H1195  H     0.68459   0.81384   0.63923   0.00000  Uiso   1.00
H1196  H     0.69042   0.75871   0.63107   0.00000  Uiso   1.00
H1197  H     0.73162   0.79566   0.64585   0.00000  Uiso   1.00
H1198  H     0.92675   0.74946   0.52366   0.00000  Uiso   1.00
H1199  H     0.98458   0.80511   0.78317   0.00000  Uiso   1.00
H1200  H     0.87500   0.66958   0.71616   0.00000  Uiso   1.00
H1201  H     0.79048   0.99871   0.78387   0.00000  Uiso   1.00
H1202  H     0.81668   0.84127   0.60053   0.00000  Uiso   1.00
H1203  H     0.91422   0.76526   0.59502   0.00000  Uiso   1.00
H1204  H     0.90980   0.75706   0.96354   0.00000  Uiso   1.00
H1205  H     0.72147   0.89522   0.97820   0.00000  Uiso   1.00
N1206  N     0.69205   0.86895   0.70945   0.00000  Uiso   1.00
O1207  O     0.83333   0.83333   0.75000   0.00000  Uiso   1.00
O1208  O     0.82360   0.79060   0.66625   0.00000  Uiso   1.00
O1209  O     0.79354   0.87313   0.83749   0.00000  Uiso   1.00
O1210  O     0.87755   0.84159   0.65877   0.00000  Uiso   1.00
O1211  O     0.83865   0.82802   0.83749   0.00000  Uiso   1.00
O1212  O     0.75532   0.83521   0.58180   0.00000  Uiso   1.00
O1213  O     0.84515   0.74768   0.77820   0.00000  Uiso   1.00
O1214  O     0.81247   0.92803   0.76767   0.00000  Uiso   1.00
O1215  O     0.74119   0.79917   0.73607   0.00000  Uiso   1.00
O1216  O     0.93452   0.85845   0.71805   0.00000  Uiso   1.00
O1217  O     0.73656   0.85627   0.77820   0.00000  Uiso   1.00
O1218  O     0.92106   0.81944   0.76767   0.00000  Uiso   1.00
O1219  O     0.80467   0.73570   0.73607   0.00000  Uiso   1.00
O1220  O     0.87104   0.92193   0.71805   0.00000  Uiso   1.00
Zn1221 Zn    0.85910   0.80756   0.78277   0.00000  Uiso   1.00
Zn1222 Zn    0.80125   0.79044   0.72257   0.00000  Uiso   1.00
Zn1223 Zn    0.87833   0.86331   0.71188   0.00000  Uiso   1.00
Zn1224 Zn    0.79465   0.87202   0.78277   0.00000  Uiso   1.00
loop_
_geom_bond_atom_site_label_1
_geom_bond_atom_site_label_2
_geom_bond_distance
_geom_bond_site_symmetry_2
_ccdc_geom_bond_type
C1     C11     1.440   .     S
C1     O59     1.269   .     A
C1     O61     1.270   .     A
C2     C27     1.415   .     A
C2     C3      1.385   .     A
C2     H34     1.077   .     S
C3     H48     1.084   .     S
C3     C617    1.389   .     S
C4     O60     1.280   .     A
C4     C10     1.467   .     S
C4     O62     1.283   .     A
C5     C6      1.421   .     A
C5     C7      1.404   .     A
C5     C615    1.389   1_554 S
C6     C9      1.409   .     A
C6     C28     1.429   .     A
C7     C8      1.390   .     A
C7     H42     1.084   .     S
C8     C20     1.394   .     A
C8     H47     1.084   .     S
C9     C20     1.393   .     A
C9     H46     1.077   .     S
C10    C79     1.340   .     S
C10    N118    1.443   .     S
C11    C146    1.340   1_455 S
C11    H179    1.086   1_455 S
C12    H32     1.083   .     S
C12    C19     1.400   .     A
C12    C21     1.393   .     A
C13    C16     1.452   .     S
C13    C218    1.332   .     S
C13    H248    1.088   .     S
C14    C15     1.436   .     S
C14    C421    1.332   1_545 S
C14    H453    1.086   1_545 S
C15    O57     1.278   .     A
C15    O63     1.277   .     A
C16    O58     1.270   .     A
C16    O64     1.270   .     A
C17    O54     1.273   .     A
C17    O52     1.271   .     A
C17    C20     1.451   .     S
C18    O55     1.286   .     A
C18    C19     1.472   .     S
C18    O53     1.284   .     A
C19    C23     1.399   .     A
C21    C26     1.404   .     A
C21    H49     1.084   .     S
C22    O56     1.412   .     S
C22    C24     1.521   .     S
C22    H38     1.115   .     S
C22    H37     1.114   .     S
C23    H33     1.076   .     S
C23    C25     1.409   .     A
C24    H41     1.111   .     S
C24    H40     1.110   .     S
C24    H39     1.110   .     S
C25    C27     1.425   .     A
C25    C26     1.416   .     A
C26    C642    1.391   .     S
C27    C640    1.427   .     S
C28    C29     1.428   .     A
C28    C639    1.427   1_554 S
C29    C30     1.393   .     A
C29    O56     1.382   .     S
C30    H31     1.085   .     S
C30    C638    1.391   1_554 S
H35    N50     1.044   .     S
H36    N50     1.046   .     S
H43    C79     1.086   .     S
H44    C421    1.088   1_545 S
H45    C218    1.086   .     S
N50    C146    1.443   1_455 S
O51    Zn68    1.934   .     S
O51    Zn65    1.963   .     S
O51    Zn67    1.931   .     S
O51    Zn66    1.941   .     S
O52    Zn66    1.930   .     S
O53    Zn68    1.941   .     S
O54    Zn67    1.935   .     S
O55    Zn65    1.926   .     S
O57    Zn65    1.927   .     S
O58    Zn68    1.930   .     S
O59    Zn66    1.929   .     S
O60    Zn67    1.939   .     S
O61    Zn68    1.932   .     S
O62    Zn65    1.923   .     S
O63    Zn66    1.938   .     S
O64    Zn67    1.931   .     S
C69    C79     1.440   .     S
C69    O127    1.269   .     A
C69    O129    1.270   .     A
C70    C95     1.415   .     A
C70    C71     1.385   .     A
C70    H102    1.077   .     S
C71    H116    1.084   .     S
C71    C685    1.389   .     S
C72    O128    1.280   .     A
C72    C78     1.467   .     S
C72    O130    1.283   .     A
C73    C74     1.421   .     A
C73    C75     1.404   .     A
C73    C683    1.389   1_554 S
C74    C77     1.409   .     A
C74    C96     1.429   .     A
C75    C76     1.390   .     A
C75    H110    1.084   .     S
C76    C88     1.394   .     A
C76    H115    1.084   .     S
C77    C88     1.393   .     A
C77    H114    1.077   .     S
C78    C147    1.340   .     S
C78    N186    1.443   .     S
C80    H100    1.083   .     S
C80    C87     1.400   .     A
C80    C89     1.393   .     A
C81    C84     1.452   .     S
C81    C286    1.332   .     S
C81    H316    1.088   .     S
C82    C83     1.436   .     S
C82    C489    1.332   1_545 S
C82    H521    1.086   1_545 S
C83    O125    1.278   .     A
C83    O131    1.277   .     A
C84    O126    1.270   .     A
C84    O132    1.270   .     A
C85    O122    1.273   .     A
C85    O120    1.271   .     A
C85    C88     1.451   .     S
C86    O123    1.286   .     A
C86    C87     1.472   .     S
C86    O121    1.284   .     A
C87    C91     1.399   .     A
C89    C94     1.404   .     A
C89    H117    1.084   .     S
C90    O124    1.412   .     S
C90    C92     1.521   .     S
C90    H106    1.115   .     S
C90    H105    1.114   .     S
C91    H101    1.076   .     S
C91    C93     1.409   .     A
C92    H109    1.111   .     S
C92    H108    1.110   .     S
C92    H107    1.110   .     S
C93    C95     1.425   .     A
C93    C94     1.416   .     A
C94    C710    1.391   .     S
C95    C708    1.427   .     S
C96    C97     1.428   .     A
C96    C707    1.427   1_554 S
C97    C98     1.393   .     A
C97    O124    1.382   .     S
C98    H99     1.085   .     S
C98    C706    1.391   1_554 S
H103   N118    1.044   .     S
H104   N118    1.046   .     S
H111   C147    1.086   .     S
H112   C489    1.088   1_545 S
H113   C286    1.086   .     S
O119   Zn136   1.934   .     S
O119   Zn133   1.963   .     S
O119   Zn135   1.931   .     S
O119   Zn134   1.941   .     S
O120   Zn134   1.930   .     S
O121   Zn136   1.941   .     S
O122   Zn135   1.935   .     S
O123   Zn133   1.926   .     S
O125   Zn133   1.927   .     S
O126   Zn136   1.930   .     S
O127   Zn134   1.929   .     S
O128   Zn135   1.939   .     S
O129   Zn136   1.932   .     S
O130   Zn133   1.923   .     S
O131   Zn134   1.938   .     S
O132   Zn135   1.931   .     S
C137   C147    1.440   .     S
C137   O195    1.269   .     A
C137   O197    1.270   .     A
C138   C163    1.415   .     A
C138   C139    1.385   .     A
C138   H170    1.077   .     S
C139   H184    1.084   .     S
C139   C753    1.389   .     S
C140   O196    1.280   .     A
C140   C146    1.467   .     S
C140   O198    1.283   .     A
C141   C142    1.421   .     A
C141   C143    1.404   .     A
C141   C751    1.389   1_554 S
C142   C145    1.409   .     A
C142   C164    1.429   .     A
C143   C144    1.390   .     A
C143   H178    1.084   .     S
C144   C156    1.394   .     A
C144   H183    1.084   .     S
C145   C156    1.393   .     A
C145   H182    1.077   .     S
C146   C11     1.340   1_655 S
C146   N50     1.443   1_655 S
C148   H168    1.083   .     S
C148   C155    1.400   .     A
C148   C157    1.393   .     A
C149   C152    1.452   .     S
C149   C354    1.332   .     S
C149   H384    1.088   .     S
C150   C151    1.436   .     S
C150   C557    1.332   1_545 S
C150   H589    1.086   1_545 S
C151   O193    1.278   .     A
C151   O199    1.277   .     A
C152   O194    1.270   .     A
C152   O200    1.270   .     A
C153   O190    1.273   .     A
C153   O188    1.271   .     A
C153   C156    1.451   .     S
C154   O191    1.286   .     A
C154   C155    1.472   .     S
C154   O189    1.284   .     A
C155   C159    1.399   .     A
C157   C162    1.404   .     A
C157   H185    1.084   .     S
C158   O192    1.412   .     S
C158   C160    1.521   .     S
C158   H174    1.115   .     S
C158   H173    1.114   .     S
C159   H169    1.076   .     S
C159   C161    1.409   .     A
C160   H177    1.111   .     S
C160   H176    1.110   .     S
C160   H175    1.110   .     S
C161   C163    1.425   .     A
C161   C162    1.416   .     A
C162   C778    1.391   .     S
C163   C776    1.427   .     S
C164   C165    1.428   .     A
C164   C775    1.427   1_554 S
C165   C166    1.393   .     A
C165   O192    1.382   .     S
C166   H167    1.085   .     S
C166   C774    1.391   1_554 S
H171   N186    1.044   .     S
H172   N186    1.046   .     S
H179   C11     1.086   1_655 S
H180   C557    1.088   1_545 S
H181   C354    1.086   .     S
O187   Zn204   1.934   .     S
O187   Zn201   1.963   .     S
O187   Zn203   1.931   .     S
O187   Zn202   1.941   .     S
O188   Zn202   1.930   .     S
O189   Zn204   1.941   .     S
O190   Zn203   1.935   .     S
O191   Zn201   1.926   .     S
O193   Zn201   1.927   .     S
O194   Zn204   1.930   .     S
O195   Zn202   1.929   .     S
O196   Zn203   1.939   .     S
O197   Zn204   1.932   .     S
O198   Zn201   1.923   .     S
O199   Zn202   1.938   .     S
O200   Zn203   1.931   .     S
C205   C215    1.440   .     S
C205   O263    1.269   .     A
C205   O265    1.270   .     A
C206   C231    1.415   .     A
C206   C207    1.385   .     A
C206   H238    1.077   .     S
C207   H252    1.084   .     S
C207   C821    1.389   .     S
C208   O264    1.280   .     A
C208   C214    1.467   .     S
C208   O266    1.283   .     A
C209   C210    1.421   .     A
C209   C211    1.404   .     A
C209   C819    1.389   1_554 S
C210   C213    1.409   .     A
C210   C232    1.429   .     A
C211   C212    1.390   .     A
C211   H246    1.084   .     S
C212   C224    1.394   .     A
C212   H251    1.084   .     S
C213   C224    1.393   .     A
C213   H250    1.077   .     S
C214   C283    1.340   .     S
C214   N322    1.443   .     S
C215   C350    1.340   1_455 S
C215   H383    1.086   1_455 S
C216   H236    1.083   .     S
C216   C223    1.400   .     A
C216   C225    1.393   .     A
C217   C220    1.452   .     S
C217   C422    1.332   .     S
C217   H452    1.088   .     S
C218   C219    1.436   .     S
C219   O261    1.278   .     A
C219   O267    1.277   .     A
C220   O262    1.270   .     A
C220   O268    1.270   .     A
C221   O258    1.273   .     A
C221   O256    1.271   .     A
C221   C224    1.451   .     S
C222   O259    1.286   .     A
C222   C223    1.472   .     S
C222   O257    1.284   .     A
C223   C227    1.399   .     A
C225   C230    1.404   .     A
C225   H253    1.084   .     S
C226   O260    1.412   .     S
C226   C228    1.521   .     S
C226   H242    1.115   .     S
C226   H241    1.114   .     S
C227   H237    1.076   .     S
C227   C229    1.409   .     A
C228   H245    1.111   .     S
C228   H244    1.110   .     S
C228   H243    1.110   .     S
C229   C231    1.425   .     A
C229   C230    1.416   .     A
C230   C846    1.391   .     S
C231   C844    1.427   .     S
C232   C233    1.428   .     A
C232   C843    1.427   1_554 S
C233   C234    1.393   .     A
C233   O260    1.382   .     S
C234   H235    1.085   .     S
C234   C842    1.391   1_554 S
H239   N254    1.044   .     S
H240   N254    1.046   .     S
H247   C283    1.086   .     S
H249   C422    1.086   .     S
N254   C350    1.443   1_455 S
O255   Zn272   1.934   .     S
O255   Zn269   1.963   .     S
O255   Zn271   1.931   .     S
O255   Zn270   1.941   .     S
O256   Zn270   1.930   .     S
O257   Zn272   1.941   .     S
O258   Zn271   1.935   .     S
O259   Zn269   1.926   .     S
O261   Zn269   1.927   .     S
O262   Zn272   1.930   .     S
O263   Zn270   1.929   .     S
O264   Zn271   1.939   .     S
O265   Zn272   1.932   .     S
O266   Zn269   1.923   .     S
O267   Zn270   1.938   .     S
O268   Zn271   1.931   .     S
C273   C283    1.440   .     S
C273   O331    1.269   .     A
C273   O333    1.270   .     A
C274   C299    1.415   .     A
C274   C275    1.385   .     A
C274   H306    1.077   .     S
C275   H320    1.084   .     S
C275   C889    1.389   .     S
C276   O332    1.280   .     A
C276   C282    1.467   .     S
C276   O334    1.283   .     A
C277   C278    1.421   .     A
C277   C279    1.404   .     A
C277   C887    1.389   1_554 S
C278   C281    1.409   .     A
C278   C300    1.429   .     A
C279   C280    1.390   .     A
C279   H314    1.084   .     S
C280   C292    1.394   .     A
C280   H319    1.084   .     S
C281   C292    1.393   .     A
C281   H318    1.077   .     S
C282   C351    1.340   .     S
C282   N390    1.443   .     S
C284   H304    1.083   .     S
C284   C291    1.400   .     A
C284   C293    1.393   .     A
C285   C288    1.452   .     S
C285   C490    1.332   .     S
C285   H520    1.088   .     S
C286   C287    1.436   .     S
C287   O329    1.278   .     A
C287   O335    1.277   .     A
C288   O330    1.270   .     A
C288   O336    1.270   .     A
C289   O326    1.273   .     A
C289   O324    1.271   .     A
C289   C292    1.451   .     S
C290   O327    1.286   .     A
C290   C291    1.472   .     S
C290   O325    1.284   .     A
C291   C295    1.399   .     A
C293   C298    1.404   .     A
C293   H321    1.084   .     S
C294   O328    1.412   .     S
C294   C296    1.521   .     S
C294   H310    1.115   .     S
C294   H309    1.114   .     S
C295   H305    1.076   .     S
C295   C297    1.409   .     A
C296   H313    1.111   .     S
C296   H312    1.110   .     S
C296   H311    1.110   .     S
C297   C299    1.425   .     A
C297   C298    1.416   .     A
C298   C914    1.391   .     S
C299   C912    1.427   .     S
C300   C301    1.428   .     A
C300   C911    1.427   1_554 S
C301   C302    1.393   .     A
C301   O328    1.382   .     S
C302   H303    1.085   .     S
C302   C910    1.391   1_554 S
H307   N322    1.044   .     S
H308   N322    1.046   .     S
H315   C351    1.086   .     S
H317   C490    1.086   .     S
O323   Zn340   1.934   .     S
O323   Zn337   1.963   .     S
O323   Zn339   1.931   .     S
O323   Zn338   1.941   .     S
O324   Zn338   1.930   .     S
O325   Zn340   1.941   .     S
O326   Zn339   1.935   .     S
O327   Zn337   1.926   .     S
O329   Zn337   1.927   .     S
O330   Zn340   1.930   .     S
O331   Zn338   1.929   .     S
O332   Zn339   1.939   .     S
O333   Zn340   1.932   .     S
O334   Zn337   1.923   .     S
O335   Zn338   1.938   .     S
O336   Zn339   1.931   .     S
C341   C351    1.440   .     S
C341   O399    1.269   .     A
C341   O401    1.270   .     A
C342   C367    1.415   .     A
C342   C343    1.385   .     A
C342   H374    1.077   .     S
C343   H388    1.084   .     S
C343   C957    1.389   .     S
C344   O400    1.280   .     A
C344   C350    1.467   .     S
C344   O402    1.283   .     A
C345   C346    1.421   .     A
C345   C347    1.404   .     A
C345   C955    1.389   1_554 S
C346   C349    1.409   .     A
C346   C368    1.429   .     A
C347   C348    1.390   .     A
C347   H382    1.084   .     S
C348   C360    1.394   .     A
C348   H387    1.084   .     S
C349   C360    1.393   .     A
C349   H386    1.077   .     S
C350   C215    1.340   1_655 S
C350   N254    1.443   1_655 S
C352   H372    1.083   .     S
C352   C359    1.400   .     A
C352   C361    1.393   .     A
C353   C356    1.452   .     S
C353   C558    1.332   .     S
C353   H588    1.088   .     S
C354   C355    1.436   .     S
C355   O397    1.278   .     A
C355   O403    1.277   .     A
C356   O398    1.270   .     A
C356   O404    1.270   .     A
C357   O394    1.273   .     A
C357   O392    1.271   .     A
C357   C360    1.451   .     S
C358   O395    1.286   .     A
C358   C359    1.472   .     S
C358   O393    1.284   .     A
C359   C363    1.399   .     A
C361   C366    1.404   .     A
C361   H389    1.084   .     S
C362   O396    1.412   .     S
C362   C364    1.521   .     S
C362   H378    1.115   .     S
C362   H377    1.114   .     S
C363   H373    1.076   .     S
C363   C365    1.409   .     A
C364   H381    1.111   .     S
C364   H380    1.110   .     S
C364   H379    1.110   .     S
C365   C367    1.425   .     A
C365   C366    1.416   .     A
C366   C982    1.391   .     S
C367   C980    1.427   .     S
C368   C369    1.428   .     A
C368   C979    1.427   1_554 S
C369   C370    1.393   .     A
C369   O396    1.382   .     S
C370   H371    1.085   .     S
C370   C978    1.391   1_554 S
H375   N390    1.044   .     S
H376   N390    1.046   .     S
H383   C215    1.086   1_655 S
H385   C558    1.086   .     S
O391   Zn408   1.934   .     S
O391   Zn405   1.963   .     S
O391   Zn407   1.931   .     S
O391   Zn406   1.941   .     S
O392   Zn406   1.930   .     S
O393   Zn408   1.941   .     S
O394   Zn407   1.935   .     S
O395   Zn405   1.926   .     S
O397   Zn405   1.927   .     S
O398   Zn408   1.930   .     S
O399   Zn406   1.929   .     S
O400   Zn407   1.939   .     S
O401   Zn408   1.932   .     S
O402   Zn405   1.923   .     S
O403   Zn406   1.938   .     S
O404   Zn407   1.931   .     S
C409   C419    1.440   .     S
C409   O467    1.269   .     A
C409   O469    1.270   .     A
C410   C435    1.415   .     A
C410   C411    1.385   .     A
C410   H442    1.077   .     S
C411   H456    1.084   .     S
C411   C1025   1.389   .     S
C412   O468    1.280   .     A
C412   C418    1.467   .     S
C412   O470    1.283   .     A
C413   C414    1.421   .     A
C413   C415    1.404   .     A
C413   C1023   1.389   1_554 S
C414   C417    1.409   .     A
C414   C436    1.429   .     A
C415   C416    1.390   .     A
C415   H450    1.084   .     S
C416   C428    1.394   .     A
C416   H455    1.084   .     S
C417   C428    1.393   .     A
C417   H454    1.077   .     S
C418   C487    1.340   .     S
C418   N526    1.443   .     S
C419   C554    1.340   1_455 S
C419   H587    1.086   1_455 S
C420   H440    1.083   .     S
C420   C427    1.400   .     A
C420   C429    1.393   .     A
C421   C424    1.452   .     S
C421   C14     1.332   1_565 S
C421   H44     1.088   1_565 S
C422   C423    1.436   .     S
C423   O465    1.278   .     A
C423   O471    1.277   .     A
C424   O466    1.270   .     A
C424   O472    1.270   .     A
C425   O462    1.273   .     A
C425   O460    1.271   .     A
C425   C428    1.451   .     S
C426   O463    1.286   .     A
C426   C427    1.472   .     S
C426   O461    1.284   .     A
C427   C431    1.399   .     A
C429   C434    1.404   .     A
C429   H457    1.084   .     S
C430   O464    1.412   .     S
C430   C432    1.521   .     S
C430   H446    1.115   .     S
C430   H445    1.114   .     S
C431   H441    1.076   .     S
C431   C433    1.409   .     A
C432   H449    1.111   .     S
C432   H448    1.110   .     S
C432   H447    1.110   .     S
C433   C435    1.425   .     A
C433   C434    1.416   .     A
C434   C1050   1.391   .     S
C435   C1048   1.427   .     S
C436   C437    1.428   .     A
C436   C1047   1.427   1_554 S
C437   C438    1.393   .     A
C437   O464    1.382   .     S
C438   H439    1.085   .     S
C438   C1046   1.391   1_554 S
H443   N458    1.044   .     S
H444   N458    1.046   .     S
H451   C487    1.086   .     S
H453   C14     1.086   1_565 S
N458   C554    1.443   1_455 S
O459   Zn476   1.934   .     S
O459   Zn473   1.963   .     S
O459   Zn475   1.931   .     S
O459   Zn474   1.941   .     S
O460   Zn474   1.930   .     S
O461   Zn476   1.941   .     S
O462   Zn475   1.935   .     S
O463   Zn473   1.926   .     S
O465   Zn473   1.927   .     S
O466   Zn476   1.930   .     S
O467   Zn474   1.929   .     S
O468   Zn475   1.939   .     S
O469   Zn476   1.932   .     S
O470   Zn473   1.923   .     S
O471   Zn474   1.938   .     S
O472   Zn475   1.931   .     S
C477   C487    1.440   .     S
C477   O535    1.269   .     A
C477   O537    1.270   .     A
C478   C503    1.415   .     A
C478   C479    1.385   .     A
C478   H510    1.077   .     S
C479   H524    1.084   .     S
C479   C1093   1.389   .     S
C480   O536    1.280   .     A
C480   C486    1.467   .     S
C480   O538    1.283   .     A
C481   C482    1.421   .     A
C481   C483    1.404   .     A
C481   C1091   1.389   1_554 S
C482   C485    1.409   .     A
C482   C504    1.429   .     A
C483   C484    1.390   .     A
C483   H518    1.084   .     S
C484   C496    1.394   .     A
C484   H523    1.084   .     S
C485   C496    1.393   .     A
C485   H522    1.077   .     S
C486   C555    1.340   .     S
C486   N594    1.443   .     S
C488   H508    1.083   .     S
C488   C495    1.400   .     A
C488   C497    1.393   .     A
C489   C492    1.452   .     S
C489   C82     1.332   1_565 S
C489   H112    1.088   1_565 S
C490   C491    1.436   .     S
C491   O533    1.278   .     A
C491   O539    1.277   .     A
C492   O534    1.270   .     A
C492   O540    1.270   .     A
C493   O530    1.273   .     A
C493   O528    1.271   .     A
C493   C496    1.451   .     S
C494   O531    1.286   .     A
C494   C495    1.472   .     S
C494   O529    1.284   .     A
C495   C499    1.399   .     A
C497   C502    1.404   .     A
C497   H525    1.084   .     S
C498   O532    1.412   .     S
C498   C500    1.521   .     S
C498   H514    1.115   .     S
C498   H513    1.114   .     S
C499   H509    1.076   .     S
C499   C501    1.409   .     A
C500   H517    1.111   .     S
C500   H516    1.110   .     S
C500   H515    1.110   .     S
C501   C503    1.425   .     A
C501   C502    1.416   .     A
C502   C1118   1.391   .     S
C503   C1116   1.427   .     S
C504   C505    1.428   .     A
C504   C1115   1.427   1_554 S
C505   C506    1.393   .     A
C505   O532    1.382   .     S
C506   H507    1.085   .     S
C506   C1114   1.391   1_554 S
H511   N526    1.044   .     S
H512   N526    1.046   .     S
H519   C555    1.086   .     S
H521   C82     1.086   1_565 S
O527   Zn544   1.934   .     S
O527   Zn541   1.963   .     S
O527   Zn543   1.931   .     S
O527   Zn542   1.941   .     S
O528   Zn542   1.930   .     S
O529   Zn544   1.941   .     S
O530   Zn543   1.935   .     S
O531   Zn541   1.926   .     S
O533   Zn541   1.927   .     S
O534   Zn544   1.930   .     S
O535   Zn542   1.929   .     S
O536   Zn543   1.939   .     S
O537   Zn544   1.932   .     S
O538   Zn541   1.923   .     S
O539   Zn542   1.938   .     S
O540   Zn543   1.931   .     S
C545   C555    1.440   .     S
C545   O603    1.269   .     A
C545   O605    1.270   .     A
C546   C571    1.415   .     A
C546   C547    1.385   .     A
C546   H578    1.077   .     S
C547   H592    1.084   .     S
C547   C1161   1.389   .     S
C548   O604    1.280   .     A
C548   C554    1.467   .     S
C548   O606    1.283   .     A
C549   C550    1.421   .     A
C549   C551    1.404   .     A
C549   C1159   1.389   1_554 S
C550   C553    1.409   .     A
C550   C572    1.429   .     A
C551   C552    1.390   .     A
C551   H586    1.084   .     S
C552   C564    1.394   .     A
C552   H591    1.084   .     S
C553   C564    1.393   .     A
C553   H590    1.077   .     S
C554   C419    1.340   1_655 S
C554   N458    1.443   1_655 S
C556   H576    1.083   .     S
C556   C563    1.400   .     A
C556   C565    1.393   .     A
C557   C560    1.452   .     S
C557   C150    1.332   1_565 S
C557   H180    1.088   1_565 S
C558   C559    1.436   .     S
C559   O601    1.278   .     A
C559   O607    1.277   .     A
C560   O602    1.270   .     A
C560   O608    1.270   .     A
C561   O598    1.273   .     A
C561   O596    1.271   .     A
C561   C564    1.451   .     S
C562   O599    1.286   .     A
C562   C563    1.472   .     S
C562   O597    1.284   .     A
C563   C567    1.399   .     A
C565   C570    1.404   .     A
C565   H593    1.084   .     S
C566   O600    1.412   .     S
C566   C568    1.521   .     S
C566   H582    1.115   .     S
C566   H581    1.114   .     S
C567   H577    1.076   .     S
C567   C569    1.409   .     A
C568   H585    1.111   .     S
C568   H584    1.110   .     S
C568   H583    1.110   .     S
C569   C571    1.425   .     A
C569   C570    1.416   .     A
C570   C1186   1.391   .     S
C571   C1184   1.427   .     S
C572   C573    1.428   .     A
C572   C1183   1.427   1_554 S
C573   C574    1.393   .     A
C573   O600    1.382   .     S
C574   H575    1.085   .     S
C574   C1182   1.391   1_554 S
H579   N594    1.044   .     S
H580   N594    1.046   .     S
H587   C419    1.086   1_655 S
H589   C150    1.086   1_565 S
O595   Zn612   1.934   .     S
O595   Zn609   1.963   .     S
O595   Zn611   1.931   .     S
O595   Zn610   1.941   .     S
O596   Zn610   1.930   .     S
O597   Zn612   1.941   .     S
O598   Zn611   1.935   .     S
O599   Zn609   1.926   .     S
O601   Zn609   1.927   .     S
O602   Zn612   1.930   .     S
O603   Zn610   1.929   .     S
O604   Zn611   1.939   .     S
O605   Zn612   1.932   .     S
O606   Zn609   1.923   .     S
O607   Zn610   1.938   .     S
O608   Zn611   1.931   .     S
C613   C623    1.440   .     S
C613   O671    1.269   .     A
C613   O673    1.270   .     A
C614   C639    1.415   .     A
C614   C615    1.385   .     A
C614   H646    1.077   .     S
C615   H660    1.084   .     S
C615   C5      1.389   1_556 S
C616   O672    1.280   .     A
C616   C622    1.467   .     S
C616   O674    1.283   .     A
C617   C618    1.421   .     A
C617   C619    1.404   .     A
C618   C621    1.409   .     A
C618   C640    1.429   .     A
C619   C620    1.390   .     A
C619   H654    1.084   .     S
C620   C632    1.394   .     A
C620   H659    1.084   .     S
C621   C632    1.393   .     A
C621   H658    1.077   .     S
C622   C691    1.340   .     S
C622   N730    1.443   .     S
C623   C758    1.340   1_455 S
C623   H791    1.086   1_455 S
C624   H644    1.083   .     S
C624   C631    1.400   .     A
C624   C633    1.393   .     A
C625   C628    1.452   .     S
C625   C830    1.332   .     S
C625   H860    1.088   .     S
C626   C627    1.436   .     S
C626   C1033   1.332   1_545 S
C626   H1065   1.086   1_545 S
C627   O669    1.278   .     A
C627   O675    1.277   .     A
C628   O670    1.270   .     A
C628   O676    1.270   .     A
C629   O666    1.273   .     A
C629   O664    1.271   .     A
C629   C632    1.451   .     S
C630   O667    1.286   .     A
C630   C631    1.472   .     S
C630   O665    1.284   .     A
C631   C635    1.399   .     A
C633   C638    1.404   .     A
C633   H661    1.084   .     S
C634   O668    1.412   .     S
C634   C636    1.521   .     S
C634   H650    1.115   .     S
C634   H649    1.114   .     S
C635   H645    1.076   .     S
C635   C637    1.409   .     A
C636   H653    1.111   .     S
C636   H652    1.110   .     S
C636   H651    1.110   .     S
C637   C639    1.425   .     A
C637   C638    1.416   .     A
C638   C30     1.391   1_556 S
C639   C28     1.427   1_556 S
C640   C641    1.428   .     A
C641   C642    1.393   .     A
C641   O668    1.382   .     S
C642   H643    1.085   .     S
H647   N662    1.044   .     S
H648   N662    1.046   .     S
H655   C691    1.086   .     S
H656   C1033   1.088   1_545 S
H657   C830    1.086   .     S
N662   C758    1.443   1_455 S
O663   Zn680   1.934   .     S
O663   Zn677   1.963   .     S
O663   Zn679   1.931   .     S
O663   Zn678   1.941   .     S
O664   Zn678   1.930   .     S
O665   Zn680   1.941   .     S
O666   Zn679   1.935   .     S
O667   Zn677   1.926   .     S
O669   Zn677   1.927   .     S
O670   Zn680   1.930   .     S
O671   Zn678   1.929   .     S
O672   Zn679   1.939   .     S
O673   Zn680   1.932   .     S
O674   Zn677   1.923   .     S
O675   Zn678   1.938   .     S
O676   Zn679   1.931   .     S
C681   C691    1.440   .     S
C681   O739    1.269   .     A
C681   O741    1.270   .     A
C682   C707    1.415   .     A
C682   C683    1.385   .     A
C682   H714    1.077   .     S
C683   H728    1.084   .     S
C683   C73     1.389   1_556 S
C684   O740    1.280   .     A
C684   C690    1.467   .     S
C684   O742    1.283   .     A
C685   C686    1.421   .     A
C685   C687    1.404   .     A
C686   C689    1.409   .     A
C686   C708    1.429   .     A
C687   C688    1.390   .     A
C687   H722    1.084   .     S
C688   C700    1.394   .     A
C688   H727    1.084   .     S
C689   C700    1.393   .     A
C689   H726    1.077   .     S
C690   C759    1.340   .     S
C690   N798    1.443   .     S
C692   H712    1.083   .     S
C692   C699    1.400   .     A
C692   C701    1.393   .     A
C693   C696    1.452   .     S
C693   C898    1.332   .     S
C693   H928    1.088   .     S
C694   C695    1.436   .     S
C694   C1101   1.332   1_545 S
C694   H1133   1.086   1_545 S
C695   O737    1.278   .     A
C695   O743    1.277   .     A
C696   O738    1.270   .     A
C696   O744    1.270   .     A
C697   O734    1.273   .     A
C697   O732    1.271   .     A
C697   C700    1.451   .     S
C698   O735    1.286   .     A
C698   C699    1.472   .     S
C698   O733    1.284   .     A
C699   C703    1.399   .     A
C701   C706    1.404   .     A
C701   H729    1.084   .     S
C702   O736    1.412   .     S
C702   C704    1.521   .     S
C702   H718    1.115   .     S
C702   H717    1.114   .     S
C703   H713    1.076   .     S
C703   C705    1.409   .     A
C704   H721    1.111   .     S
C704   H720    1.110   .     S
C704   H719    1.110   .     S
C705   C707    1.425   .     A
C705   C706    1.416   .     A
C706   C98     1.391   1_556 S
C707   C96     1.427   1_556 S
C708   C709    1.428   .     A
C709   C710    1.393   .     A
C709   O736    1.382   .     S
C710   H711    1.085   .     S
H715   N730    1.044   .     S
H716   N730    1.046   .     S
H723   C759    1.086   .     S
H724   C1101   1.088   1_545 S
H725   C898    1.086   .     S
O731   Zn748   1.934   .     S
O731   Zn745   1.963   .     S
O731   Zn747   1.931   .     S
O731   Zn746   1.941   .     S
O732   Zn746   1.930   .     S
O733   Zn748   1.941   .     S
O734   Zn747   1.935   .     S
O735   Zn745   1.926   .     S
O737   Zn745   1.927   .     S
O738   Zn748   1.930   .     S
O739   Zn746   1.929   .     S
O740   Zn747   1.939   .     S
O741   Zn748   1.932   .     S
O742   Zn745   1.923   .     S
O743   Zn746   1.938   .     S
O744   Zn747   1.931   .     S
C749   C759    1.440   .     S
C749   O807    1.269   .     A
C749   O809    1.270   .     A
C750   C775    1.415   .     A
C750   C751    1.385   .     A
C750   H782    1.077   .     S
C751   H796    1.084   .     S
C751   C141    1.389   1_556 S
C752   O808    1.280   .     A
C752   C758    1.467   .     S
C752   O810    1.283   .     A
C753   C754    1.421   .     A
C753   C755    1.404   .     A
C754   C757    1.409   .     A
C754   C776    1.429   .     A
C755   C756    1.390   .     A
C755   H790    1.084   .     S
C756   C768    1.394   .     A
C756   H795    1.084   .     S
C757   C768    1.393   .     A
C757   H794    1.077   .     S
C758   C623    1.340   1_655 S
C758   N662    1.443   1_655 S
C760   H780    1.083   .     S
C760   C767    1.400   .     A
C760   C769    1.393   .     A
C761   C764    1.452   .     S
C761   C966    1.332   .     S
C761   H996    1.088   .     S
C762   C763    1.436   .     S
C762   C1169   1.332   1_545 S
C762   H1201   1.086   1_545 S
C763   O805    1.278   .     A
C763   O811    1.277   .     A
C764   O806    1.270   .     A
C764   O812    1.270   .     A
C765   O802    1.273   .     A
C765   O800    1.271   .     A
C765   C768    1.451   .     S
C766   O803    1.286   .     A
C766   C767    1.472   .     S
C766   O801    1.284   .     A
C767   C771    1.399   .     A
C769   C774    1.404   .     A
C769   H797    1.084   .     S
C770   O804    1.412   .     S
C770   C772    1.521   .     S
C770   H786    1.115   .     S
C770   H785    1.114   .     S
C771   H781    1.076   .     S
C771   C773    1.409   .     A
C772   H789    1.111   .     S
C772   H788    1.110   .     S
C772   H787    1.110   .     S
C773   C775    1.425   .     A
C773   C774    1.416   .     A
C774   C166    1.391   1_556 S
C775   C164    1.427   1_556 S
C776   C777    1.428   .     A
C777   C778    1.393   .     A
C777   O804    1.382   .     S
C778   H779    1.085   .     S
H783   N798    1.044   .     S
H784   N798    1.046   .     S
H791   C623    1.086   1_655 S
H792   C1169   1.088   1_545 S
H793   C966    1.086   .     S
O799   Zn816   1.934   .     S
O799   Zn813   1.963   .     S
O799   Zn815   1.931   .     S
O799   Zn814   1.941   .     S
O800   Zn814   1.930   .     S
O801   Zn816   1.941   .     S
O802   Zn815   1.935   .     S
O803   Zn813   1.926   .     S
O805   Zn813   1.927   .     S
O806   Zn816   1.930   .     S
O807   Zn814   1.929   .     S
O808   Zn815   1.939   .     S
O809   Zn816   1.932   .     S
O810   Zn813   1.923   .     S
O811   Zn814   1.938   .     S
O812   Zn815   1.931   .     S
C817   C827    1.440   .     S
C817   O875    1.269   .     A
C817   O877    1.270   .     A
C818   C843    1.415   .     A
C818   C819    1.385   .     A
C818   H850    1.077   .     S
C819   H864    1.084   .     S
C819   C209    1.389   1_556 S
C820   O876    1.280   .     A
C820   C826    1.467   .     S
C820   O878    1.283   .     A
C821   C822    1.421   .     A
C821   C823    1.404   .     A
C822   C825    1.409   .     A
C822   C844    1.429   .     A
C823   C824    1.390   .     A
C823   H858    1.084   .     S
C824   C836    1.394   .     A
C824   H863    1.084   .     S
C825   C836    1.393   .     A
C825   H862    1.077   .     S
C826   C895    1.340   .     S
C826   N934    1.443   .     S
C827   C962    1.340   1_455 S
C827   H995    1.086   1_455 S
C828   H848    1.083   .     S
C828   C835    1.400   .     A
C828   C837    1.393   .     A
C829   C832    1.452   .     S
C829   C1034   1.332   .     S
C829   H1064   1.088   .     S
C830   C831    1.436   .     S
C831   O873    1.278   .     A
C831   O879    1.277   .     A
C832   O874    1.270   .     A
C832   O880    1.270   .     A
C833   O870    1.273   .     A
C833   O868    1.271   .     A
C833   C836    1.451   .     S
C834   O871    1.286   .     A
C834   C835    1.472   .     S
C834   O869    1.284   .     A
C835   C839    1.399   .     A
C837   C842    1.404   .     A
C837   H865    1.084   .     S
C838   O872    1.412   .     S
C838   C840    1.521   .     S
C838   H854    1.115   .     S
C838   H853    1.114   .     S
C839   H849    1.076   .     S
C839   C841    1.409   .     A
C840   H857    1.111   .     S
C840   H856    1.110   .     S
C840   H855    1.110   .     S
C841   C843    1.425   .     A
C841   C842    1.416   .     A
C842   C234    1.391   1_556 S
C843   C232    1.427   1_556 S
C844   C845    1.428   .     A
C845   C846    1.393   .     A
C845   O872    1.382   .     S
C846   H847    1.085   .     S
H851   N866    1.044   .     S
H852   N866    1.046   .     S
H859   C895    1.086   .     S
H861   C1034   1.086   .     S
N866   C962    1.443   1_455 S
O867   Zn884   1.934   .     S
O867   Zn881   1.963   .     S
O867   Zn883   1.931   .     S
O867   Zn882   1.941   .     S
O868   Zn882   1.930   .     S
O869   Zn884   1.941   .     S
O870   Zn883   1.935   .     S
O871   Zn881   1.926   .     S
O873   Zn881   1.927   .     S
O874   Zn884   1.930   .     S
O875   Zn882   1.929   .     S
O876   Zn883   1.939   .     S
O877   Zn884   1.932   .     S
O878   Zn881   1.923   .     S
O879   Zn882   1.938   .     S
O880   Zn883   1.931   .     S
C885   C895    1.440   .     S
C885   O943    1.269   .     A
C885   O945    1.270   .     A
C886   C911    1.415   .     A
C886   C887    1.385   .     A
C886   H918    1.077   .     S
C887   H932    1.084   .     S
C887   C277    1.389   1_556 S
C888   O944    1.280   .     A
C888   C894    1.467   .     S
C888   O946    1.283   .     A
C889   C890    1.421   .     A
C889   C891    1.404   .     A
C890   C893    1.409   .     A
C890   C912    1.429   .     A
C891   C892    1.390   .     A
C891   H926    1.084   .     S
C892   C904    1.394   .     A
C892   H931    1.084   .     S
C893   C904    1.393   .     A
C893   H930    1.077   .     S
C894   C963    1.340   .     S
C894   N1002   1.443   .     S
C896   H916    1.083   .     S
C896   C903    1.400   .     A
C896   C905    1.393   .     A
C897   C900    1.452   .     S
C897   C1102   1.332   .     S
C897   H1132   1.088   .     S
C898   C899    1.436   .     S
C899   O941    1.278   .     A
C899   O947    1.277   .     A
C900   O942    1.270   .     A
C900   O948    1.270   .     A
C901   O938    1.273   .     A
C901   O936    1.271   .     A
C901   C904    1.451   .     S
C902   O939    1.286   .     A
C902   C903    1.472   .     S
C902   O937    1.284   .     A
C903   C907    1.399   .     A
C905   C910    1.404   .     A
C905   H933    1.084   .     S
C906   O940    1.412   .     S
C906   C908    1.521   .     S
C906   H922    1.115   .     S
C906   H921    1.114   .     S
C907   H917    1.076   .     S
C907   C909    1.409   .     A
C908   H925    1.111   .     S
C908   H924    1.110   .     S
C908   H923    1.110   .     S
C909   C911    1.425   .     A
C909   C910    1.416   .     A
C910   C302    1.391   1_556 S
C911   C300    1.427   1_556 S
C912   C913    1.428   .     A
C913   C914    1.393   .     A
C913   O940    1.382   .     S
C914   H915    1.085   .     S
H919   N934    1.044   .     S
H920   N934    1.046   .     S
H927   C963    1.086   .     S
H929   C1102   1.086   .     S
O935   Zn952   1.934   .     S
O935   Zn949   1.963   .     S
O935   Zn951   1.931   .     S
O935   Zn950   1.941   .     S
O936   Zn950   1.930   .     S
O937   Zn952   1.941   .     S
O938   Zn951   1.935   .     S
O939   Zn949   1.926   .     S
O941   Zn949   1.927   .     S
O942   Zn952   1.930   .     S
O943   Zn950   1.929   .     S
O944   Zn951   1.939   .     S
O945   Zn952   1.932   .     S
O946   Zn949   1.923   .     S
O947   Zn950   1.938   .     S
O948   Zn951   1.931   .     S
C953   C963    1.440   .     S
C953   O1011   1.269   .     A
C953   O1013   1.270   .     A
C954   C979    1.415   .     A
C954   C955    1.385   .     A
C954   H986    1.077   .     S
C955   H1000   1.084   .     S
C955   C345    1.389   1_556 S
C956   O1012   1.280   .     A
C956   C962    1.467   .     S
C956   O1014   1.283   .     A
C957   C958    1.421   .     A
C957   C959    1.404   .     A
C958   C961    1.409   .     A
C958   C980    1.429   .     A
C959   C960    1.390   .     A
C959   H994    1.084   .     S
C960   C972    1.394   .     A
C960   H999    1.084   .     S
C961   C972    1.393   .     A
C961   H998    1.077   .     S
C962   C827    1.340   1_655 S
C962   N866    1.443   1_655 S
C964   H984    1.083   .     S
C964   C971    1.400   .     A
C964   C973    1.393   .     A
C965   C968    1.452   .     S
C965   C1170   1.332   .     S
C965   H1200   1.088   .     S
C966   C967    1.436   .     S
C967   O1009   1.278   .     A
C967   O1015   1.277   .     A
C968   O1010   1.270   .     A
C968   O1016   1.270   .     A
C969   O1006   1.273   .     A
C969   O1004   1.271   .     A
C969   C972    1.451   .     S
C970   O1007   1.286   .     A
C970   C971    1.472   .     S
C970   O1005   1.284   .     A
C971   C975    1.399   .     A
C973   C978    1.404   .     A
C973   H1001   1.084   .     S
C974   O1008   1.412   .     S
C974   C976    1.521   .     S
C974   H990    1.115   .     S
C974   H989    1.114   .     S
C975   H985    1.076   .     S
C975   C977    1.409   .     A
C976   H993    1.111   .     S
C976   H992    1.110   .     S
C976   H991    1.110   .     S
C977   C979    1.425   .     A
C977   C978    1.416   .     A
C978   C370    1.391   1_556 S
C979   C368    1.427   1_556 S
C980   C981    1.428   .     A
C981   C982    1.393   .     A
C981   O1008   1.382   .     S
C982   H983    1.085   .     S
H987   N1002   1.044   .     S
H988   N1002   1.046   .     S
H995   C827    1.086   1_655 S
H997   C1170   1.086   .     S
O1003  Zn1020  1.934   .     S
O1003  Zn1017  1.963   .     S
O1003  Zn1019  1.931   .     S
O1003  Zn1018  1.941   .     S
O1004  Zn1018  1.930   .     S
O1005  Zn1020  1.941   .     S
O1006  Zn1019  1.935   .     S
O1007  Zn1017  1.926   .     S
O1009  Zn1017  1.927   .     S
O1010  Zn1020  1.930   .     S
O1011  Zn1018  1.929   .     S
O1012  Zn1019  1.939   .     S
O1013  Zn1020  1.932   .     S
O1014  Zn1017  1.923   .     S
O1015  Zn1018  1.938   .     S
O1016  Zn1019  1.931   .     S
C1021  C1031   1.440   .     S
C1021  O1079   1.269   .     A
C1021  O1081   1.270   .     A
C1022  C1047   1.415   .     A
C1022  C1023   1.385   .     A
C1022  H1054   1.077   .     S
C1023  H1068   1.084   .     S
C1023  C413    1.389   1_556 S
C1024  O1080   1.280   .     A
C1024  C1030   1.467   .     S
C1024  O1082   1.283   .     A
C1025  C1026   1.421   .     A
C1025  C1027   1.404   .     A
C1026  C1029   1.409   .     A
C1026  C1048   1.429   .     A
C1027  C1028   1.390   .     A
C1027  H1062   1.084   .     S
C1028  C1040   1.394   .     A
C1028  H1067   1.084   .     S
C1029  C1040   1.393   .     A
C1029  H1066   1.077   .     S
C1030  C1099   1.340   .     S
C1030  N1138   1.443   .     S
C1031  C1166   1.340   1_455 S
C1031  H1199   1.086   1_455 S
C1032  H1052   1.083   .     S
C1032  C1039   1.400   .     A
C1032  C1041   1.393   .     A
C1033  C1036   1.452   .     S
C1033  C626    1.332   1_565 S
C1033  H656    1.088   1_565 S
C1034  C1035   1.436   .     S
C1035  O1077   1.278   .     A
C1035  O1083   1.277   .     A
C1036  O1078   1.270   .     A
C1036  O1084   1.270   .     A
C1037  O1074   1.273   .     A
C1037  O1072   1.271   .     A
C1037  C1040   1.451   .     S
C1038  O1075   1.286   .     A
C1038  C1039   1.472   .     S
C1038  O1073   1.284   .     A
C1039  C1043   1.399   .     A
C1041  C1046   1.404   .     A
C1041  H1069   1.084   .     S
C1042  O1076   1.412   .     S
C1042  C1044   1.521   .     S
C1042  H1058   1.115   .     S
C1042  H1057   1.114   .     S
C1043  H1053   1.076   .     S
C1043  C1045   1.409   .     A
C1044  H1061   1.111   .     S
C1044  H1060   1.110   .     S
C1044  H1059   1.110   .     S
C1045  C1047   1.425   .     A
C1045  C1046   1.416   .     A
C1046  C438    1.391   1_556 S
C1047  C436    1.427   1_556 S
C1048  C1049   1.428   .     A
C1049  C1050   1.393   .     A
C1049  O1076   1.382   .     S
C1050  H1051   1.085   .     S
H1055  N1070   1.044   .     S
H1056  N1070   1.046   .     S
H1063  C1099   1.086   .     S
H1065  C626    1.086   1_565 S
N1070  C1166   1.443   1_455 S
O1071  Zn1088  1.934   .     S
O1071  Zn1085  1.963   .     S
O1071  Zn1087  1.931   .     S
O1071  Zn1086  1.941   .     S
O1072  Zn1086  1.930   .     S
O1073  Zn1088  1.941   .     S
O1074  Zn1087  1.935   .     S
O1075  Zn1085  1.926   .     S
O1077  Zn1085  1.927   .     S
O1078  Zn1088  1.930   .     S
O1079  Zn1086  1.929   .     S
O1080  Zn1087  1.939   .     S
O1081  Zn1088  1.932   .     S
O1082  Zn1085  1.923   .     S
O1083  Zn1086  1.938   .     S
O1084  Zn1087  1.931   .     S
C1089  C1099   1.440   .     S
C1089  O1147   1.269   .     A
C1089  O1149   1.270   .     A
C1090  C1115   1.415   .     A
C1090  C1091   1.385   .     A
C1090  H1122   1.077   .     S
C1091  H1136   1.084   .     S
C1091  C481    1.389   1_556 S
C1092  O1148   1.280   .     A
C1092  C1098   1.467   .     S
C1092  O1150   1.283   .     A
C1093  C1094   1.421   .     A
C1093  C1095   1.404   .     A
C1094  C1097   1.409   .     A
C1094  C1116   1.429   .     A
C1095  C1096   1.390   .     A
C1095  H1130   1.084   .     S
C1096  C1108   1.394   .     A
C1096  H1135   1.084   .     S
C1097  C1108   1.393   .     A
C1097  H1134   1.077   .     S
C1098  C1167   1.340   .     S
C1098  N1206   1.443   .     S
C1100  H1120   1.083   .     S
C1100  C1107   1.400   .     A
C1100  C1109   1.393   .     A
C1101  C1104   1.452   .     S
C1101  C694    1.332   1_565 S
C1101  H724    1.088   1_565 S
C1102  C1103   1.436   .     S
C1103  O1145   1.278   .     A
C1103  O1151   1.277   .     A
C1104  O1146   1.270   .     A
C1104  O1152   1.270   .     A
C1105  O1142   1.273   .     A
C1105  O1140   1.271   .     A
C1105  C1108   1.451   .     S
C1106  O1143   1.286   .     A
C1106  C1107   1.472   .     S
C1106  O1141   1.284   .     A
C1107  C1111   1.399   .     A
C1109  C1114   1.404   .     A
C1109  H1137   1.084   .     S
C1110  O1144   1.412   .     S
C1110  C1112   1.521   .     S
C1110  H1126   1.115   .     S
C1110  H1125   1.114   .     S
C1111  H1121   1.076   .     S
C1111  C1113   1.409   .     A
C1112  H1129   1.111   .     S
C1112  H1128   1.110   .     S
C1112  H1127   1.110   .     S
C1113  C1115   1.425   .     A
C1113  C1114   1.416   .     A
C1114  C506    1.391   1_556 S
C1115  C504    1.427   1_556 S
C1116  C1117   1.428   .     A
C1117  C1118   1.393   .     A
C1117  O1144   1.382   .     S
C1118  H1119   1.085   .     S
H1123  N1138   1.044   .     S
H1124  N1138   1.046   .     S
H1131  C1167   1.086   .     S
H1133  C694    1.086   1_565 S
O1139  Zn1156  1.934   .     S
O1139  Zn1153  1.963   .     S
O1139  Zn1155  1.931   .     S
O1139  Zn1154  1.941   .     S
O1140  Zn1154  1.930   .     S
O1141  Zn1156  1.941   .     S
O1142  Zn1155  1.935   .     S
O1143  Zn1153  1.926   .     S
O1145  Zn1153  1.927   .     S
O1146  Zn1156  1.930   .     S
O1147  Zn1154  1.929   .     S
O1148  Zn1155  1.939   .     S
O1149  Zn1156  1.932   .     S
O1150  Zn1153  1.923   .     S
O1151  Zn1154  1.938   .     S
O1152  Zn1155  1.931   .     S
C1157  C1167   1.440   .     S
C1157  O1215   1.269   .     A
C1157  O1217   1.270   .     A
C1158  C1183   1.415   .     A
C1158  C1159   1.385   .     A
C1158  H1190   1.077   .     S
C1159  H1204   1.084   .     S
C1159  C549    1.389   1_556 S
C1160  O1216   1.280   .     A
C1160  C1166   1.467   .     S
C1160  O1218   1.283   .     A
C1161  C1162   1.421   .     A
C1161  C1163   1.404   .     A
C1162  C1165   1.409   .     A
C1162  C1184   1.429   .     A
C1163  C1164   1.390   .     A
C1163  H1198   1.084   .     S
C1164  C1176   1.394   .     A
C1164  H1203   1.084   .     S
C1165  C1176   1.393   .     A
C1165  H1202   1.077   .     S
C1166  C1031   1.340   1_655 S
C1166  N1070   1.443   1_655 S
C1168  H1188   1.083   .     S
C1168  C1175   1.400   .     A
C1168  C1177   1.393   .     A
C1169  C1172   1.452   .     S
C1169  C762    1.332   1_565 S
C1169  H792    1.088   1_565 S
C1170  C1171   1.436   .     S
C1171  O1213   1.278   .     A
C1171  O1219   1.277   .     A
C1172  O1214   1.270   .     A
C1172  O1220   1.270   .     A
C1173  O1210   1.273   .     A
C1173  O1208   1.271   .     A
C1173  C1176   1.451   .     S
C1174  O1211   1.286   .     A
C1174  C1175   1.472   .     S
C1174  O1209   1.284   .     A
C1175  C1179   1.399   .     A
C1177  C1182   1.404   .     A
C1177  H1205   1.084   .     S
C1178  O1212   1.412   .     S
C1178  C1180   1.521   .     S
C1178  H1194   1.115   .     S
C1178  H1193   1.114   .     S
C1179  H1189   1.076   .     S
C1179  C1181   1.409   .     A
C1180  H1197   1.111   .     S
C1180  H1196   1.110   .     S
C1180  H1195   1.110   .     S
C1181  C1183   1.425   .     A
C1181  C1182   1.416   .     A
C1182  C574    1.391   1_556 S
C1183  C572    1.427   1_556 S
C1184  C1185   1.428   .     A
C1185  C1186   1.393   .     A
C1185  O1212   1.382   .     S
C1186  H1187   1.085   .     S
H1191  N1206   1.044   .     S
H1192  N1206   1.046   .     S
H1199  C1031   1.086   1_655 S
H1201  C762    1.086   1_565 S
O1207  Zn1224  1.934   .     S
O1207  Zn1221  1.963   .     S
O1207  Zn1223  1.931   .     S
O1207  Zn1222  1.941   .     S
O1208  Zn1222  1.930   .     S
O1209  Zn1224  1.941   .     S
O1210  Zn1223  1.935   .     S
O1211  Zn1221  1.926   .     S
O1213  Zn1221  1.927   .     S
O1214  Zn1224  1.930   .     S
O1215  Zn1222  1.929   .     S
O1216  Zn1223  1.939   .     S
O1217  Zn1224  1.932   .     S
O1218  Zn1221  1.923   .     S
O1219  Zn1222  1.938   .     S
O1220  Zn1223  1.931   .     S
