data_str_m3_o1_o17_pcu_sym.35
_audit_creation_date              2020-01-03
_audit_creation_method            'Materials Studio'
_symmetry_space_group_name_H-M    'P1'
_symmetry_Int_Tables_number       1
_symmetry_cell_setting            triclinic
loop_
_symmetry_equiv_pos_as_xyz
  x,y,z
_cell_length_a                    32.4519
_cell_length_b                    29.4498
_cell_length_c                    29.8459
_cell_angle_alpha                 89.6691
_cell_angle_beta                  90.0705
_cell_angle_gamma                 91.3204
loop_
_atom_site_label
_atom_site_type_symbol
_atom_site_fract_x
_atom_site_fract_y
_atom_site_fract_z
_atom_site_U_iso_or_equiv
_atom_site_adp_type
_atom_site_occupancy
C1     C     0.08649   0.16597   0.24818   0.00000  Uiso   1.00
C2     C     0.04188   0.16454   0.24717   0.00000  Uiso   1.00
C3     C     0.18217   0.02418   0.28561   0.00000  Uiso   1.00
C4     C     0.15126   0.30916   0.21435   0.00000  Uiso   1.00
C5     C     0.15127   0.02381   0.21433   0.00000  Uiso   1.00
C6     C     0.18228   0.30953   0.28556   0.00000  Uiso   1.00
C7     C     0.16577   0.16655   0.16331   0.00000  Uiso   1.00
C8     C     0.16746   0.16662   0.33666   0.00000  Uiso   1.00
C9     C     0.20510   0.17658   0.40755   0.00000  Uiso   1.00
C10    C     0.13267   0.14601   0.09228   0.00000  Uiso   1.00
C11    C     0.16829   0.16563   0.38487   0.00000  Uiso   1.00
C12    C     0.24665   0.16737   0.25344   0.00000  Uiso   1.00
C13    C     0.16693   0.16462   0.11508   0.00000  Uiso   1.00
C14    C     0.13299   0.14995   0.40766   0.00000  Uiso   1.00
C15    C     0.20447   0.17391   0.09321   0.00000  Uiso   1.00
C16    C     0.13603   0.13840   0.45321   0.00000  Uiso   1.00
C17    C     0.20815   0.16438   0.04715   0.00000  Uiso   1.00
C18    C     0.17252   0.15057   0.47663   0.00000  Uiso   1.00
C19    C     0.17247   0.14975   0.02348   0.00000  Uiso   1.00
C20    C     0.20825   0.16596   0.45350   0.00000  Uiso   1.00
C21    C     0.13620   0.13581   0.04646   0.00000  Uiso   1.00
C22    C     0.10454   0.11308   0.47571   0.00000  Uiso   1.00
C23    C     0.10514   0.11093   0.02292   0.00000  Uiso   1.00
C24    C     0.24641   0.16718   0.02399   0.00000  Uiso   1.00
C25    C     0.23695   0.20602   0.38523   0.00000  Uiso   1.00
C26    C     0.09177   0.14377   0.11477   0.00000  Uiso   1.00
C27    C     0.09190   0.15561   0.38640   0.00000  Uiso   1.00
C28    C     0.23836   0.19684   0.11824   0.00000  Uiso   1.00
C29    C     0.07578   0.08320   0.44969   0.00000  Uiso   1.00
C30    C     0.28582   0.16103   0.04848   0.00000  Uiso   1.00
C31    C     0.07878   0.07683   0.04719   0.00000  Uiso   1.00
C32    C     0.28563   0.16234   0.45185   0.00000  Uiso   1.00
C33    C     0.03974   0.08219   0.27478   0.00000  Uiso   1.00
C34    C     0.24640   0.16786   0.47676   0.00000  Uiso   1.00
C35    C     0.29427   0.25363   0.24024   0.00000  Uiso   1.00
C36    C     0.28829   0.09154   0.29591   0.00000  Uiso   1.00
C37    C     0.04301   0.24154   0.20861   0.00000  Uiso   1.00
C38    C     0.01984   0.12619   0.26483   0.00000  Uiso   1.00
C39    C     0.31347   0.20844   0.24479   0.00000  Uiso   1.00
C40    C     0.31106   0.12939   0.27248   0.00000  Uiso   1.00
C41    C     0.02157   0.20457   0.23460   0.00000  Uiso   1.00
C42    C     0.29099   0.16918   0.25895   0.00000  Uiso   1.00
H43    H     0.27193   0.26346   0.38768   0.00000  Uiso   1.00
H44    H     0.27633   0.30437   0.19955   0.00000  Uiso   1.00
H45    H     0.27400   0.02473   0.29916   0.00000  Uiso   1.00
H46    H     0.07591   0.25886   0.15358   0.00000  Uiso   1.00
H47    H     0.19458   0.04250   0.31406   0.00000  Uiso   1.00
H48    H     0.13901   0.29087   0.18585   0.00000  Uiso   1.00
H49    H     0.13878   0.04180   0.18590   0.00000  Uiso   1.00
H50    H     0.19491   0.29152   0.31392   0.00000  Uiso   1.00
H51    H     0.05602   0.11653   0.16349   0.00000  Uiso   1.00
H52    H     0.03615   0.18388   0.38992   0.00000  Uiso   1.00
H53    H     0.28533   0.18993   0.16133   0.00000  Uiso   1.00
H54    H     0.06925   0.03567   0.40165   0.00000  Uiso   1.00
H55    H     0.31822   0.12216   0.09107   0.00000  Uiso   1.00
H56    H     0.07634   0.02508   0.09180   0.00000  Uiso   1.00
H57    H     0.31599   0.12740   0.40471   0.00000  Uiso   1.00
H58    H     0.06817   0.02751   0.25068   0.00000  Uiso   1.00
N59    N     0.16667   0.28573   0.25000   0.00000  Uiso   1.00
N60    N     0.16667   0.04760   0.25000   0.00000  Uiso   1.00
O61    O     0.10559   0.20487   0.24999   0.00000  Uiso   1.00
O62    O     0.25015   0.24634   0.40581   0.00000  Uiso   1.00
O63    O     0.06306   0.16463   0.09876   0.00000  Uiso   1.00
O64    O     0.08564   0.11658   0.15276   0.00000  Uiso   1.00
O65    O     0.08469   0.14020   0.34930   0.00000  Uiso   1.00
O66    O     0.06179   0.17984   0.40882   0.00000  Uiso   1.00
O67    O     0.24826   0.23613   0.10918   0.00000  Uiso   1.00
O68    O     0.25988   0.17268   0.15071   0.00000  Uiso   1.00
O69    O     0.03857   0.08519   0.45516   0.00000  Uiso   1.00
O70    O     0.09163   0.05383   0.41771   0.00000  Uiso   1.00
O71    O     0.31297   0.19049   0.04708   0.00000  Uiso   1.00
O72    O     0.22774   0.12846   0.25000   0.00000  Uiso   1.00
O73    O     0.29101   0.12187   0.07436   0.00000  Uiso   1.00
O74    O     0.04134   0.07638   0.04274   0.00000  Uiso   1.00
O75    O     0.09720   0.04608   0.07648   0.00000  Uiso   1.00
O76    O     0.31462   0.18891   0.45748   0.00000  Uiso   1.00
O77    O     0.28860   0.12709   0.42094   0.00000  Uiso   1.00
O78    O     0.04122   0.06784   0.31327   0.00000  Uiso   1.00
O79    O     0.05511   0.05642   0.23965   0.00000  Uiso   1.00
O80    O     0.28222   0.27294   0.27375   0.00000  Uiso   1.00
O81    O     0.29005   0.27383   0.19804   0.00000  Uiso   1.00
O82    O     0.26707   0.09962   0.32860   0.00000  Uiso   1.00
O83    O     0.22774   0.20487   0.25000   0.00000  Uiso   1.00
O84    O     0.29058   0.04708   0.28011   0.00000  Uiso   1.00
O85    O     0.04354   0.28059   0.22231   0.00000  Uiso   1.00
O86    O     0.06318   0.23109   0.16881   0.00000  Uiso   1.00
O87    O     0.10559   0.12846   0.24999   0.00000  Uiso   1.00
O88    O     0.16666   0.20489   0.18392   0.00000  Uiso   1.00
O89    O     0.16667   0.12844   0.31607   0.00000  Uiso   1.00
O90    O     0.16667   0.20489   0.31607   0.00000  Uiso   1.00
O91    O     0.16666   0.12844   0.18392   0.00000  Uiso   1.00
O92    O     0.25179   0.19502   0.34947   0.00000  Uiso   1.00
Zn93   Zn    0.16667   0.21771   0.25000   0.00000  Uiso   1.00
Zn94   Zn    0.16667   0.11563   0.25000   0.00000  Uiso   1.00
C95    C     0.41982   0.16597   0.24818   0.00000  Uiso   1.00
C96    C     0.37522   0.16454   0.24717   0.00000  Uiso   1.00
C97    C     0.51551   0.02418   0.28561   0.00000  Uiso   1.00
C98    C     0.48459   0.30916   0.21435   0.00000  Uiso   1.00
C99    C     0.48460   0.02381   0.21433   0.00000  Uiso   1.00
C100   C     0.51561   0.30953   0.28556   0.00000  Uiso   1.00
C101   C     0.49910   0.16655   0.16331   0.00000  Uiso   1.00
C102   C     0.50079   0.16662   0.33666   0.00000  Uiso   1.00
C103   C     0.53843   0.17658   0.40755   0.00000  Uiso   1.00
C104   C     0.46600   0.14601   0.09228   0.00000  Uiso   1.00
C105   C     0.50163   0.16563   0.38487   0.00000  Uiso   1.00
C106   C     0.57998   0.16737   0.25344   0.00000  Uiso   1.00
C107   C     0.50027   0.16462   0.11508   0.00000  Uiso   1.00
C108   C     0.46632   0.14995   0.40766   0.00000  Uiso   1.00
C109   C     0.53781   0.17391   0.09321   0.00000  Uiso   1.00
C110   C     0.46937   0.13840   0.45321   0.00000  Uiso   1.00
C111   C     0.54149   0.16438   0.04715   0.00000  Uiso   1.00
C112   C     0.50585   0.15057   0.47663   0.00000  Uiso   1.00
C113   C     0.50581   0.14975   0.02348   0.00000  Uiso   1.00
C114   C     0.54159   0.16596   0.45350   0.00000  Uiso   1.00
C115   C     0.46954   0.13581   0.04646   0.00000  Uiso   1.00
C116   C     0.43787   0.11308   0.47571   0.00000  Uiso   1.00
C117   C     0.43847   0.11093   0.02292   0.00000  Uiso   1.00
C118   C     0.57974   0.16718   0.02399   0.00000  Uiso   1.00
C119   C     0.57029   0.20602   0.38523   0.00000  Uiso   1.00
C120   C     0.42510   0.14377   0.11477   0.00000  Uiso   1.00
C121   C     0.42524   0.15561   0.38640   0.00000  Uiso   1.00
C122   C     0.57170   0.19684   0.11824   0.00000  Uiso   1.00
C123   C     0.40912   0.08320   0.44969   0.00000  Uiso   1.00
C124   C     0.61916   0.16103   0.04848   0.00000  Uiso   1.00
C125   C     0.41211   0.07683   0.04719   0.00000  Uiso   1.00
C126   C     0.61896   0.16234   0.45185   0.00000  Uiso   1.00
C127   C     0.37308   0.08219   0.27478   0.00000  Uiso   1.00
C128   C     0.57974   0.16786   0.47676   0.00000  Uiso   1.00
C129   C     0.62761   0.25363   0.24024   0.00000  Uiso   1.00
C130   C     0.62162   0.09154   0.29591   0.00000  Uiso   1.00
C131   C     0.37634   0.24154   0.20861   0.00000  Uiso   1.00
C132   C     0.35317   0.12619   0.26483   0.00000  Uiso   1.00
C133   C     0.64681   0.20844   0.24479   0.00000  Uiso   1.00
C134   C     0.64439   0.12939   0.27248   0.00000  Uiso   1.00
C135   C     0.35491   0.20457   0.23460   0.00000  Uiso   1.00
C136   C     0.62433   0.16918   0.25895   0.00000  Uiso   1.00
H137   H     0.60526   0.26346   0.38768   0.00000  Uiso   1.00
H138   H     0.60966   0.30437   0.19955   0.00000  Uiso   1.00
H139   H     0.60734   0.02473   0.29916   0.00000  Uiso   1.00
H140   H     0.40924   0.25886   0.15358   0.00000  Uiso   1.00
H141   H     0.52792   0.04250   0.31406   0.00000  Uiso   1.00
H142   H     0.47235   0.29087   0.18585   0.00000  Uiso   1.00
H143   H     0.47211   0.04180   0.18590   0.00000  Uiso   1.00
H144   H     0.52825   0.29152   0.31392   0.00000  Uiso   1.00
H145   H     0.38935   0.11653   0.16349   0.00000  Uiso   1.00
H146   H     0.36948   0.18388   0.38992   0.00000  Uiso   1.00
H147   H     0.61867   0.18993   0.16133   0.00000  Uiso   1.00
H148   H     0.40258   0.03567   0.40165   0.00000  Uiso   1.00
H149   H     0.65155   0.12216   0.09107   0.00000  Uiso   1.00
H150   H     0.40967   0.02508   0.09180   0.00000  Uiso   1.00
H151   H     0.64933   0.12740   0.40471   0.00000  Uiso   1.00
H152   H     0.40151   0.02751   0.25068   0.00000  Uiso   1.00
N153   N     0.50000   0.28573   0.25000   0.00000  Uiso   1.00
N154   N     0.50000   0.04760   0.25000   0.00000  Uiso   1.00
O155   O     0.43892   0.20487   0.24999   0.00000  Uiso   1.00
O156   O     0.58348   0.24634   0.40581   0.00000  Uiso   1.00
O157   O     0.39639   0.16463   0.09876   0.00000  Uiso   1.00
O158   O     0.41897   0.11658   0.15276   0.00000  Uiso   1.00
O159   O     0.41802   0.14020   0.34930   0.00000  Uiso   1.00
O160   O     0.39513   0.17984   0.40882   0.00000  Uiso   1.00
O161   O     0.58160   0.23613   0.10918   0.00000  Uiso   1.00
O162   O     0.59321   0.17268   0.15071   0.00000  Uiso   1.00
O163   O     0.37190   0.08519   0.45516   0.00000  Uiso   1.00
O164   O     0.42497   0.05383   0.41771   0.00000  Uiso   1.00
O165   O     0.64631   0.19049   0.04708   0.00000  Uiso   1.00
O166   O     0.56108   0.12846   0.25000   0.00000  Uiso   1.00
O167   O     0.62434   0.12187   0.07436   0.00000  Uiso   1.00
O168   O     0.37467   0.07638   0.04274   0.00000  Uiso   1.00
O169   O     0.43053   0.04608   0.07648   0.00000  Uiso   1.00
O170   O     0.64795   0.18891   0.45748   0.00000  Uiso   1.00
O171   O     0.62193   0.12709   0.42094   0.00000  Uiso   1.00
O172   O     0.37456   0.06784   0.31327   0.00000  Uiso   1.00
O173   O     0.38844   0.05642   0.23965   0.00000  Uiso   1.00
O174   O     0.61555   0.27294   0.27375   0.00000  Uiso   1.00
O175   O     0.62338   0.27383   0.19804   0.00000  Uiso   1.00
O176   O     0.60040   0.09962   0.32860   0.00000  Uiso   1.00
O177   O     0.56108   0.20487   0.25000   0.00000  Uiso   1.00
O178   O     0.62392   0.04708   0.28011   0.00000  Uiso   1.00
O179   O     0.37687   0.28059   0.22231   0.00000  Uiso   1.00
O180   O     0.39652   0.23109   0.16881   0.00000  Uiso   1.00
O181   O     0.43892   0.12846   0.24999   0.00000  Uiso   1.00
O182   O     0.49999   0.20489   0.18392   0.00000  Uiso   1.00
O183   O     0.50001   0.12844   0.31607   0.00000  Uiso   1.00
O184   O     0.50001   0.20489   0.31607   0.00000  Uiso   1.00
O185   O     0.49999   0.12844   0.18392   0.00000  Uiso   1.00
O186   O     0.58513   0.19502   0.34947   0.00000  Uiso   1.00
Zn187  Zn    0.50000   0.21771   0.25000   0.00000  Uiso   1.00
Zn188  Zn    0.50000   0.11563   0.25000   0.00000  Uiso   1.00
C189   C     0.75315   0.16597   0.24818   0.00000  Uiso   1.00
C190   C     0.70855   0.16454   0.24717   0.00000  Uiso   1.00
C191   C     0.84884   0.02418   0.28561   0.00000  Uiso   1.00
C192   C     0.81793   0.30916   0.21435   0.00000  Uiso   1.00
C193   C     0.81793   0.02381   0.21433   0.00000  Uiso   1.00
C194   C     0.84894   0.30953   0.28556   0.00000  Uiso   1.00
C195   C     0.83244   0.16655   0.16331   0.00000  Uiso   1.00
C196   C     0.83412   0.16662   0.33666   0.00000  Uiso   1.00
C197   C     0.87177   0.17658   0.40755   0.00000  Uiso   1.00
C198   C     0.79934   0.14601   0.09228   0.00000  Uiso   1.00
C199   C     0.83496   0.16563   0.38487   0.00000  Uiso   1.00
C200   C     0.91331   0.16737   0.25344   0.00000  Uiso   1.00
C201   C     0.83360   0.16462   0.11508   0.00000  Uiso   1.00
C202   C     0.79966   0.14995   0.40766   0.00000  Uiso   1.00
C203   C     0.87114   0.17391   0.09321   0.00000  Uiso   1.00
C204   C     0.80270   0.13840   0.45321   0.00000  Uiso   1.00
C205   C     0.87482   0.16438   0.04715   0.00000  Uiso   1.00
C206   C     0.83918   0.15057   0.47663   0.00000  Uiso   1.00
C207   C     0.83914   0.14975   0.02348   0.00000  Uiso   1.00
C208   C     0.87492   0.16596   0.45350   0.00000  Uiso   1.00
C209   C     0.80287   0.13581   0.04646   0.00000  Uiso   1.00
C210   C     0.77121   0.11308   0.47571   0.00000  Uiso   1.00
C211   C     0.77181   0.11093   0.02292   0.00000  Uiso   1.00
C212   C     0.91307   0.16718   0.02399   0.00000  Uiso   1.00
C213   C     0.90362   0.20602   0.38523   0.00000  Uiso   1.00
C214   C     0.75843   0.14377   0.11477   0.00000  Uiso   1.00
C215   C     0.75857   0.15561   0.38640   0.00000  Uiso   1.00
C216   C     0.90503   0.19684   0.11824   0.00000  Uiso   1.00
C217   C     0.74245   0.08320   0.44969   0.00000  Uiso   1.00
C218   C     0.95249   0.16103   0.04848   0.00000  Uiso   1.00
C219   C     0.74544   0.07683   0.04719   0.00000  Uiso   1.00
C220   C     0.95230   0.16234   0.45185   0.00000  Uiso   1.00
C221   C     0.70641   0.08219   0.27478   0.00000  Uiso   1.00
C222   C     0.91307   0.16786   0.47676   0.00000  Uiso   1.00
C223   C     0.96094   0.25363   0.24024   0.00000  Uiso   1.00
C224   C     0.95496   0.09154   0.29591   0.00000  Uiso   1.00
C225   C     0.70967   0.24154   0.20861   0.00000  Uiso   1.00
C226   C     0.68651   0.12619   0.26483   0.00000  Uiso   1.00
C227   C     0.98014   0.20844   0.24479   0.00000  Uiso   1.00
C228   C     0.97773   0.12939   0.27248   0.00000  Uiso   1.00
C229   C     0.68824   0.20457   0.23460   0.00000  Uiso   1.00
C230   C     0.95766   0.16918   0.25895   0.00000  Uiso   1.00
H231   H     0.93860   0.26346   0.38768   0.00000  Uiso   1.00
H232   H     0.94300   0.30437   0.19955   0.00000  Uiso   1.00
H233   H     0.94067   0.02473   0.29916   0.00000  Uiso   1.00
H234   H     0.74258   0.25886   0.15358   0.00000  Uiso   1.00
H235   H     0.86125   0.04250   0.31406   0.00000  Uiso   1.00
H236   H     0.80568   0.29087   0.18585   0.00000  Uiso   1.00
H237   H     0.80544   0.04180   0.18590   0.00000  Uiso   1.00
H238   H     0.86158   0.29152   0.31392   0.00000  Uiso   1.00
H239   H     0.72268   0.11653   0.16349   0.00000  Uiso   1.00
H240   H     0.70282   0.18388   0.38992   0.00000  Uiso   1.00
H241   H     0.95200   0.18993   0.16133   0.00000  Uiso   1.00
H242   H     0.73591   0.03567   0.40165   0.00000  Uiso   1.00
H243   H     0.98489   0.12216   0.09107   0.00000  Uiso   1.00
H244   H     0.74301   0.02508   0.09180   0.00000  Uiso   1.00
H245   H     0.98266   0.12740   0.40471   0.00000  Uiso   1.00
H246   H     0.73484   0.02751   0.25068   0.00000  Uiso   1.00
N247   N     0.83333   0.28573   0.25000   0.00000  Uiso   1.00
N248   N     0.83333   0.04760   0.25000   0.00000  Uiso   1.00
O249   O     0.77226   0.20487   0.24999   0.00000  Uiso   1.00
O250   O     0.91681   0.24634   0.40581   0.00000  Uiso   1.00
O251   O     0.72973   0.16463   0.09876   0.00000  Uiso   1.00
O252   O     0.75231   0.11658   0.15276   0.00000  Uiso   1.00
O253   O     0.75136   0.14020   0.34930   0.00000  Uiso   1.00
O254   O     0.72846   0.17984   0.40882   0.00000  Uiso   1.00
O255   O     0.91493   0.23613   0.10918   0.00000  Uiso   1.00
O256   O     0.92654   0.17268   0.15071   0.00000  Uiso   1.00
O257   O     0.70523   0.08519   0.45516   0.00000  Uiso   1.00
O258   O     0.75830   0.05383   0.41771   0.00000  Uiso   1.00
O259   O     0.97964   0.19049   0.04708   0.00000  Uiso   1.00
O260   O     0.89441   0.12846   0.25000   0.00000  Uiso   1.00
O261   O     0.95767   0.12187   0.07436   0.00000  Uiso   1.00
O262   O     0.70800   0.07638   0.04274   0.00000  Uiso   1.00
O263   O     0.76387   0.04608   0.07648   0.00000  Uiso   1.00
O264   O     0.98129   0.18891   0.45748   0.00000  Uiso   1.00
O265   O     0.95526   0.12709   0.42094   0.00000  Uiso   1.00
O266   O     0.70789   0.06784   0.31327   0.00000  Uiso   1.00
O267   O     0.72177   0.05642   0.23965   0.00000  Uiso   1.00
O268   O     0.94889   0.27294   0.27375   0.00000  Uiso   1.00
O269   O     0.95672   0.27383   0.19804   0.00000  Uiso   1.00
O270   O     0.93374   0.09962   0.32860   0.00000  Uiso   1.00
O271   O     0.89441   0.20487   0.25000   0.00000  Uiso   1.00
O272   O     0.95725   0.04708   0.28011   0.00000  Uiso   1.00
O273   O     0.71021   0.28059   0.22231   0.00000  Uiso   1.00
O274   O     0.72985   0.23109   0.16881   0.00000  Uiso   1.00
O275   O     0.77226   0.12846   0.24999   0.00000  Uiso   1.00
O276   O     0.83333   0.20489   0.18392   0.00000  Uiso   1.00
O277   O     0.83334   0.12844   0.31607   0.00000  Uiso   1.00
O278   O     0.83334   0.20489   0.31607   0.00000  Uiso   1.00
O279   O     0.83333   0.12844   0.18392   0.00000  Uiso   1.00
O280   O     0.91846   0.19502   0.34947   0.00000  Uiso   1.00
Zn281  Zn    0.83333   0.21771   0.25000   0.00000  Uiso   1.00
Zn282  Zn    0.83333   0.11563   0.25000   0.00000  Uiso   1.00
C283   C     0.08649   0.49931   0.24818   0.00000  Uiso   1.00
C284   C     0.04188   0.49787   0.24717   0.00000  Uiso   1.00
C285   C     0.18217   0.35752   0.28561   0.00000  Uiso   1.00
C286   C     0.15126   0.64250   0.21435   0.00000  Uiso   1.00
C287   C     0.15127   0.35714   0.21433   0.00000  Uiso   1.00
C288   C     0.18228   0.64286   0.28556   0.00000  Uiso   1.00
C289   C     0.16577   0.49988   0.16331   0.00000  Uiso   1.00
C290   C     0.16746   0.49996   0.33666   0.00000  Uiso   1.00
C291   C     0.20510   0.50992   0.40755   0.00000  Uiso   1.00
C292   C     0.13267   0.47934   0.09228   0.00000  Uiso   1.00
C293   C     0.16829   0.49897   0.38487   0.00000  Uiso   1.00
C294   C     0.24665   0.50070   0.25344   0.00000  Uiso   1.00
C295   C     0.16693   0.49796   0.11508   0.00000  Uiso   1.00
C296   C     0.13299   0.48329   0.40766   0.00000  Uiso   1.00
C297   C     0.20447   0.50724   0.09321   0.00000  Uiso   1.00
C298   C     0.13603   0.47174   0.45321   0.00000  Uiso   1.00
C299   C     0.20815   0.49772   0.04715   0.00000  Uiso   1.00
C300   C     0.17252   0.48391   0.47663   0.00000  Uiso   1.00
C301   C     0.17247   0.48308   0.02348   0.00000  Uiso   1.00
C302   C     0.20825   0.49929   0.45350   0.00000  Uiso   1.00
C303   C     0.13620   0.46914   0.04646   0.00000  Uiso   1.00
C304   C     0.10454   0.44641   0.47571   0.00000  Uiso   1.00
C305   C     0.10514   0.44427   0.02292   0.00000  Uiso   1.00
C306   C     0.24641   0.50051   0.02399   0.00000  Uiso   1.00
C307   C     0.23695   0.53935   0.38523   0.00000  Uiso   1.00
C308   C     0.09177   0.47710   0.11477   0.00000  Uiso   1.00
C309   C     0.09190   0.48894   0.38640   0.00000  Uiso   1.00
C310   C     0.23836   0.53017   0.11824   0.00000  Uiso   1.00
C311   C     0.07578   0.41654   0.44969   0.00000  Uiso   1.00
C312   C     0.28582   0.49437   0.04848   0.00000  Uiso   1.00
C313   C     0.07878   0.41016   0.04719   0.00000  Uiso   1.00
C314   C     0.28563   0.49567   0.45185   0.00000  Uiso   1.00
C315   C     0.03974   0.41552   0.27478   0.00000  Uiso   1.00
C316   C     0.24640   0.50120   0.47676   0.00000  Uiso   1.00
C317   C     0.29427   0.58696   0.24024   0.00000  Uiso   1.00
C318   C     0.28829   0.42488   0.29591   0.00000  Uiso   1.00
C319   C     0.04301   0.57487   0.20861   0.00000  Uiso   1.00
C320   C     0.01984   0.45952   0.26483   0.00000  Uiso   1.00
C321   C     0.31347   0.54177   0.24479   0.00000  Uiso   1.00
C322   C     0.31106   0.46273   0.27248   0.00000  Uiso   1.00
C323   C     0.02157   0.53790   0.23460   0.00000  Uiso   1.00
C324   C     0.29099   0.50252   0.25895   0.00000  Uiso   1.00
H325   H     0.27193   0.59679   0.38768   0.00000  Uiso   1.00
H326   H     0.27633   0.63770   0.19955   0.00000  Uiso   1.00
H327   H     0.27400   0.35806   0.29916   0.00000  Uiso   1.00
H328   H     0.07591   0.59220   0.15358   0.00000  Uiso   1.00
H329   H     0.19458   0.37584   0.31406   0.00000  Uiso   1.00
H330   H     0.13901   0.62420   0.18585   0.00000  Uiso   1.00
H331   H     0.13878   0.37514   0.18590   0.00000  Uiso   1.00
H332   H     0.19491   0.62485   0.31392   0.00000  Uiso   1.00
H333   H     0.05602   0.44986   0.16349   0.00000  Uiso   1.00
H334   H     0.03615   0.51722   0.38992   0.00000  Uiso   1.00
H335   H     0.28533   0.52327   0.16133   0.00000  Uiso   1.00
H336   H     0.06925   0.36900   0.40165   0.00000  Uiso   1.00
H337   H     0.31822   0.45550   0.09107   0.00000  Uiso   1.00
H338   H     0.07634   0.35841   0.09180   0.00000  Uiso   1.00
H339   H     0.31599   0.46074   0.40471   0.00000  Uiso   1.00
H340   H     0.06817   0.36084   0.25068   0.00000  Uiso   1.00
N341   N     0.16667   0.61907   0.25000   0.00000  Uiso   1.00
N342   N     0.16667   0.38093   0.25000   0.00000  Uiso   1.00
O343   O     0.10559   0.53821   0.24999   0.00000  Uiso   1.00
O344   O     0.25015   0.57967   0.40581   0.00000  Uiso   1.00
O345   O     0.06306   0.49797   0.09876   0.00000  Uiso   1.00
O346   O     0.08564   0.44991   0.15276   0.00000  Uiso   1.00
O347   O     0.08469   0.47353   0.34930   0.00000  Uiso   1.00
O348   O     0.06179   0.51318   0.40882   0.00000  Uiso   1.00
O349   O     0.24826   0.56947   0.10918   0.00000  Uiso   1.00
O350   O     0.25988   0.50602   0.15071   0.00000  Uiso   1.00
O351   O     0.03857   0.41853   0.45516   0.00000  Uiso   1.00
O352   O     0.09163   0.38716   0.41771   0.00000  Uiso   1.00
O353   O     0.31297   0.52382   0.04708   0.00000  Uiso   1.00
O354   O     0.22774   0.46179   0.25000   0.00000  Uiso   1.00
O355   O     0.29101   0.45520   0.07436   0.00000  Uiso   1.00
O356   O     0.04134   0.40972   0.04274   0.00000  Uiso   1.00
O357   O     0.09720   0.37942   0.07648   0.00000  Uiso   1.00
O358   O     0.31462   0.52225   0.45748   0.00000  Uiso   1.00
O359   O     0.28860   0.46043   0.42094   0.00000  Uiso   1.00
O360   O     0.04122   0.40117   0.31327   0.00000  Uiso   1.00
O361   O     0.05511   0.38975   0.23965   0.00000  Uiso   1.00
O362   O     0.28222   0.60627   0.27375   0.00000  Uiso   1.00
O363   O     0.29005   0.60717   0.19804   0.00000  Uiso   1.00
O364   O     0.26707   0.43296   0.32860   0.00000  Uiso   1.00
O365   O     0.22774   0.53821   0.25000   0.00000  Uiso   1.00
O366   O     0.29058   0.38042   0.28011   0.00000  Uiso   1.00
O367   O     0.04354   0.61392   0.22231   0.00000  Uiso   1.00
O368   O     0.06318   0.56442   0.16881   0.00000  Uiso   1.00
O369   O     0.10559   0.46179   0.24999   0.00000  Uiso   1.00
O370   O     0.16666   0.53823   0.18392   0.00000  Uiso   1.00
O371   O     0.16667   0.46177   0.31607   0.00000  Uiso   1.00
O372   O     0.16667   0.53823   0.31607   0.00000  Uiso   1.00
O373   O     0.16666   0.46177   0.18392   0.00000  Uiso   1.00
O374   O     0.25179   0.52835   0.34947   0.00000  Uiso   1.00
Zn375  Zn    0.16667   0.55104   0.25000   0.00000  Uiso   1.00
Zn376  Zn    0.16667   0.44896   0.25000   0.00000  Uiso   1.00
C377   C     0.41982   0.49931   0.24818   0.00000  Uiso   1.00
C378   C     0.37522   0.49787   0.24717   0.00000  Uiso   1.00
C379   C     0.51551   0.35752   0.28561   0.00000  Uiso   1.00
C380   C     0.48459   0.64250   0.21435   0.00000  Uiso   1.00
C381   C     0.48460   0.35714   0.21433   0.00000  Uiso   1.00
C382   C     0.51561   0.64286   0.28556   0.00000  Uiso   1.00
C383   C     0.49910   0.49988   0.16331   0.00000  Uiso   1.00
C384   C     0.50079   0.49996   0.33666   0.00000  Uiso   1.00
C385   C     0.53843   0.50992   0.40755   0.00000  Uiso   1.00
C386   C     0.46600   0.47934   0.09228   0.00000  Uiso   1.00
C387   C     0.50163   0.49897   0.38487   0.00000  Uiso   1.00
C388   C     0.57998   0.50070   0.25344   0.00000  Uiso   1.00
C389   C     0.50027   0.49796   0.11508   0.00000  Uiso   1.00
C390   C     0.46632   0.48329   0.40766   0.00000  Uiso   1.00
C391   C     0.53781   0.50724   0.09321   0.00000  Uiso   1.00
C392   C     0.46937   0.47174   0.45321   0.00000  Uiso   1.00
C393   C     0.54149   0.49772   0.04715   0.00000  Uiso   1.00
C394   C     0.50585   0.48391   0.47663   0.00000  Uiso   1.00
C395   C     0.50581   0.48308   0.02348   0.00000  Uiso   1.00
C396   C     0.54159   0.49929   0.45350   0.00000  Uiso   1.00
C397   C     0.46954   0.46914   0.04646   0.00000  Uiso   1.00
C398   C     0.43787   0.44641   0.47571   0.00000  Uiso   1.00
C399   C     0.43847   0.44427   0.02292   0.00000  Uiso   1.00
C400   C     0.57974   0.50051   0.02399   0.00000  Uiso   1.00
C401   C     0.57029   0.53935   0.38523   0.00000  Uiso   1.00
C402   C     0.42510   0.47710   0.11477   0.00000  Uiso   1.00
C403   C     0.42524   0.48894   0.38640   0.00000  Uiso   1.00
C404   C     0.57170   0.53017   0.11824   0.00000  Uiso   1.00
C405   C     0.40912   0.41654   0.44969   0.00000  Uiso   1.00
C406   C     0.61916   0.49437   0.04848   0.00000  Uiso   1.00
C407   C     0.41211   0.41016   0.04719   0.00000  Uiso   1.00
C408   C     0.61896   0.49567   0.45185   0.00000  Uiso   1.00
C409   C     0.37308   0.41552   0.27478   0.00000  Uiso   1.00
C410   C     0.57974   0.50120   0.47676   0.00000  Uiso   1.00
C411   C     0.62761   0.58696   0.24024   0.00000  Uiso   1.00
C412   C     0.62162   0.42488   0.29591   0.00000  Uiso   1.00
C413   C     0.37634   0.57487   0.20861   0.00000  Uiso   1.00
C414   C     0.35317   0.45952   0.26483   0.00000  Uiso   1.00
C415   C     0.64681   0.54177   0.24479   0.00000  Uiso   1.00
C416   C     0.64439   0.46273   0.27248   0.00000  Uiso   1.00
C417   C     0.35491   0.53790   0.23460   0.00000  Uiso   1.00
C418   C     0.62433   0.50252   0.25895   0.00000  Uiso   1.00
H419   H     0.60526   0.59679   0.38768   0.00000  Uiso   1.00
H420   H     0.60966   0.63770   0.19955   0.00000  Uiso   1.00
H421   H     0.60734   0.35806   0.29916   0.00000  Uiso   1.00
H422   H     0.40924   0.59220   0.15358   0.00000  Uiso   1.00
H423   H     0.52792   0.37584   0.31406   0.00000  Uiso   1.00
H424   H     0.47235   0.62420   0.18585   0.00000  Uiso   1.00
H425   H     0.47211   0.37514   0.18590   0.00000  Uiso   1.00
H426   H     0.52825   0.62485   0.31392   0.00000  Uiso   1.00
H427   H     0.38935   0.44986   0.16349   0.00000  Uiso   1.00
H428   H     0.36948   0.51722   0.38992   0.00000  Uiso   1.00
H429   H     0.61867   0.52327   0.16133   0.00000  Uiso   1.00
H430   H     0.40258   0.36900   0.40165   0.00000  Uiso   1.00
H431   H     0.65155   0.45550   0.09107   0.00000  Uiso   1.00
H432   H     0.40967   0.35841   0.09180   0.00000  Uiso   1.00
H433   H     0.64933   0.46074   0.40471   0.00000  Uiso   1.00
H434   H     0.40151   0.36084   0.25068   0.00000  Uiso   1.00
N435   N     0.50000   0.61907   0.25000   0.00000  Uiso   1.00
N436   N     0.50000   0.38093   0.25000   0.00000  Uiso   1.00
O437   O     0.43892   0.53821   0.24999   0.00000  Uiso   1.00
O438   O     0.58348   0.57967   0.40581   0.00000  Uiso   1.00
O439   O     0.39639   0.49797   0.09876   0.00000  Uiso   1.00
O440   O     0.41897   0.44991   0.15276   0.00000  Uiso   1.00
O441   O     0.41802   0.47353   0.34930   0.00000  Uiso   1.00
O442   O     0.39513   0.51318   0.40882   0.00000  Uiso   1.00
O443   O     0.58160   0.56947   0.10918   0.00000  Uiso   1.00
O444   O     0.59321   0.50602   0.15071   0.00000  Uiso   1.00
O445   O     0.37190   0.41853   0.45516   0.00000  Uiso   1.00
O446   O     0.42497   0.38716   0.41771   0.00000  Uiso   1.00
O447   O     0.64631   0.52382   0.04708   0.00000  Uiso   1.00
O448   O     0.56108   0.46179   0.25000   0.00000  Uiso   1.00
O449   O     0.62434   0.45520   0.07436   0.00000  Uiso   1.00
O450   O     0.37467   0.40972   0.04274   0.00000  Uiso   1.00
O451   O     0.43053   0.37942   0.07648   0.00000  Uiso   1.00
O452   O     0.64795   0.52225   0.45748   0.00000  Uiso   1.00
O453   O     0.62193   0.46043   0.42094   0.00000  Uiso   1.00
O454   O     0.37456   0.40117   0.31327   0.00000  Uiso   1.00
O455   O     0.38844   0.38975   0.23965   0.00000  Uiso   1.00
O456   O     0.61555   0.60627   0.27375   0.00000  Uiso   1.00
O457   O     0.62338   0.60717   0.19804   0.00000  Uiso   1.00
O458   O     0.60040   0.43296   0.32860   0.00000  Uiso   1.00
O459   O     0.56108   0.53821   0.25000   0.00000  Uiso   1.00
O460   O     0.62392   0.38042   0.28011   0.00000  Uiso   1.00
O461   O     0.37687   0.61392   0.22231   0.00000  Uiso   1.00
O462   O     0.39652   0.56442   0.16881   0.00000  Uiso   1.00
O463   O     0.43892   0.46179   0.24999   0.00000  Uiso   1.00
O464   O     0.49999   0.53823   0.18392   0.00000  Uiso   1.00
O465   O     0.50001   0.46177   0.31607   0.00000  Uiso   1.00
O466   O     0.50001   0.53823   0.31607   0.00000  Uiso   1.00
O467   O     0.49999   0.46177   0.18392   0.00000  Uiso   1.00
O468   O     0.58513   0.52835   0.34947   0.00000  Uiso   1.00
Zn469  Zn    0.50000   0.55104   0.25000   0.00000  Uiso   1.00
Zn470  Zn    0.50000   0.44896   0.25000   0.00000  Uiso   1.00
C471   C     0.75315   0.49931   0.24818   0.00000  Uiso   1.00
C472   C     0.70855   0.49787   0.24717   0.00000  Uiso   1.00
C473   C     0.84884   0.35752   0.28561   0.00000  Uiso   1.00
C474   C     0.81793   0.64250   0.21435   0.00000  Uiso   1.00
C475   C     0.81793   0.35714   0.21433   0.00000  Uiso   1.00
C476   C     0.84894   0.64286   0.28556   0.00000  Uiso   1.00
C477   C     0.83244   0.49988   0.16331   0.00000  Uiso   1.00
C478   C     0.83412   0.49996   0.33666   0.00000  Uiso   1.00
C479   C     0.87177   0.50992   0.40755   0.00000  Uiso   1.00
C480   C     0.79934   0.47934   0.09228   0.00000  Uiso   1.00
C481   C     0.83496   0.49897   0.38487   0.00000  Uiso   1.00
C482   C     0.91331   0.50070   0.25344   0.00000  Uiso   1.00
C483   C     0.83360   0.49796   0.11508   0.00000  Uiso   1.00
C484   C     0.79966   0.48329   0.40766   0.00000  Uiso   1.00
C485   C     0.87114   0.50724   0.09321   0.00000  Uiso   1.00
C486   C     0.80270   0.47174   0.45321   0.00000  Uiso   1.00
C487   C     0.87482   0.49772   0.04715   0.00000  Uiso   1.00
C488   C     0.83918   0.48391   0.47663   0.00000  Uiso   1.00
C489   C     0.83914   0.48308   0.02348   0.00000  Uiso   1.00
C490   C     0.87492   0.49929   0.45350   0.00000  Uiso   1.00
C491   C     0.80287   0.46914   0.04646   0.00000  Uiso   1.00
C492   C     0.77121   0.44641   0.47571   0.00000  Uiso   1.00
C493   C     0.77181   0.44427   0.02292   0.00000  Uiso   1.00
C494   C     0.91307   0.50051   0.02399   0.00000  Uiso   1.00
C495   C     0.90362   0.53935   0.38523   0.00000  Uiso   1.00
C496   C     0.75843   0.47710   0.11477   0.00000  Uiso   1.00
C497   C     0.75857   0.48894   0.38640   0.00000  Uiso   1.00
C498   C     0.90503   0.53017   0.11824   0.00000  Uiso   1.00
C499   C     0.74245   0.41654   0.44969   0.00000  Uiso   1.00
C500   C     0.95249   0.49437   0.04848   0.00000  Uiso   1.00
C501   C     0.74544   0.41016   0.04719   0.00000  Uiso   1.00
C502   C     0.95230   0.49567   0.45185   0.00000  Uiso   1.00
C503   C     0.70641   0.41552   0.27478   0.00000  Uiso   1.00
C504   C     0.91307   0.50120   0.47676   0.00000  Uiso   1.00
C505   C     0.96094   0.58696   0.24024   0.00000  Uiso   1.00
C506   C     0.95496   0.42488   0.29591   0.00000  Uiso   1.00
C507   C     0.70967   0.57487   0.20861   0.00000  Uiso   1.00
C508   C     0.68651   0.45952   0.26483   0.00000  Uiso   1.00
C509   C     0.98014   0.54177   0.24479   0.00000  Uiso   1.00
C510   C     0.97773   0.46273   0.27248   0.00000  Uiso   1.00
C511   C     0.68824   0.53790   0.23460   0.00000  Uiso   1.00
C512   C     0.95766   0.50252   0.25895   0.00000  Uiso   1.00
H513   H     0.93860   0.59679   0.38768   0.00000  Uiso   1.00
H514   H     0.94300   0.63770   0.19955   0.00000  Uiso   1.00
H515   H     0.94067   0.35806   0.29916   0.00000  Uiso   1.00
H516   H     0.74258   0.59220   0.15358   0.00000  Uiso   1.00
H517   H     0.86125   0.37584   0.31406   0.00000  Uiso   1.00
H518   H     0.80568   0.62420   0.18585   0.00000  Uiso   1.00
H519   H     0.80544   0.37514   0.18590   0.00000  Uiso   1.00
H520   H     0.86158   0.62485   0.31392   0.00000  Uiso   1.00
H521   H     0.72268   0.44986   0.16349   0.00000  Uiso   1.00
H522   H     0.70282   0.51722   0.38992   0.00000  Uiso   1.00
H523   H     0.95200   0.52327   0.16133   0.00000  Uiso   1.00
H524   H     0.73591   0.36900   0.40165   0.00000  Uiso   1.00
H525   H     0.98489   0.45550   0.09107   0.00000  Uiso   1.00
H526   H     0.74301   0.35841   0.09180   0.00000  Uiso   1.00
H527   H     0.98266   0.46074   0.40471   0.00000  Uiso   1.00
H528   H     0.73484   0.36084   0.25068   0.00000  Uiso   1.00
N529   N     0.83333   0.61907   0.25000   0.00000  Uiso   1.00
N530   N     0.83333   0.38093   0.25000   0.00000  Uiso   1.00
O531   O     0.77226   0.53821   0.24999   0.00000  Uiso   1.00
O532   O     0.91681   0.57967   0.40581   0.00000  Uiso   1.00
O533   O     0.72973   0.49797   0.09876   0.00000  Uiso   1.00
O534   O     0.75231   0.44991   0.15276   0.00000  Uiso   1.00
O535   O     0.75136   0.47353   0.34930   0.00000  Uiso   1.00
O536   O     0.72846   0.51318   0.40882   0.00000  Uiso   1.00
O537   O     0.91493   0.56947   0.10918   0.00000  Uiso   1.00
O538   O     0.92654   0.50602   0.15071   0.00000  Uiso   1.00
O539   O     0.70523   0.41853   0.45516   0.00000  Uiso   1.00
O540   O     0.75830   0.38716   0.41771   0.00000  Uiso   1.00
O541   O     0.97964   0.52382   0.04708   0.00000  Uiso   1.00
O542   O     0.89441   0.46179   0.25000   0.00000  Uiso   1.00
O543   O     0.95767   0.45520   0.07436   0.00000  Uiso   1.00
O544   O     0.70800   0.40972   0.04274   0.00000  Uiso   1.00
O545   O     0.76387   0.37942   0.07648   0.00000  Uiso   1.00
O546   O     0.98129   0.52225   0.45748   0.00000  Uiso   1.00
O547   O     0.95526   0.46043   0.42094   0.00000  Uiso   1.00
O548   O     0.70789   0.40117   0.31327   0.00000  Uiso   1.00
O549   O     0.72177   0.38975   0.23965   0.00000  Uiso   1.00
O550   O     0.94889   0.60627   0.27375   0.00000  Uiso   1.00
O551   O     0.95672   0.60717   0.19804   0.00000  Uiso   1.00
O552   O     0.93374   0.43296   0.32860   0.00000  Uiso   1.00
O553   O     0.89441   0.53821   0.25000   0.00000  Uiso   1.00
O554   O     0.95725   0.38042   0.28011   0.00000  Uiso   1.00
O555   O     0.71021   0.61392   0.22231   0.00000  Uiso   1.00
O556   O     0.72985   0.56442   0.16881   0.00000  Uiso   1.00
O557   O     0.77226   0.46179   0.24999   0.00000  Uiso   1.00
O558   O     0.83333   0.53823   0.18392   0.00000  Uiso   1.00
O559   O     0.83334   0.46177   0.31607   0.00000  Uiso   1.00
O560   O     0.83334   0.53823   0.31607   0.00000  Uiso   1.00
O561   O     0.83333   0.46177   0.18392   0.00000  Uiso   1.00
O562   O     0.91846   0.52835   0.34947   0.00000  Uiso   1.00
Zn563  Zn    0.83333   0.55104   0.25000   0.00000  Uiso   1.00
Zn564  Zn    0.83333   0.44896   0.25000   0.00000  Uiso   1.00
C565   C     0.08649   0.83264   0.24818   0.00000  Uiso   1.00
C566   C     0.04188   0.83120   0.24717   0.00000  Uiso   1.00
C567   C     0.18217   0.69085   0.28561   0.00000  Uiso   1.00
C568   C     0.15126   0.97583   0.21435   0.00000  Uiso   1.00
C569   C     0.15127   0.69048   0.21433   0.00000  Uiso   1.00
C570   C     0.18228   0.97619   0.28556   0.00000  Uiso   1.00
C571   C     0.16577   0.83321   0.16331   0.00000  Uiso   1.00
C572   C     0.16746   0.83329   0.33666   0.00000  Uiso   1.00
C573   C     0.20510   0.84325   0.40755   0.00000  Uiso   1.00
C574   C     0.13267   0.81268   0.09228   0.00000  Uiso   1.00
C575   C     0.16829   0.83230   0.38487   0.00000  Uiso   1.00
C576   C     0.24665   0.83403   0.25344   0.00000  Uiso   1.00
C577   C     0.16693   0.83129   0.11508   0.00000  Uiso   1.00
C578   C     0.13299   0.81662   0.40766   0.00000  Uiso   1.00
C579   C     0.20447   0.84058   0.09321   0.00000  Uiso   1.00
C580   C     0.13603   0.80507   0.45321   0.00000  Uiso   1.00
C581   C     0.20815   0.83105   0.04715   0.00000  Uiso   1.00
C582   C     0.17252   0.81724   0.47663   0.00000  Uiso   1.00
C583   C     0.17247   0.81641   0.02348   0.00000  Uiso   1.00
C584   C     0.20825   0.83263   0.45350   0.00000  Uiso   1.00
C585   C     0.13620   0.80247   0.04646   0.00000  Uiso   1.00
C586   C     0.10454   0.77975   0.47571   0.00000  Uiso   1.00
C587   C     0.10514   0.77760   0.02292   0.00000  Uiso   1.00
C588   C     0.24641   0.83385   0.02399   0.00000  Uiso   1.00
C589   C     0.23695   0.87268   0.38523   0.00000  Uiso   1.00
C590   C     0.09177   0.81044   0.11477   0.00000  Uiso   1.00
C591   C     0.09190   0.82228   0.38640   0.00000  Uiso   1.00
C592   C     0.23836   0.86351   0.11824   0.00000  Uiso   1.00
C593   C     0.07578   0.74987   0.44969   0.00000  Uiso   1.00
C594   C     0.28582   0.82770   0.04848   0.00000  Uiso   1.00
C595   C     0.07878   0.74349   0.04719   0.00000  Uiso   1.00
C596   C     0.28563   0.82901   0.45185   0.00000  Uiso   1.00
C597   C     0.03974   0.74885   0.27478   0.00000  Uiso   1.00
C598   C     0.24640   0.83453   0.47676   0.00000  Uiso   1.00
C599   C     0.29427   0.92029   0.24024   0.00000  Uiso   1.00
C600   C     0.28829   0.75821   0.29591   0.00000  Uiso   1.00
C601   C     0.04301   0.90821   0.20861   0.00000  Uiso   1.00
C602   C     0.01984   0.79286   0.26483   0.00000  Uiso   1.00
C603   C     0.31347   0.87510   0.24479   0.00000  Uiso   1.00
C604   C     0.31106   0.79606   0.27248   0.00000  Uiso   1.00
C605   C     0.02157   0.87123   0.23460   0.00000  Uiso   1.00
C606   C     0.29099   0.83585   0.25895   0.00000  Uiso   1.00
H607   H     0.27193   0.93012   0.38768   0.00000  Uiso   1.00
H608   H     0.27633   0.97103   0.19955   0.00000  Uiso   1.00
H609   H     0.27400   0.69139   0.29916   0.00000  Uiso   1.00
H610   H     0.07591   0.92553   0.15358   0.00000  Uiso   1.00
H611   H     0.19458   0.70917   0.31406   0.00000  Uiso   1.00
H612   H     0.13901   0.95754   0.18585   0.00000  Uiso   1.00
H613   H     0.13878   0.70847   0.18590   0.00000  Uiso   1.00
H614   H     0.19491   0.95819   0.31392   0.00000  Uiso   1.00
H615   H     0.05602   0.78319   0.16349   0.00000  Uiso   1.00
H616   H     0.03615   0.85055   0.38992   0.00000  Uiso   1.00
H617   H     0.28533   0.85660   0.16133   0.00000  Uiso   1.00
H618   H     0.06925   0.70234   0.40165   0.00000  Uiso   1.00
H619   H     0.31822   0.78883   0.09107   0.00000  Uiso   1.00
H620   H     0.07634   0.69174   0.09180   0.00000  Uiso   1.00
H621   H     0.31599   0.79407   0.40471   0.00000  Uiso   1.00
H622   H     0.06817   0.69417   0.25068   0.00000  Uiso   1.00
N623   N     0.16667   0.95240   0.25000   0.00000  Uiso   1.00
N624   N     0.16667   0.71427   0.25000   0.00000  Uiso   1.00
O625   O     0.10559   0.87154   0.24999   0.00000  Uiso   1.00
O626   O     0.25015   0.91300   0.40581   0.00000  Uiso   1.00
O627   O     0.06306   0.83130   0.09876   0.00000  Uiso   1.00
O628   O     0.08564   0.78324   0.15276   0.00000  Uiso   1.00
O629   O     0.08469   0.80687   0.34930   0.00000  Uiso   1.00
O630   O     0.06179   0.84651   0.40882   0.00000  Uiso   1.00
O631   O     0.24826   0.90280   0.10918   0.00000  Uiso   1.00
O632   O     0.25988   0.83935   0.15071   0.00000  Uiso   1.00
O633   O     0.03857   0.75186   0.45516   0.00000  Uiso   1.00
O634   O     0.09163   0.72050   0.41771   0.00000  Uiso   1.00
O635   O     0.31297   0.85715   0.04708   0.00000  Uiso   1.00
O636   O     0.22774   0.79513   0.25000   0.00000  Uiso   1.00
O637   O     0.29101   0.78854   0.07436   0.00000  Uiso   1.00
O638   O     0.04134   0.74305   0.04274   0.00000  Uiso   1.00
O639   O     0.09720   0.71275   0.07648   0.00000  Uiso   1.00
O640   O     0.31462   0.85558   0.45748   0.00000  Uiso   1.00
O641   O     0.28860   0.79376   0.42094   0.00000  Uiso   1.00
O642   O     0.04122   0.73451   0.31327   0.00000  Uiso   1.00
O643   O     0.05511   0.72308   0.23965   0.00000  Uiso   1.00
O644   O     0.28222   0.93960   0.27375   0.00000  Uiso   1.00
O645   O     0.29005   0.94050   0.19804   0.00000  Uiso   1.00
O646   O     0.26707   0.76629   0.32860   0.00000  Uiso   1.00
O647   O     0.22774   0.87154   0.25000   0.00000  Uiso   1.00
O648   O     0.29058   0.71375   0.28011   0.00000  Uiso   1.00
O649   O     0.04354   0.94725   0.22231   0.00000  Uiso   1.00
O650   O     0.06318   0.89775   0.16881   0.00000  Uiso   1.00
O651   O     0.10559   0.79513   0.24999   0.00000  Uiso   1.00
O652   O     0.16666   0.87156   0.18392   0.00000  Uiso   1.00
O653   O     0.16667   0.79511   0.31607   0.00000  Uiso   1.00
O654   O     0.16667   0.87156   0.31607   0.00000  Uiso   1.00
O655   O     0.16666   0.79511   0.18392   0.00000  Uiso   1.00
O656   O     0.25179   0.86169   0.34947   0.00000  Uiso   1.00
Zn657  Zn    0.16667   0.88437   0.25000   0.00000  Uiso   1.00
Zn658  Zn    0.16667   0.78229   0.25000   0.00000  Uiso   1.00
C659   C     0.41982   0.83264   0.24818   0.00000  Uiso   1.00
C660   C     0.37522   0.83120   0.24717   0.00000  Uiso   1.00
C661   C     0.51551   0.69085   0.28561   0.00000  Uiso   1.00
C662   C     0.48459   0.97583   0.21435   0.00000  Uiso   1.00
C663   C     0.48460   0.69048   0.21433   0.00000  Uiso   1.00
C664   C     0.51561   0.97619   0.28556   0.00000  Uiso   1.00
C665   C     0.49910   0.83321   0.16331   0.00000  Uiso   1.00
C666   C     0.50079   0.83329   0.33666   0.00000  Uiso   1.00
C667   C     0.53843   0.84325   0.40755   0.00000  Uiso   1.00
C668   C     0.46600   0.81268   0.09228   0.00000  Uiso   1.00
C669   C     0.50163   0.83230   0.38487   0.00000  Uiso   1.00
C670   C     0.57998   0.83403   0.25344   0.00000  Uiso   1.00
C671   C     0.50027   0.83129   0.11508   0.00000  Uiso   1.00
C672   C     0.46632   0.81662   0.40766   0.00000  Uiso   1.00
C673   C     0.53781   0.84058   0.09321   0.00000  Uiso   1.00
C674   C     0.46937   0.80507   0.45321   0.00000  Uiso   1.00
C675   C     0.54149   0.83105   0.04715   0.00000  Uiso   1.00
C676   C     0.50585   0.81724   0.47663   0.00000  Uiso   1.00
C677   C     0.50581   0.81641   0.02348   0.00000  Uiso   1.00
C678   C     0.54159   0.83263   0.45350   0.00000  Uiso   1.00
C679   C     0.46954   0.80247   0.04646   0.00000  Uiso   1.00
C680   C     0.43787   0.77975   0.47571   0.00000  Uiso   1.00
C681   C     0.43847   0.77760   0.02292   0.00000  Uiso   1.00
C682   C     0.57974   0.83385   0.02399   0.00000  Uiso   1.00
C683   C     0.57029   0.87268   0.38523   0.00000  Uiso   1.00
C684   C     0.42510   0.81044   0.11477   0.00000  Uiso   1.00
C685   C     0.42524   0.82228   0.38640   0.00000  Uiso   1.00
C686   C     0.57170   0.86351   0.11824   0.00000  Uiso   1.00
C687   C     0.40912   0.74987   0.44969   0.00000  Uiso   1.00
C688   C     0.61916   0.82770   0.04848   0.00000  Uiso   1.00
C689   C     0.41211   0.74349   0.04719   0.00000  Uiso   1.00
C690   C     0.61896   0.82901   0.45185   0.00000  Uiso   1.00
C691   C     0.37308   0.74885   0.27478   0.00000  Uiso   1.00
C692   C     0.57974   0.83453   0.47676   0.00000  Uiso   1.00
C693   C     0.62761   0.92029   0.24024   0.00000  Uiso   1.00
C694   C     0.62162   0.75821   0.29591   0.00000  Uiso   1.00
C695   C     0.37634   0.90821   0.20861   0.00000  Uiso   1.00
C696   C     0.35317   0.79286   0.26483   0.00000  Uiso   1.00
C697   C     0.64681   0.87510   0.24479   0.00000  Uiso   1.00
C698   C     0.64439   0.79606   0.27248   0.00000  Uiso   1.00
C699   C     0.35491   0.87123   0.23460   0.00000  Uiso   1.00
C700   C     0.62433   0.83585   0.25895   0.00000  Uiso   1.00
H701   H     0.60526   0.93012   0.38768   0.00000  Uiso   1.00
H702   H     0.60966   0.97103   0.19955   0.00000  Uiso   1.00
H703   H     0.60734   0.69139   0.29916   0.00000  Uiso   1.00
H704   H     0.40924   0.92553   0.15358   0.00000  Uiso   1.00
H705   H     0.52792   0.70917   0.31406   0.00000  Uiso   1.00
H706   H     0.47235   0.95754   0.18585   0.00000  Uiso   1.00
H707   H     0.47211   0.70847   0.18590   0.00000  Uiso   1.00
H708   H     0.52825   0.95819   0.31392   0.00000  Uiso   1.00
H709   H     0.38935   0.78319   0.16349   0.00000  Uiso   1.00
H710   H     0.36948   0.85055   0.38992   0.00000  Uiso   1.00
H711   H     0.61867   0.85660   0.16133   0.00000  Uiso   1.00
H712   H     0.40258   0.70234   0.40165   0.00000  Uiso   1.00
H713   H     0.65155   0.78883   0.09107   0.00000  Uiso   1.00
H714   H     0.40967   0.69174   0.09180   0.00000  Uiso   1.00
H715   H     0.64933   0.79407   0.40471   0.00000  Uiso   1.00
H716   H     0.40151   0.69417   0.25068   0.00000  Uiso   1.00
N717   N     0.50000   0.95240   0.25000   0.00000  Uiso   1.00
N718   N     0.50000   0.71427   0.25000   0.00000  Uiso   1.00
O719   O     0.43892   0.87154   0.24999   0.00000  Uiso   1.00
O720   O     0.58348   0.91300   0.40581   0.00000  Uiso   1.00
O721   O     0.39639   0.83130   0.09876   0.00000  Uiso   1.00
O722   O     0.41897   0.78324   0.15276   0.00000  Uiso   1.00
O723   O     0.41802   0.80687   0.34930   0.00000  Uiso   1.00
O724   O     0.39513   0.84651   0.40882   0.00000  Uiso   1.00
O725   O     0.58160   0.90280   0.10918   0.00000  Uiso   1.00
O726   O     0.59321   0.83935   0.15071   0.00000  Uiso   1.00
O727   O     0.37190   0.75186   0.45516   0.00000  Uiso   1.00
O728   O     0.42497   0.72050   0.41771   0.00000  Uiso   1.00
O729   O     0.64631   0.85715   0.04708   0.00000  Uiso   1.00
O730   O     0.56108   0.79513   0.25000   0.00000  Uiso   1.00
O731   O     0.62434   0.78854   0.07436   0.00000  Uiso   1.00
O732   O     0.37467   0.74305   0.04274   0.00000  Uiso   1.00
O733   O     0.43053   0.71275   0.07648   0.00000  Uiso   1.00
O734   O     0.64795   0.85558   0.45748   0.00000  Uiso   1.00
O735   O     0.62193   0.79376   0.42094   0.00000  Uiso   1.00
O736   O     0.37456   0.73451   0.31327   0.00000  Uiso   1.00
O737   O     0.38844   0.72308   0.23965   0.00000  Uiso   1.00
O738   O     0.61555   0.93960   0.27375   0.00000  Uiso   1.00
O739   O     0.62338   0.94050   0.19804   0.00000  Uiso   1.00
O740   O     0.60040   0.76629   0.32860   0.00000  Uiso   1.00
O741   O     0.56108   0.87154   0.25000   0.00000  Uiso   1.00
O742   O     0.62392   0.71375   0.28011   0.00000  Uiso   1.00
O743   O     0.37687   0.94725   0.22231   0.00000  Uiso   1.00
O744   O     0.39652   0.89775   0.16881   0.00000  Uiso   1.00
O745   O     0.43892   0.79513   0.24999   0.00000  Uiso   1.00
O746   O     0.49999   0.87156   0.18392   0.00000  Uiso   1.00
O747   O     0.50001   0.79511   0.31607   0.00000  Uiso   1.00
O748   O     0.50001   0.87156   0.31607   0.00000  Uiso   1.00
O749   O     0.49999   0.79511   0.18392   0.00000  Uiso   1.00
O750   O     0.58513   0.86169   0.34947   0.00000  Uiso   1.00
Zn751  Zn    0.50000   0.88437   0.25000   0.00000  Uiso   1.00
Zn752  Zn    0.50000   0.78229   0.25000   0.00000  Uiso   1.00
C753   C     0.75315   0.83264   0.24818   0.00000  Uiso   1.00
C754   C     0.70855   0.83120   0.24717   0.00000  Uiso   1.00
C755   C     0.84884   0.69085   0.28561   0.00000  Uiso   1.00
C756   C     0.81793   0.97583   0.21435   0.00000  Uiso   1.00
C757   C     0.81793   0.69048   0.21433   0.00000  Uiso   1.00
C758   C     0.84894   0.97619   0.28556   0.00000  Uiso   1.00
C759   C     0.83244   0.83321   0.16331   0.00000  Uiso   1.00
C760   C     0.83412   0.83329   0.33666   0.00000  Uiso   1.00
C761   C     0.87177   0.84325   0.40755   0.00000  Uiso   1.00
C762   C     0.79934   0.81268   0.09228   0.00000  Uiso   1.00
C763   C     0.83496   0.83230   0.38487   0.00000  Uiso   1.00
C764   C     0.91331   0.83403   0.25344   0.00000  Uiso   1.00
C765   C     0.83360   0.83129   0.11508   0.00000  Uiso   1.00
C766   C     0.79966   0.81662   0.40766   0.00000  Uiso   1.00
C767   C     0.87114   0.84058   0.09321   0.00000  Uiso   1.00
C768   C     0.80270   0.80507   0.45321   0.00000  Uiso   1.00
C769   C     0.87482   0.83105   0.04715   0.00000  Uiso   1.00
C770   C     0.83918   0.81724   0.47663   0.00000  Uiso   1.00
C771   C     0.83914   0.81641   0.02348   0.00000  Uiso   1.00
C772   C     0.87492   0.83263   0.45350   0.00000  Uiso   1.00
C773   C     0.80287   0.80247   0.04646   0.00000  Uiso   1.00
C774   C     0.77121   0.77975   0.47571   0.00000  Uiso   1.00
C775   C     0.77181   0.77760   0.02292   0.00000  Uiso   1.00
C776   C     0.91307   0.83385   0.02399   0.00000  Uiso   1.00
C777   C     0.90362   0.87268   0.38523   0.00000  Uiso   1.00
C778   C     0.75843   0.81044   0.11477   0.00000  Uiso   1.00
C779   C     0.75857   0.82228   0.38640   0.00000  Uiso   1.00
C780   C     0.90503   0.86351   0.11824   0.00000  Uiso   1.00
C781   C     0.74245   0.74987   0.44969   0.00000  Uiso   1.00
C782   C     0.95249   0.82770   0.04848   0.00000  Uiso   1.00
C783   C     0.74544   0.74349   0.04719   0.00000  Uiso   1.00
C784   C     0.95230   0.82901   0.45185   0.00000  Uiso   1.00
C785   C     0.70641   0.74885   0.27478   0.00000  Uiso   1.00
C786   C     0.91307   0.83453   0.47676   0.00000  Uiso   1.00
C787   C     0.96094   0.92029   0.24024   0.00000  Uiso   1.00
C788   C     0.95496   0.75821   0.29591   0.00000  Uiso   1.00
C789   C     0.70967   0.90821   0.20861   0.00000  Uiso   1.00
C790   C     0.68651   0.79286   0.26483   0.00000  Uiso   1.00
C791   C     0.98014   0.87510   0.24479   0.00000  Uiso   1.00
C792   C     0.97773   0.79606   0.27248   0.00000  Uiso   1.00
C793   C     0.68824   0.87123   0.23460   0.00000  Uiso   1.00
C794   C     0.95766   0.83585   0.25895   0.00000  Uiso   1.00
H795   H     0.93860   0.93012   0.38768   0.00000  Uiso   1.00
H796   H     0.94300   0.97103   0.19955   0.00000  Uiso   1.00
H797   H     0.94067   0.69139   0.29916   0.00000  Uiso   1.00
H798   H     0.74258   0.92553   0.15358   0.00000  Uiso   1.00
H799   H     0.86125   0.70917   0.31406   0.00000  Uiso   1.00
H800   H     0.80568   0.95754   0.18585   0.00000  Uiso   1.00
H801   H     0.80544   0.70847   0.18590   0.00000  Uiso   1.00
H802   H     0.86158   0.95819   0.31392   0.00000  Uiso   1.00
H803   H     0.72268   0.78319   0.16349   0.00000  Uiso   1.00
H804   H     0.70282   0.85055   0.38992   0.00000  Uiso   1.00
H805   H     0.95200   0.85660   0.16133   0.00000  Uiso   1.00
H806   H     0.73591   0.70234   0.40165   0.00000  Uiso   1.00
H807   H     0.98489   0.78883   0.09107   0.00000  Uiso   1.00
H808   H     0.74301   0.69174   0.09180   0.00000  Uiso   1.00
H809   H     0.98266   0.79407   0.40471   0.00000  Uiso   1.00
H810   H     0.73484   0.69417   0.25068   0.00000  Uiso   1.00
N811   N     0.83333   0.95240   0.25000   0.00000  Uiso   1.00
N812   N     0.83333   0.71427   0.25000   0.00000  Uiso   1.00
O813   O     0.77226   0.87154   0.24999   0.00000  Uiso   1.00
O814   O     0.91681   0.91300   0.40581   0.00000  Uiso   1.00
O815   O     0.72973   0.83130   0.09876   0.00000  Uiso   1.00
O816   O     0.75231   0.78324   0.15276   0.00000  Uiso   1.00
O817   O     0.75136   0.80687   0.34930   0.00000  Uiso   1.00
O818   O     0.72846   0.84651   0.40882   0.00000  Uiso   1.00
O819   O     0.91493   0.90280   0.10918   0.00000  Uiso   1.00
O820   O     0.92654   0.83935   0.15071   0.00000  Uiso   1.00
O821   O     0.70523   0.75186   0.45516   0.00000  Uiso   1.00
O822   O     0.75830   0.72050   0.41771   0.00000  Uiso   1.00
O823   O     0.97964   0.85715   0.04708   0.00000  Uiso   1.00
O824   O     0.89441   0.79513   0.25000   0.00000  Uiso   1.00
O825   O     0.95767   0.78854   0.07436   0.00000  Uiso   1.00
O826   O     0.70800   0.74305   0.04274   0.00000  Uiso   1.00
O827   O     0.76387   0.71275   0.07648   0.00000  Uiso   1.00
O828   O     0.98129   0.85558   0.45748   0.00000  Uiso   1.00
O829   O     0.95526   0.79376   0.42094   0.00000  Uiso   1.00
O830   O     0.70789   0.73451   0.31327   0.00000  Uiso   1.00
O831   O     0.72177   0.72308   0.23965   0.00000  Uiso   1.00
O832   O     0.94889   0.93960   0.27375   0.00000  Uiso   1.00
O833   O     0.95672   0.94050   0.19804   0.00000  Uiso   1.00
O834   O     0.93374   0.76629   0.32860   0.00000  Uiso   1.00
O835   O     0.89441   0.87154   0.25000   0.00000  Uiso   1.00
O836   O     0.95725   0.71375   0.28011   0.00000  Uiso   1.00
O837   O     0.71021   0.94725   0.22231   0.00000  Uiso   1.00
O838   O     0.72985   0.89775   0.16881   0.00000  Uiso   1.00
O839   O     0.77226   0.79513   0.24999   0.00000  Uiso   1.00
O840   O     0.83333   0.87156   0.18392   0.00000  Uiso   1.00
O841   O     0.83334   0.79511   0.31607   0.00000  Uiso   1.00
O842   O     0.83334   0.87156   0.31607   0.00000  Uiso   1.00
O843   O     0.83333   0.79511   0.18392   0.00000  Uiso   1.00
O844   O     0.91846   0.86169   0.34947   0.00000  Uiso   1.00
Zn845  Zn    0.83333   0.88437   0.25000   0.00000  Uiso   1.00
Zn846  Zn    0.83333   0.78229   0.25000   0.00000  Uiso   1.00
C847   C     0.08649   0.16597   0.74818   0.00000  Uiso   1.00
C848   C     0.04188   0.16454   0.74717   0.00000  Uiso   1.00
C849   C     0.18217   0.02418   0.78561   0.00000  Uiso   1.00
C850   C     0.15126   0.30916   0.71435   0.00000  Uiso   1.00
C851   C     0.15127   0.02381   0.71433   0.00000  Uiso   1.00
C852   C     0.18228   0.30953   0.78556   0.00000  Uiso   1.00
C853   C     0.16577   0.16655   0.66331   0.00000  Uiso   1.00
C854   C     0.16746   0.16662   0.83666   0.00000  Uiso   1.00
C855   C     0.20510   0.17658   0.90755   0.00000  Uiso   1.00
C856   C     0.13267   0.14601   0.59228   0.00000  Uiso   1.00
C857   C     0.16829   0.16563   0.88487   0.00000  Uiso   1.00
C858   C     0.24665   0.16737   0.75344   0.00000  Uiso   1.00
C859   C     0.16693   0.16462   0.61508   0.00000  Uiso   1.00
C860   C     0.13299   0.14995   0.90766   0.00000  Uiso   1.00
C861   C     0.20447   0.17391   0.59321   0.00000  Uiso   1.00
C862   C     0.13603   0.13840   0.95321   0.00000  Uiso   1.00
C863   C     0.20815   0.16438   0.54715   0.00000  Uiso   1.00
C864   C     0.17252   0.15057   0.97663   0.00000  Uiso   1.00
C865   C     0.17247   0.14975   0.52348   0.00000  Uiso   1.00
C866   C     0.20825   0.16596   0.95350   0.00000  Uiso   1.00
C867   C     0.13620   0.13581   0.54646   0.00000  Uiso   1.00
C868   C     0.10454   0.11308   0.97571   0.00000  Uiso   1.00
C869   C     0.10514   0.11093   0.52292   0.00000  Uiso   1.00
C870   C     0.24641   0.16718   0.52399   0.00000  Uiso   1.00
C871   C     0.23695   0.20602   0.88523   0.00000  Uiso   1.00
C872   C     0.09177   0.14377   0.61477   0.00000  Uiso   1.00
C873   C     0.09190   0.15561   0.88640   0.00000  Uiso   1.00
C874   C     0.23836   0.19684   0.61824   0.00000  Uiso   1.00
C875   C     0.07578   0.08320   0.94969   0.00000  Uiso   1.00
C876   C     0.28582   0.16103   0.54848   0.00000  Uiso   1.00
C877   C     0.07878   0.07683   0.54719   0.00000  Uiso   1.00
C878   C     0.28563   0.16234   0.95185   0.00000  Uiso   1.00
C879   C     0.03974   0.08219   0.77478   0.00000  Uiso   1.00
C880   C     0.24640   0.16786   0.97676   0.00000  Uiso   1.00
C881   C     0.29427   0.25363   0.74024   0.00000  Uiso   1.00
C882   C     0.28829   0.09154   0.79591   0.00000  Uiso   1.00
C883   C     0.04301   0.24154   0.70861   0.00000  Uiso   1.00
C884   C     0.01984   0.12619   0.76483   0.00000  Uiso   1.00
C885   C     0.31347   0.20844   0.74479   0.00000  Uiso   1.00
C886   C     0.31106   0.12939   0.77248   0.00000  Uiso   1.00
C887   C     0.02157   0.20457   0.73460   0.00000  Uiso   1.00
C888   C     0.29099   0.16918   0.75895   0.00000  Uiso   1.00
H889   H     0.27193   0.26346   0.88768   0.00000  Uiso   1.00
H890   H     0.27633   0.30437   0.69955   0.00000  Uiso   1.00
H891   H     0.27400   0.02473   0.79916   0.00000  Uiso   1.00
H892   H     0.07591   0.25886   0.65358   0.00000  Uiso   1.00
H893   H     0.19458   0.04250   0.81406   0.00000  Uiso   1.00
H894   H     0.13901   0.29087   0.68585   0.00000  Uiso   1.00
H895   H     0.13878   0.04180   0.68590   0.00000  Uiso   1.00
H896   H     0.19491   0.29152   0.81392   0.00000  Uiso   1.00
H897   H     0.05602   0.11653   0.66349   0.00000  Uiso   1.00
H898   H     0.03615   0.18388   0.88992   0.00000  Uiso   1.00
H899   H     0.28533   0.18993   0.66133   0.00000  Uiso   1.00
H900   H     0.06925   0.03567   0.90165   0.00000  Uiso   1.00
H901   H     0.31822   0.12216   0.59107   0.00000  Uiso   1.00
H902   H     0.07634   0.02508   0.59180   0.00000  Uiso   1.00
H903   H     0.31599   0.12740   0.90471   0.00000  Uiso   1.00
H904   H     0.06817   0.02751   0.75068   0.00000  Uiso   1.00
N905   N     0.16667   0.28573   0.75000   0.00000  Uiso   1.00
N906   N     0.16667   0.04760   0.75000   0.00000  Uiso   1.00
O907   O     0.10559   0.20487   0.74999   0.00000  Uiso   1.00
O908   O     0.25015   0.24634   0.90581   0.00000  Uiso   1.00
O909   O     0.06306   0.16463   0.59876   0.00000  Uiso   1.00
O910   O     0.08564   0.11658   0.65276   0.00000  Uiso   1.00
O911   O     0.08469   0.14020   0.84930   0.00000  Uiso   1.00
O912   O     0.06179   0.17984   0.90882   0.00000  Uiso   1.00
O913   O     0.24826   0.23613   0.60918   0.00000  Uiso   1.00
O914   O     0.25988   0.17268   0.65071   0.00000  Uiso   1.00
O915   O     0.03857   0.08519   0.95516   0.00000  Uiso   1.00
O916   O     0.09163   0.05383   0.91771   0.00000  Uiso   1.00
O917   O     0.31297   0.19049   0.54708   0.00000  Uiso   1.00
O918   O     0.22774   0.12846   0.75000   0.00000  Uiso   1.00
O919   O     0.29101   0.12187   0.57436   0.00000  Uiso   1.00
O920   O     0.04134   0.07638   0.54274   0.00000  Uiso   1.00
O921   O     0.09720   0.04608   0.57648   0.00000  Uiso   1.00
O922   O     0.31462   0.18891   0.95748   0.00000  Uiso   1.00
O923   O     0.28860   0.12709   0.92094   0.00000  Uiso   1.00
O924   O     0.04122   0.06784   0.81327   0.00000  Uiso   1.00
O925   O     0.05511   0.05642   0.73965   0.00000  Uiso   1.00
O926   O     0.28222   0.27294   0.77375   0.00000  Uiso   1.00
O927   O     0.29005   0.27383   0.69804   0.00000  Uiso   1.00
O928   O     0.26707   0.09962   0.82860   0.00000  Uiso   1.00
O929   O     0.22774   0.20487   0.75000   0.00000  Uiso   1.00
O930   O     0.29058   0.04708   0.78011   0.00000  Uiso   1.00
O931   O     0.04354   0.28059   0.72231   0.00000  Uiso   1.00
O932   O     0.06318   0.23109   0.66881   0.00000  Uiso   1.00
O933   O     0.10559   0.12846   0.74999   0.00000  Uiso   1.00
O934   O     0.16666   0.20489   0.68392   0.00000  Uiso   1.00
O935   O     0.16667   0.12844   0.81607   0.00000  Uiso   1.00
O936   O     0.16667   0.20489   0.81607   0.00000  Uiso   1.00
O937   O     0.16666   0.12844   0.68392   0.00000  Uiso   1.00
O938   O     0.25179   0.19502   0.84947   0.00000  Uiso   1.00
Zn939  Zn    0.16667   0.21771   0.75000   0.00000  Uiso   1.00
Zn940  Zn    0.16667   0.11563   0.75000   0.00000  Uiso   1.00
C941   C     0.41982   0.16597   0.74818   0.00000  Uiso   1.00
C942   C     0.37522   0.16454   0.74717   0.00000  Uiso   1.00
C943   C     0.51551   0.02418   0.78561   0.00000  Uiso   1.00
C944   C     0.48459   0.30916   0.71435   0.00000  Uiso   1.00
C945   C     0.48460   0.02381   0.71433   0.00000  Uiso   1.00
C946   C     0.51561   0.30953   0.78556   0.00000  Uiso   1.00
C947   C     0.49910   0.16655   0.66331   0.00000  Uiso   1.00
C948   C     0.50079   0.16662   0.83666   0.00000  Uiso   1.00
C949   C     0.53843   0.17658   0.90755   0.00000  Uiso   1.00
C950   C     0.46600   0.14601   0.59228   0.00000  Uiso   1.00
C951   C     0.50163   0.16563   0.88487   0.00000  Uiso   1.00
C952   C     0.57998   0.16737   0.75344   0.00000  Uiso   1.00
C953   C     0.50027   0.16462   0.61508   0.00000  Uiso   1.00
C954   C     0.46632   0.14995   0.90766   0.00000  Uiso   1.00
C955   C     0.53781   0.17391   0.59321   0.00000  Uiso   1.00
C956   C     0.46937   0.13840   0.95321   0.00000  Uiso   1.00
C957   C     0.54149   0.16438   0.54715   0.00000  Uiso   1.00
C958   C     0.50585   0.15057   0.97663   0.00000  Uiso   1.00
C959   C     0.50581   0.14975   0.52348   0.00000  Uiso   1.00
C960   C     0.54159   0.16596   0.95350   0.00000  Uiso   1.00
C961   C     0.46954   0.13581   0.54646   0.00000  Uiso   1.00
C962   C     0.43787   0.11308   0.97571   0.00000  Uiso   1.00
C963   C     0.43847   0.11093   0.52292   0.00000  Uiso   1.00
C964   C     0.57974   0.16718   0.52399   0.00000  Uiso   1.00
C965   C     0.57029   0.20602   0.88523   0.00000  Uiso   1.00
C966   C     0.42510   0.14377   0.61477   0.00000  Uiso   1.00
C967   C     0.42524   0.15561   0.88640   0.00000  Uiso   1.00
C968   C     0.57170   0.19684   0.61824   0.00000  Uiso   1.00
C969   C     0.40912   0.08320   0.94969   0.00000  Uiso   1.00
C970   C     0.61916   0.16103   0.54848   0.00000  Uiso   1.00
C971   C     0.41211   0.07683   0.54719   0.00000  Uiso   1.00
C972   C     0.61896   0.16234   0.95185   0.00000  Uiso   1.00
C973   C     0.37308   0.08219   0.77478   0.00000  Uiso   1.00
C974   C     0.57974   0.16786   0.97676   0.00000  Uiso   1.00
C975   C     0.62761   0.25363   0.74024   0.00000  Uiso   1.00
C976   C     0.62162   0.09154   0.79591   0.00000  Uiso   1.00
C977   C     0.37634   0.24154   0.70861   0.00000  Uiso   1.00
C978   C     0.35317   0.12619   0.76483   0.00000  Uiso   1.00
C979   C     0.64681   0.20844   0.74479   0.00000  Uiso   1.00
C980   C     0.64439   0.12939   0.77248   0.00000  Uiso   1.00
C981   C     0.35491   0.20457   0.73460   0.00000  Uiso   1.00
C982   C     0.62433   0.16918   0.75895   0.00000  Uiso   1.00
H983   H     0.60526   0.26346   0.88768   0.00000  Uiso   1.00
H984   H     0.60966   0.30437   0.69955   0.00000  Uiso   1.00
H985   H     0.60734   0.02473   0.79916   0.00000  Uiso   1.00
H986   H     0.40924   0.25886   0.65358   0.00000  Uiso   1.00
H987   H     0.52792   0.04250   0.81406   0.00000  Uiso   1.00
H988   H     0.47235   0.29087   0.68585   0.00000  Uiso   1.00
H989   H     0.47211   0.04180   0.68590   0.00000  Uiso   1.00
H990   H     0.52825   0.29152   0.81392   0.00000  Uiso   1.00
H991   H     0.38935   0.11653   0.66349   0.00000  Uiso   1.00
H992   H     0.36948   0.18388   0.88992   0.00000  Uiso   1.00
H993   H     0.61867   0.18993   0.66133   0.00000  Uiso   1.00
H994   H     0.40258   0.03567   0.90165   0.00000  Uiso   1.00
H995   H     0.65155   0.12216   0.59107   0.00000  Uiso   1.00
H996   H     0.40967   0.02508   0.59180   0.00000  Uiso   1.00
H997   H     0.64933   0.12740   0.90471   0.00000  Uiso   1.00
H998   H     0.40151   0.02751   0.75068   0.00000  Uiso   1.00
N999   N     0.50000   0.28573   0.75000   0.00000  Uiso   1.00
N1000  N     0.50000   0.04760   0.75000   0.00000  Uiso   1.00
O1001  O     0.43892   0.20487   0.74999   0.00000  Uiso   1.00
O1002  O     0.58348   0.24634   0.90581   0.00000  Uiso   1.00
O1003  O     0.39639   0.16463   0.59876   0.00000  Uiso   1.00
O1004  O     0.41897   0.11658   0.65276   0.00000  Uiso   1.00
O1005  O     0.41802   0.14020   0.84930   0.00000  Uiso   1.00
O1006  O     0.39513   0.17984   0.90882   0.00000  Uiso   1.00
O1007  O     0.58160   0.23613   0.60918   0.00000  Uiso   1.00
O1008  O     0.59321   0.17268   0.65071   0.00000  Uiso   1.00
O1009  O     0.37190   0.08519   0.95516   0.00000  Uiso   1.00
O1010  O     0.42497   0.05383   0.91771   0.00000  Uiso   1.00
O1011  O     0.64631   0.19049   0.54708   0.00000  Uiso   1.00
O1012  O     0.56108   0.12846   0.75000   0.00000  Uiso   1.00
O1013  O     0.62434   0.12187   0.57436   0.00000  Uiso   1.00
O1014  O     0.37467   0.07638   0.54274   0.00000  Uiso   1.00
O1015  O     0.43053   0.04608   0.57648   0.00000  Uiso   1.00
O1016  O     0.64795   0.18891   0.95748   0.00000  Uiso   1.00
O1017  O     0.62193   0.12709   0.92094   0.00000  Uiso   1.00
O1018  O     0.37456   0.06784   0.81327   0.00000  Uiso   1.00
O1019  O     0.38844   0.05642   0.73965   0.00000  Uiso   1.00
O1020  O     0.61555   0.27294   0.77375   0.00000  Uiso   1.00
O1021  O     0.62338   0.27383   0.69804   0.00000  Uiso   1.00
O1022  O     0.60040   0.09962   0.82860   0.00000  Uiso   1.00
O1023  O     0.56108   0.20487   0.75000   0.00000  Uiso   1.00
O1024  O     0.62392   0.04708   0.78011   0.00000  Uiso   1.00
O1025  O     0.37687   0.28059   0.72231   0.00000  Uiso   1.00
O1026  O     0.39652   0.23109   0.66881   0.00000  Uiso   1.00
O1027  O     0.43892   0.12846   0.74999   0.00000  Uiso   1.00
O1028  O     0.49999   0.20489   0.68392   0.00000  Uiso   1.00
O1029  O     0.50001   0.12844   0.81607   0.00000  Uiso   1.00
O1030  O     0.50001   0.20489   0.81607   0.00000  Uiso   1.00
O1031  O     0.49999   0.12844   0.68392   0.00000  Uiso   1.00
O1032  O     0.58513   0.19502   0.84947   0.00000  Uiso   1.00
Zn1033 Zn    0.50000   0.21771   0.75000   0.00000  Uiso   1.00
Zn1034 Zn    0.50000   0.11563   0.75000   0.00000  Uiso   1.00
C1035  C     0.75315   0.16597   0.74818   0.00000  Uiso   1.00
C1036  C     0.70855   0.16454   0.74717   0.00000  Uiso   1.00
C1037  C     0.84884   0.02418   0.78561   0.00000  Uiso   1.00
C1038  C     0.81793   0.30916   0.71435   0.00000  Uiso   1.00
C1039  C     0.81793   0.02381   0.71433   0.00000  Uiso   1.00
C1040  C     0.84894   0.30953   0.78556   0.00000  Uiso   1.00
C1041  C     0.83244   0.16655   0.66331   0.00000  Uiso   1.00
C1042  C     0.83412   0.16662   0.83666   0.00000  Uiso   1.00
C1043  C     0.87177   0.17658   0.90755   0.00000  Uiso   1.00
C1044  C     0.79934   0.14601   0.59228   0.00000  Uiso   1.00
C1045  C     0.83496   0.16563   0.88487   0.00000  Uiso   1.00
C1046  C     0.91331   0.16737   0.75344   0.00000  Uiso   1.00
C1047  C     0.83360   0.16462   0.61508   0.00000  Uiso   1.00
C1048  C     0.79966   0.14995   0.90766   0.00000  Uiso   1.00
C1049  C     0.87114   0.17391   0.59321   0.00000  Uiso   1.00
C1050  C     0.80270   0.13840   0.95321   0.00000  Uiso   1.00
C1051  C     0.87482   0.16438   0.54715   0.00000  Uiso   1.00
C1052  C     0.83918   0.15057   0.97663   0.00000  Uiso   1.00
C1053  C     0.83914   0.14975   0.52348   0.00000  Uiso   1.00
C1054  C     0.87492   0.16596   0.95350   0.00000  Uiso   1.00
C1055  C     0.80287   0.13581   0.54646   0.00000  Uiso   1.00
C1056  C     0.77121   0.11308   0.97571   0.00000  Uiso   1.00
C1057  C     0.77181   0.11093   0.52292   0.00000  Uiso   1.00
C1058  C     0.91307   0.16718   0.52399   0.00000  Uiso   1.00
C1059  C     0.90362   0.20602   0.88523   0.00000  Uiso   1.00
C1060  C     0.75843   0.14377   0.61477   0.00000  Uiso   1.00
C1061  C     0.75857   0.15561   0.88640   0.00000  Uiso   1.00
C1062  C     0.90503   0.19684   0.61824   0.00000  Uiso   1.00
C1063  C     0.74245   0.08320   0.94969   0.00000  Uiso   1.00
C1064  C     0.95249   0.16103   0.54848   0.00000  Uiso   1.00
C1065  C     0.74544   0.07683   0.54719   0.00000  Uiso   1.00
C1066  C     0.95230   0.16234   0.95185   0.00000  Uiso   1.00
C1067  C     0.70641   0.08219   0.77478   0.00000  Uiso   1.00
C1068  C     0.91307   0.16786   0.97676   0.00000  Uiso   1.00
C1069  C     0.96094   0.25363   0.74024   0.00000  Uiso   1.00
C1070  C     0.95496   0.09154   0.79591   0.00000  Uiso   1.00
C1071  C     0.70967   0.24154   0.70861   0.00000  Uiso   1.00
C1072  C     0.68651   0.12619   0.76483   0.00000  Uiso   1.00
C1073  C     0.98014   0.20844   0.74479   0.00000  Uiso   1.00
C1074  C     0.97773   0.12939   0.77248   0.00000  Uiso   1.00
C1075  C     0.68824   0.20457   0.73460   0.00000  Uiso   1.00
C1076  C     0.95766   0.16918   0.75895   0.00000  Uiso   1.00
H1077  H     0.93860   0.26346   0.88768   0.00000  Uiso   1.00
H1078  H     0.94300   0.30437   0.69955   0.00000  Uiso   1.00
H1079  H     0.94067   0.02473   0.79916   0.00000  Uiso   1.00
H1080  H     0.74258   0.25886   0.65358   0.00000  Uiso   1.00
H1081  H     0.86125   0.04250   0.81406   0.00000  Uiso   1.00
H1082  H     0.80568   0.29087   0.68585   0.00000  Uiso   1.00
H1083  H     0.80544   0.04180   0.68590   0.00000  Uiso   1.00
H1084  H     0.86158   0.29152   0.81392   0.00000  Uiso   1.00
H1085  H     0.72268   0.11653   0.66349   0.00000  Uiso   1.00
H1086  H     0.70282   0.18388   0.88992   0.00000  Uiso   1.00
H1087  H     0.95200   0.18993   0.66133   0.00000  Uiso   1.00
H1088  H     0.73591   0.03567   0.90165   0.00000  Uiso   1.00
H1089  H     0.98489   0.12216   0.59107   0.00000  Uiso   1.00
H1090  H     0.74301   0.02508   0.59180   0.00000  Uiso   1.00
H1091  H     0.98266   0.12740   0.90471   0.00000  Uiso   1.00
H1092  H     0.73484   0.02751   0.75068   0.00000  Uiso   1.00
N1093  N     0.83333   0.28573   0.75000   0.00000  Uiso   1.00
N1094  N     0.83333   0.04760   0.75000   0.00000  Uiso   1.00
O1095  O     0.77226   0.20487   0.74999   0.00000  Uiso   1.00
O1096  O     0.91681   0.24634   0.90581   0.00000  Uiso   1.00
O1097  O     0.72973   0.16463   0.59876   0.00000  Uiso   1.00
O1098  O     0.75231   0.11658   0.65276   0.00000  Uiso   1.00
O1099  O     0.75136   0.14020   0.84930   0.00000  Uiso   1.00
O1100  O     0.72846   0.17984   0.90882   0.00000  Uiso   1.00
O1101  O     0.91493   0.23613   0.60918   0.00000  Uiso   1.00
O1102  O     0.92654   0.17268   0.65071   0.00000  Uiso   1.00
O1103  O     0.70523   0.08519   0.95516   0.00000  Uiso   1.00
O1104  O     0.75830   0.05383   0.91771   0.00000  Uiso   1.00
O1105  O     0.97964   0.19049   0.54708   0.00000  Uiso   1.00
O1106  O     0.89441   0.12846   0.75000   0.00000  Uiso   1.00
O1107  O     0.95767   0.12187   0.57436   0.00000  Uiso   1.00
O1108  O     0.70800   0.07638   0.54274   0.00000  Uiso   1.00
O1109  O     0.76387   0.04608   0.57648   0.00000  Uiso   1.00
O1110  O     0.98129   0.18891   0.95748   0.00000  Uiso   1.00
O1111  O     0.95526   0.12709   0.92094   0.00000  Uiso   1.00
O1112  O     0.70789   0.06784   0.81327   0.00000  Uiso   1.00
O1113  O     0.72177   0.05642   0.73965   0.00000  Uiso   1.00
O1114  O     0.94889   0.27294   0.77375   0.00000  Uiso   1.00
O1115  O     0.95672   0.27383   0.69804   0.00000  Uiso   1.00
O1116  O     0.93374   0.09962   0.82860   0.00000  Uiso   1.00
O1117  O     0.89441   0.20487   0.75000   0.00000  Uiso   1.00
O1118  O     0.95725   0.04708   0.78011   0.00000  Uiso   1.00
O1119  O     0.71021   0.28059   0.72231   0.00000  Uiso   1.00
O1120  O     0.72985   0.23109   0.66881   0.00000  Uiso   1.00
O1121  O     0.77226   0.12846   0.74999   0.00000  Uiso   1.00
O1122  O     0.83333   0.20489   0.68392   0.00000  Uiso   1.00
O1123  O     0.83334   0.12844   0.81607   0.00000  Uiso   1.00
O1124  O     0.83334   0.20489   0.81607   0.00000  Uiso   1.00
O1125  O     0.83333   0.12844   0.68392   0.00000  Uiso   1.00
O1126  O     0.91846   0.19502   0.84947   0.00000  Uiso   1.00
Zn1127 Zn    0.83333   0.21771   0.75000   0.00000  Uiso   1.00
Zn1128 Zn    0.83333   0.11563   0.75000   0.00000  Uiso   1.00
C1129  C     0.08649   0.49931   0.74818   0.00000  Uiso   1.00
C1130  C     0.04188   0.49787   0.74717   0.00000  Uiso   1.00
C1131  C     0.18217   0.35752   0.78561   0.00000  Uiso   1.00
C1132  C     0.15126   0.64250   0.71435   0.00000  Uiso   1.00
C1133  C     0.15127   0.35714   0.71433   0.00000  Uiso   1.00
C1134  C     0.18228   0.64286   0.78556   0.00000  Uiso   1.00
C1135  C     0.16577   0.49988   0.66331   0.00000  Uiso   1.00
C1136  C     0.16746   0.49996   0.83666   0.00000  Uiso   1.00
C1137  C     0.20510   0.50992   0.90755   0.00000  Uiso   1.00
C1138  C     0.13267   0.47934   0.59228   0.00000  Uiso   1.00
C1139  C     0.16829   0.49897   0.88487   0.00000  Uiso   1.00
C1140  C     0.24665   0.50070   0.75344   0.00000  Uiso   1.00
C1141  C     0.16693   0.49796   0.61508   0.00000  Uiso   1.00
C1142  C     0.13299   0.48329   0.90766   0.00000  Uiso   1.00
C1143  C     0.20447   0.50724   0.59321   0.00000  Uiso   1.00
C1144  C     0.13603   0.47174   0.95321   0.00000  Uiso   1.00
C1145  C     0.20815   0.49772   0.54715   0.00000  Uiso   1.00
C1146  C     0.17252   0.48391   0.97663   0.00000  Uiso   1.00
C1147  C     0.17247   0.48308   0.52348   0.00000  Uiso   1.00
C1148  C     0.20825   0.49929   0.95350   0.00000  Uiso   1.00
C1149  C     0.13620   0.46914   0.54646   0.00000  Uiso   1.00
C1150  C     0.10454   0.44641   0.97571   0.00000  Uiso   1.00
C1151  C     0.10514   0.44427   0.52292   0.00000  Uiso   1.00
C1152  C     0.24641   0.50051   0.52399   0.00000  Uiso   1.00
C1153  C     0.23695   0.53935   0.88523   0.00000  Uiso   1.00
C1154  C     0.09177   0.47710   0.61477   0.00000  Uiso   1.00
C1155  C     0.09190   0.48894   0.88640   0.00000  Uiso   1.00
C1156  C     0.23836   0.53017   0.61824   0.00000  Uiso   1.00
C1157  C     0.07578   0.41654   0.94969   0.00000  Uiso   1.00
C1158  C     0.28582   0.49437   0.54848   0.00000  Uiso   1.00
C1159  C     0.07878   0.41016   0.54719   0.00000  Uiso   1.00
C1160  C     0.28563   0.49567   0.95185   0.00000  Uiso   1.00
C1161  C     0.03974   0.41552   0.77478   0.00000  Uiso   1.00
C1162  C     0.24640   0.50120   0.97676   0.00000  Uiso   1.00
C1163  C     0.29427   0.58696   0.74024   0.00000  Uiso   1.00
C1164  C     0.28829   0.42488   0.79591   0.00000  Uiso   1.00
C1165  C     0.04301   0.57487   0.70861   0.00000  Uiso   1.00
C1166  C     0.01984   0.45952   0.76483   0.00000  Uiso   1.00
C1167  C     0.31347   0.54177   0.74479   0.00000  Uiso   1.00
C1168  C     0.31106   0.46273   0.77248   0.00000  Uiso   1.00
C1169  C     0.02157   0.53790   0.73460   0.00000  Uiso   1.00
C1170  C     0.29099   0.50252   0.75895   0.00000  Uiso   1.00
H1171  H     0.27193   0.59679   0.88768   0.00000  Uiso   1.00
H1172  H     0.27633   0.63770   0.69955   0.00000  Uiso   1.00
H1173  H     0.27400   0.35806   0.79916   0.00000  Uiso   1.00
H1174  H     0.07591   0.59220   0.65358   0.00000  Uiso   1.00
H1175  H     0.19458   0.37584   0.81406   0.00000  Uiso   1.00
H1176  H     0.13901   0.62420   0.68585   0.00000  Uiso   1.00
H1177  H     0.13878   0.37514   0.68590   0.00000  Uiso   1.00
H1178  H     0.19491   0.62485   0.81392   0.00000  Uiso   1.00
H1179  H     0.05602   0.44986   0.66349   0.00000  Uiso   1.00
H1180  H     0.03615   0.51722   0.88992   0.00000  Uiso   1.00
H1181  H     0.28533   0.52327   0.66133   0.00000  Uiso   1.00
H1182  H     0.06925   0.36900   0.90165   0.00000  Uiso   1.00
H1183  H     0.31822   0.45550   0.59107   0.00000  Uiso   1.00
H1184  H     0.07634   0.35841   0.59180   0.00000  Uiso   1.00
H1185  H     0.31599   0.46074   0.90471   0.00000  Uiso   1.00
H1186  H     0.06817   0.36084   0.75068   0.00000  Uiso   1.00
N1187  N     0.16667   0.61907   0.75000   0.00000  Uiso   1.00
N1188  N     0.16667   0.38093   0.75000   0.00000  Uiso   1.00
O1189  O     0.10559   0.53821   0.74999   0.00000  Uiso   1.00
O1190  O     0.25015   0.57967   0.90581   0.00000  Uiso   1.00
O1191  O     0.06306   0.49797   0.59876   0.00000  Uiso   1.00
O1192  O     0.08564   0.44991   0.65276   0.00000  Uiso   1.00
O1193  O     0.08469   0.47353   0.84930   0.00000  Uiso   1.00
O1194  O     0.06179   0.51318   0.90882   0.00000  Uiso   1.00
O1195  O     0.24826   0.56947   0.60918   0.00000  Uiso   1.00
O1196  O     0.25988   0.50602   0.65071   0.00000  Uiso   1.00
O1197  O     0.03857   0.41853   0.95516   0.00000  Uiso   1.00
O1198  O     0.09163   0.38716   0.91771   0.00000  Uiso   1.00
O1199  O     0.31297   0.52382   0.54708   0.00000  Uiso   1.00
O1200  O     0.22774   0.46179   0.75000   0.00000  Uiso   1.00
O1201  O     0.29101   0.45520   0.57436   0.00000  Uiso   1.00
O1202  O     0.04134   0.40972   0.54274   0.00000  Uiso   1.00
O1203  O     0.09720   0.37942   0.57648   0.00000  Uiso   1.00
O1204  O     0.31462   0.52225   0.95748   0.00000  Uiso   1.00
O1205  O     0.28860   0.46043   0.92094   0.00000  Uiso   1.00
O1206  O     0.04122   0.40117   0.81327   0.00000  Uiso   1.00
O1207  O     0.05511   0.38975   0.73965   0.00000  Uiso   1.00
O1208  O     0.28222   0.60627   0.77375   0.00000  Uiso   1.00
O1209  O     0.29005   0.60717   0.69804   0.00000  Uiso   1.00
O1210  O     0.26707   0.43296   0.82860   0.00000  Uiso   1.00
O1211  O     0.22774   0.53821   0.75000   0.00000  Uiso   1.00
O1212  O     0.29058   0.38042   0.78011   0.00000  Uiso   1.00
O1213  O     0.04354   0.61392   0.72231   0.00000  Uiso   1.00
O1214  O     0.06318   0.56442   0.66881   0.00000  Uiso   1.00
O1215  O     0.10559   0.46179   0.74999   0.00000  Uiso   1.00
O1216  O     0.16666   0.53823   0.68392   0.00000  Uiso   1.00
O1217  O     0.16667   0.46177   0.81607   0.00000  Uiso   1.00
O1218  O     0.16667   0.53823   0.81607   0.00000  Uiso   1.00
O1219  O     0.16666   0.46177   0.68392   0.00000  Uiso   1.00
O1220  O     0.25179   0.52835   0.84947   0.00000  Uiso   1.00
Zn1221 Zn    0.16667   0.55104   0.75000   0.00000  Uiso   1.00
Zn1222 Zn    0.16667   0.44896   0.75000   0.00000  Uiso   1.00
C1223  C     0.41982   0.49931   0.74818   0.00000  Uiso   1.00
C1224  C     0.37522   0.49787   0.74717   0.00000  Uiso   1.00
C1225  C     0.51551   0.35752   0.78561   0.00000  Uiso   1.00
C1226  C     0.48459   0.64250   0.71435   0.00000  Uiso   1.00
C1227  C     0.48460   0.35714   0.71433   0.00000  Uiso   1.00
C1228  C     0.51561   0.64286   0.78556   0.00000  Uiso   1.00
C1229  C     0.49910   0.49988   0.66331   0.00000  Uiso   1.00
C1230  C     0.50079   0.49996   0.83666   0.00000  Uiso   1.00
C1231  C     0.53843   0.50992   0.90755   0.00000  Uiso   1.00
C1232  C     0.46600   0.47934   0.59228   0.00000  Uiso   1.00
C1233  C     0.50163   0.49897   0.88487   0.00000  Uiso   1.00
C1234  C     0.57998   0.50070   0.75344   0.00000  Uiso   1.00
C1235  C     0.50027   0.49796   0.61508   0.00000  Uiso   1.00
C1236  C     0.46632   0.48329   0.90766   0.00000  Uiso   1.00
C1237  C     0.53781   0.50724   0.59321   0.00000  Uiso   1.00
C1238  C     0.46937   0.47174   0.95321   0.00000  Uiso   1.00
C1239  C     0.54149   0.49772   0.54715   0.00000  Uiso   1.00
C1240  C     0.50585   0.48391   0.97663   0.00000  Uiso   1.00
C1241  C     0.50581   0.48308   0.52348   0.00000  Uiso   1.00
C1242  C     0.54159   0.49929   0.95350   0.00000  Uiso   1.00
C1243  C     0.46954   0.46914   0.54646   0.00000  Uiso   1.00
C1244  C     0.43787   0.44641   0.97571   0.00000  Uiso   1.00
C1245  C     0.43847   0.44427   0.52292   0.00000  Uiso   1.00
C1246  C     0.57974   0.50051   0.52399   0.00000  Uiso   1.00
C1247  C     0.57029   0.53935   0.88523   0.00000  Uiso   1.00
C1248  C     0.42510   0.47710   0.61477   0.00000  Uiso   1.00
C1249  C     0.42524   0.48894   0.88640   0.00000  Uiso   1.00
C1250  C     0.57170   0.53017   0.61824   0.00000  Uiso   1.00
C1251  C     0.40912   0.41654   0.94969   0.00000  Uiso   1.00
C1252  C     0.61916   0.49437   0.54848   0.00000  Uiso   1.00
C1253  C     0.41211   0.41016   0.54719   0.00000  Uiso   1.00
C1254  C     0.61896   0.49567   0.95185   0.00000  Uiso   1.00
C1255  C     0.37308   0.41552   0.77478   0.00000  Uiso   1.00
C1256  C     0.57974   0.50120   0.97676   0.00000  Uiso   1.00
C1257  C     0.62761   0.58696   0.74024   0.00000  Uiso   1.00
C1258  C     0.62162   0.42488   0.79591   0.00000  Uiso   1.00
C1259  C     0.37634   0.57487   0.70861   0.00000  Uiso   1.00
C1260  C     0.35317   0.45952   0.76483   0.00000  Uiso   1.00
C1261  C     0.64681   0.54177   0.74479   0.00000  Uiso   1.00
C1262  C     0.64439   0.46273   0.77248   0.00000  Uiso   1.00
C1263  C     0.35491   0.53790   0.73460   0.00000  Uiso   1.00
C1264  C     0.62433   0.50252   0.75895   0.00000  Uiso   1.00
H1265  H     0.60526   0.59679   0.88768   0.00000  Uiso   1.00
H1266  H     0.60966   0.63770   0.69955   0.00000  Uiso   1.00
H1267  H     0.60734   0.35806   0.79916   0.00000  Uiso   1.00
H1268  H     0.40924   0.59220   0.65358   0.00000  Uiso   1.00
H1269  H     0.52792   0.37584   0.81406   0.00000  Uiso   1.00
H1270  H     0.47235   0.62420   0.68585   0.00000  Uiso   1.00
H1271  H     0.47211   0.37514   0.68590   0.00000  Uiso   1.00
H1272  H     0.52825   0.62485   0.81392   0.00000  Uiso   1.00
H1273  H     0.38935   0.44986   0.66349   0.00000  Uiso   1.00
H1274  H     0.36948   0.51722   0.88992   0.00000  Uiso   1.00
H1275  H     0.61867   0.52327   0.66133   0.00000  Uiso   1.00
H1276  H     0.40258   0.36900   0.90165   0.00000  Uiso   1.00
H1277  H     0.65155   0.45550   0.59107   0.00000  Uiso   1.00
H1278  H     0.40967   0.35841   0.59180   0.00000  Uiso   1.00
H1279  H     0.64933   0.46074   0.90471   0.00000  Uiso   1.00
H1280  H     0.40151   0.36084   0.75068   0.00000  Uiso   1.00
N1281  N     0.50000   0.61907   0.75000   0.00000  Uiso   1.00
N1282  N     0.50000   0.38093   0.75000   0.00000  Uiso   1.00
O1283  O     0.43892   0.53821   0.74999   0.00000  Uiso   1.00
O1284  O     0.58348   0.57967   0.90581   0.00000  Uiso   1.00
O1285  O     0.39639   0.49797   0.59876   0.00000  Uiso   1.00
O1286  O     0.41897   0.44991   0.65276   0.00000  Uiso   1.00
O1287  O     0.41802   0.47353   0.84930   0.00000  Uiso   1.00
O1288  O     0.39513   0.51318   0.90882   0.00000  Uiso   1.00
O1289  O     0.58160   0.56947   0.60918   0.00000  Uiso   1.00
O1290  O     0.59321   0.50602   0.65071   0.00000  Uiso   1.00
O1291  O     0.37190   0.41853   0.95516   0.00000  Uiso   1.00
O1292  O     0.42497   0.38716   0.91771   0.00000  Uiso   1.00
O1293  O     0.64631   0.52382   0.54708   0.00000  Uiso   1.00
O1294  O     0.56108   0.46179   0.75000   0.00000  Uiso   1.00
O1295  O     0.62434   0.45520   0.57436   0.00000  Uiso   1.00
O1296  O     0.37467   0.40972   0.54274   0.00000  Uiso   1.00
O1297  O     0.43053   0.37942   0.57648   0.00000  Uiso   1.00
O1298  O     0.64795   0.52225   0.95748   0.00000  Uiso   1.00
O1299  O     0.62193   0.46043   0.92094   0.00000  Uiso   1.00
O1300  O     0.37456   0.40117   0.81327   0.00000  Uiso   1.00
O1301  O     0.38844   0.38975   0.73965   0.00000  Uiso   1.00
O1302  O     0.61555   0.60627   0.77375   0.00000  Uiso   1.00
O1303  O     0.62338   0.60717   0.69804   0.00000  Uiso   1.00
O1304  O     0.60040   0.43296   0.82860   0.00000  Uiso   1.00
O1305  O     0.56108   0.53821   0.75000   0.00000  Uiso   1.00
O1306  O     0.62392   0.38042   0.78011   0.00000  Uiso   1.00
O1307  O     0.37687   0.61392   0.72231   0.00000  Uiso   1.00
O1308  O     0.39652   0.56442   0.66881   0.00000  Uiso   1.00
O1309  O     0.43892   0.46179   0.74999   0.00000  Uiso   1.00
O1310  O     0.49999   0.53823   0.68392   0.00000  Uiso   1.00
O1311  O     0.50001   0.46177   0.81607   0.00000  Uiso   1.00
O1312  O     0.50001   0.53823   0.81607   0.00000  Uiso   1.00
O1313  O     0.49999   0.46177   0.68392   0.00000  Uiso   1.00
O1314  O     0.58513   0.52835   0.84947   0.00000  Uiso   1.00
Zn1315 Zn    0.50000   0.55104   0.75000   0.00000  Uiso   1.00
Zn1316 Zn    0.50000   0.44896   0.75000   0.00000  Uiso   1.00
C1317  C     0.75315   0.49931   0.74818   0.00000  Uiso   1.00
C1318  C     0.70855   0.49787   0.74717   0.00000  Uiso   1.00
C1319  C     0.84884   0.35752   0.78561   0.00000  Uiso   1.00
C1320  C     0.81793   0.64250   0.71435   0.00000  Uiso   1.00
C1321  C     0.81793   0.35714   0.71433   0.00000  Uiso   1.00
C1322  C     0.84894   0.64286   0.78556   0.00000  Uiso   1.00
C1323  C     0.83244   0.49988   0.66331   0.00000  Uiso   1.00
C1324  C     0.83412   0.49996   0.83666   0.00000  Uiso   1.00
C1325  C     0.87177   0.50992   0.90755   0.00000  Uiso   1.00
C1326  C     0.79934   0.47934   0.59228   0.00000  Uiso   1.00
C1327  C     0.83496   0.49897   0.88487   0.00000  Uiso   1.00
C1328  C     0.91331   0.50070   0.75344   0.00000  Uiso   1.00
C1329  C     0.83360   0.49796   0.61508   0.00000  Uiso   1.00
C1330  C     0.79966   0.48329   0.90766   0.00000  Uiso   1.00
C1331  C     0.87114   0.50724   0.59321   0.00000  Uiso   1.00
C1332  C     0.80270   0.47174   0.95321   0.00000  Uiso   1.00
C1333  C     0.87482   0.49772   0.54715   0.00000  Uiso   1.00
C1334  C     0.83918   0.48391   0.97663   0.00000  Uiso   1.00
C1335  C     0.83914   0.48308   0.52348   0.00000  Uiso   1.00
C1336  C     0.87492   0.49929   0.95350   0.00000  Uiso   1.00
C1337  C     0.80287   0.46914   0.54646   0.00000  Uiso   1.00
C1338  C     0.77121   0.44641   0.97571   0.00000  Uiso   1.00
C1339  C     0.77181   0.44427   0.52292   0.00000  Uiso   1.00
C1340  C     0.91307   0.50051   0.52399   0.00000  Uiso   1.00
C1341  C     0.90362   0.53935   0.88523   0.00000  Uiso   1.00
C1342  C     0.75843   0.47710   0.61477   0.00000  Uiso   1.00
C1343  C     0.75857   0.48894   0.88640   0.00000  Uiso   1.00
C1344  C     0.90503   0.53017   0.61824   0.00000  Uiso   1.00
C1345  C     0.74245   0.41654   0.94969   0.00000  Uiso   1.00
C1346  C     0.95249   0.49437   0.54848   0.00000  Uiso   1.00
C1347  C     0.74544   0.41016   0.54719   0.00000  Uiso   1.00
C1348  C     0.95230   0.49567   0.95185   0.00000  Uiso   1.00
C1349  C     0.70641   0.41552   0.77478   0.00000  Uiso   1.00
C1350  C     0.91307   0.50120   0.97676   0.00000  Uiso   1.00
C1351  C     0.96094   0.58696   0.74024   0.00000  Uiso   1.00
C1352  C     0.95496   0.42488   0.79591   0.00000  Uiso   1.00
C1353  C     0.70967   0.57487   0.70861   0.00000  Uiso   1.00
C1354  C     0.68651   0.45952   0.76483   0.00000  Uiso   1.00
C1355  C     0.98014   0.54177   0.74479   0.00000  Uiso   1.00
C1356  C     0.97773   0.46273   0.77248   0.00000  Uiso   1.00
C1357  C     0.68824   0.53790   0.73460   0.00000  Uiso   1.00
C1358  C     0.95766   0.50252   0.75895   0.00000  Uiso   1.00
H1359  H     0.93860   0.59679   0.88768   0.00000  Uiso   1.00
H1360  H     0.94300   0.63770   0.69955   0.00000  Uiso   1.00
H1361  H     0.94067   0.35806   0.79916   0.00000  Uiso   1.00
H1362  H     0.74258   0.59220   0.65358   0.00000  Uiso   1.00
H1363  H     0.86125   0.37584   0.81406   0.00000  Uiso   1.00
H1364  H     0.80568   0.62420   0.68585   0.00000  Uiso   1.00
H1365  H     0.80544   0.37514   0.68590   0.00000  Uiso   1.00
H1366  H     0.86158   0.62485   0.81392   0.00000  Uiso   1.00
H1367  H     0.72268   0.44986   0.66349   0.00000  Uiso   1.00
H1368  H     0.70282   0.51722   0.88992   0.00000  Uiso   1.00
H1369  H     0.95200   0.52327   0.66133   0.00000  Uiso   1.00
H1370  H     0.73591   0.36900   0.90165   0.00000  Uiso   1.00
H1371  H     0.98489   0.45550   0.59107   0.00000  Uiso   1.00
H1372  H     0.74301   0.35841   0.59180   0.00000  Uiso   1.00
H1373  H     0.98266   0.46074   0.90471   0.00000  Uiso   1.00
H1374  H     0.73484   0.36084   0.75068   0.00000  Uiso   1.00
N1375  N     0.83333   0.61907   0.75000   0.00000  Uiso   1.00
N1376  N     0.83333   0.38093   0.75000   0.00000  Uiso   1.00
O1377  O     0.77226   0.53821   0.74999   0.00000  Uiso   1.00
O1378  O     0.91681   0.57967   0.90581   0.00000  Uiso   1.00
O1379  O     0.72973   0.49797   0.59876   0.00000  Uiso   1.00
O1380  O     0.75231   0.44991   0.65276   0.00000  Uiso   1.00
O1381  O     0.75136   0.47353   0.84930   0.00000  Uiso   1.00
O1382  O     0.72846   0.51318   0.90882   0.00000  Uiso   1.00
O1383  O     0.91493   0.56947   0.60918   0.00000  Uiso   1.00
O1384  O     0.92654   0.50602   0.65071   0.00000  Uiso   1.00
O1385  O     0.70523   0.41853   0.95516   0.00000  Uiso   1.00
O1386  O     0.75830   0.38716   0.91771   0.00000  Uiso   1.00
O1387  O     0.97964   0.52382   0.54708   0.00000  Uiso   1.00
O1388  O     0.89441   0.46179   0.75000   0.00000  Uiso   1.00
O1389  O     0.95767   0.45520   0.57436   0.00000  Uiso   1.00
O1390  O     0.70800   0.40972   0.54274   0.00000  Uiso   1.00
O1391  O     0.76387   0.37942   0.57648   0.00000  Uiso   1.00
O1392  O     0.98129   0.52225   0.95748   0.00000  Uiso   1.00
O1393  O     0.95526   0.46043   0.92094   0.00000  Uiso   1.00
O1394  O     0.70789   0.40117   0.81327   0.00000  Uiso   1.00
O1395  O     0.72177   0.38975   0.73965   0.00000  Uiso   1.00
O1396  O     0.94889   0.60627   0.77375   0.00000  Uiso   1.00
O1397  O     0.95672   0.60717   0.69804   0.00000  Uiso   1.00
O1398  O     0.93374   0.43296   0.82860   0.00000  Uiso   1.00
O1399  O     0.89441   0.53821   0.75000   0.00000  Uiso   1.00
O1400  O     0.95725   0.38042   0.78011   0.00000  Uiso   1.00
O1401  O     0.71021   0.61392   0.72231   0.00000  Uiso   1.00
O1402  O     0.72985   0.56442   0.66881   0.00000  Uiso   1.00
O1403  O     0.77226   0.46179   0.74999   0.00000  Uiso   1.00
O1404  O     0.83333   0.53823   0.68392   0.00000  Uiso   1.00
O1405  O     0.83334   0.46177   0.81607   0.00000  Uiso   1.00
O1406  O     0.83334   0.53823   0.81607   0.00000  Uiso   1.00
O1407  O     0.83333   0.46177   0.68392   0.00000  Uiso   1.00
O1408  O     0.91846   0.52835   0.84947   0.00000  Uiso   1.00
Zn1409 Zn    0.83333   0.55104   0.75000   0.00000  Uiso   1.00
Zn1410 Zn    0.83333   0.44896   0.75000   0.00000  Uiso   1.00
C1411  C     0.08649   0.83264   0.74818   0.00000  Uiso   1.00
C1412  C     0.04188   0.83120   0.74717   0.00000  Uiso   1.00
C1413  C     0.18217   0.69085   0.78561   0.00000  Uiso   1.00
C1414  C     0.15126   0.97583   0.71435   0.00000  Uiso   1.00
C1415  C     0.15127   0.69048   0.71433   0.00000  Uiso   1.00
C1416  C     0.18228   0.97619   0.78556   0.00000  Uiso   1.00
C1417  C     0.16577   0.83321   0.66331   0.00000  Uiso   1.00
C1418  C     0.16746   0.83329   0.83666   0.00000  Uiso   1.00
C1419  C     0.20510   0.84325   0.90755   0.00000  Uiso   1.00
C1420  C     0.13267   0.81268   0.59228   0.00000  Uiso   1.00
C1421  C     0.16829   0.83230   0.88487   0.00000  Uiso   1.00
C1422  C     0.24665   0.83403   0.75344   0.00000  Uiso   1.00
C1423  C     0.16693   0.83129   0.61508   0.00000  Uiso   1.00
C1424  C     0.13299   0.81662   0.90766   0.00000  Uiso   1.00
C1425  C     0.20447   0.84058   0.59321   0.00000  Uiso   1.00
C1426  C     0.13603   0.80507   0.95321   0.00000  Uiso   1.00
C1427  C     0.20815   0.83105   0.54715   0.00000  Uiso   1.00
C1428  C     0.17252   0.81724   0.97663   0.00000  Uiso   1.00
C1429  C     0.17247   0.81641   0.52348   0.00000  Uiso   1.00
C1430  C     0.20825   0.83263   0.95350   0.00000  Uiso   1.00
C1431  C     0.13620   0.80247   0.54646   0.00000  Uiso   1.00
C1432  C     0.10454   0.77975   0.97571   0.00000  Uiso   1.00
C1433  C     0.10514   0.77760   0.52292   0.00000  Uiso   1.00
C1434  C     0.24641   0.83385   0.52399   0.00000  Uiso   1.00
C1435  C     0.23695   0.87268   0.88523   0.00000  Uiso   1.00
C1436  C     0.09177   0.81044   0.61477   0.00000  Uiso   1.00
C1437  C     0.09190   0.82228   0.88640   0.00000  Uiso   1.00
C1438  C     0.23836   0.86351   0.61824   0.00000  Uiso   1.00
C1439  C     0.07578   0.74987   0.94969   0.00000  Uiso   1.00
C1440  C     0.28582   0.82770   0.54848   0.00000  Uiso   1.00
C1441  C     0.07878   0.74349   0.54719   0.00000  Uiso   1.00
C1442  C     0.28563   0.82901   0.95185   0.00000  Uiso   1.00
C1443  C     0.03974   0.74885   0.77478   0.00000  Uiso   1.00
C1444  C     0.24640   0.83453   0.97676   0.00000  Uiso   1.00
C1445  C     0.29427   0.92029   0.74024   0.00000  Uiso   1.00
C1446  C     0.28829   0.75821   0.79591   0.00000  Uiso   1.00
C1447  C     0.04301   0.90821   0.70861   0.00000  Uiso   1.00
C1448  C     0.01984   0.79286   0.76483   0.00000  Uiso   1.00
C1449  C     0.31347   0.87510   0.74479   0.00000  Uiso   1.00
C1450  C     0.31106   0.79606   0.77248   0.00000  Uiso   1.00
C1451  C     0.02157   0.87123   0.73460   0.00000  Uiso   1.00
C1452  C     0.29099   0.83585   0.75895   0.00000  Uiso   1.00
H1453  H     0.27193   0.93012   0.88768   0.00000  Uiso   1.00
H1454  H     0.27633   0.97103   0.69955   0.00000  Uiso   1.00
H1455  H     0.27400   0.69139   0.79916   0.00000  Uiso   1.00
H1456  H     0.07591   0.92553   0.65358   0.00000  Uiso   1.00
H1457  H     0.19458   0.70917   0.81406   0.00000  Uiso   1.00
H1458  H     0.13901   0.95754   0.68585   0.00000  Uiso   1.00
H1459  H     0.13878   0.70847   0.68590   0.00000  Uiso   1.00
H1460  H     0.19491   0.95819   0.81392   0.00000  Uiso   1.00
H1461  H     0.05602   0.78319   0.66349   0.00000  Uiso   1.00
H1462  H     0.03615   0.85055   0.88992   0.00000  Uiso   1.00
H1463  H     0.28533   0.85660   0.66133   0.00000  Uiso   1.00
H1464  H     0.06925   0.70234   0.90165   0.00000  Uiso   1.00
H1465  H     0.31822   0.78883   0.59107   0.00000  Uiso   1.00
H1466  H     0.07634   0.69174   0.59180   0.00000  Uiso   1.00
H1467  H     0.31599   0.79407   0.90471   0.00000  Uiso   1.00
H1468  H     0.06817   0.69417   0.75068   0.00000  Uiso   1.00
N1469  N     0.16667   0.95240   0.75000   0.00000  Uiso   1.00
N1470  N     0.16667   0.71427   0.75000   0.00000  Uiso   1.00
O1471  O     0.10559   0.87154   0.74999   0.00000  Uiso   1.00
O1472  O     0.25015   0.91300   0.90581   0.00000  Uiso   1.00
O1473  O     0.06306   0.83130   0.59876   0.00000  Uiso   1.00
O1474  O     0.08564   0.78324   0.65276   0.00000  Uiso   1.00
O1475  O     0.08469   0.80687   0.84930   0.00000  Uiso   1.00
O1476  O     0.06179   0.84651   0.90882   0.00000  Uiso   1.00
O1477  O     0.24826   0.90280   0.60918   0.00000  Uiso   1.00
O1478  O     0.25988   0.83935   0.65071   0.00000  Uiso   1.00
O1479  O     0.03857   0.75186   0.95516   0.00000  Uiso   1.00
O1480  O     0.09163   0.72050   0.91771   0.00000  Uiso   1.00
O1481  O     0.31297   0.85715   0.54708   0.00000  Uiso   1.00
O1482  O     0.22774   0.79513   0.75000   0.00000  Uiso   1.00
O1483  O     0.29101   0.78854   0.57436   0.00000  Uiso   1.00
O1484  O     0.04134   0.74305   0.54274   0.00000  Uiso   1.00
O1485  O     0.09720   0.71275   0.57648   0.00000  Uiso   1.00
O1486  O     0.31462   0.85558   0.95748   0.00000  Uiso   1.00
O1487  O     0.28860   0.79376   0.92094   0.00000  Uiso   1.00
O1488  O     0.04122   0.73451   0.81327   0.00000  Uiso   1.00
O1489  O     0.05511   0.72308   0.73965   0.00000  Uiso   1.00
O1490  O     0.28222   0.93960   0.77375   0.00000  Uiso   1.00
O1491  O     0.29005   0.94050   0.69804   0.00000  Uiso   1.00
O1492  O     0.26707   0.76629   0.82860   0.00000  Uiso   1.00
O1493  O     0.22774   0.87154   0.75000   0.00000  Uiso   1.00
O1494  O     0.29058   0.71375   0.78011   0.00000  Uiso   1.00
O1495  O     0.04354   0.94725   0.72231   0.00000  Uiso   1.00
O1496  O     0.06318   0.89775   0.66881   0.00000  Uiso   1.00
O1497  O     0.10559   0.79513   0.74999   0.00000  Uiso   1.00
O1498  O     0.16666   0.87156   0.68392   0.00000  Uiso   1.00
O1499  O     0.16667   0.79511   0.81607   0.00000  Uiso   1.00
O1500  O     0.16667   0.87156   0.81607   0.00000  Uiso   1.00
O1501  O     0.16666   0.79511   0.68392   0.00000  Uiso   1.00
O1502  O     0.25179   0.86169   0.84947   0.00000  Uiso   1.00
Zn1503 Zn    0.16667   0.88437   0.75000   0.00000  Uiso   1.00
Zn1504 Zn    0.16667   0.78229   0.75000   0.00000  Uiso   1.00
C1505  C     0.41982   0.83264   0.74818   0.00000  Uiso   1.00
C1506  C     0.37522   0.83120   0.74717   0.00000  Uiso   1.00
C1507  C     0.51551   0.69085   0.78561   0.00000  Uiso   1.00
C1508  C     0.48459   0.97583   0.71435   0.00000  Uiso   1.00
C1509  C     0.48460   0.69048   0.71433   0.00000  Uiso   1.00
C1510  C     0.51561   0.97619   0.78556   0.00000  Uiso   1.00
C1511  C     0.49910   0.83321   0.66331   0.00000  Uiso   1.00
C1512  C     0.50079   0.83329   0.83666   0.00000  Uiso   1.00
C1513  C     0.53843   0.84325   0.90755   0.00000  Uiso   1.00
C1514  C     0.46600   0.81268   0.59228   0.00000  Uiso   1.00
C1515  C     0.50163   0.83230   0.88487   0.00000  Uiso   1.00
C1516  C     0.57998   0.83403   0.75344   0.00000  Uiso   1.00
C1517  C     0.50027   0.83129   0.61508   0.00000  Uiso   1.00
C1518  C     0.46632   0.81662   0.90766   0.00000  Uiso   1.00
C1519  C     0.53781   0.84058   0.59321   0.00000  Uiso   1.00
C1520  C     0.46937   0.80507   0.95321   0.00000  Uiso   1.00
C1521  C     0.54149   0.83105   0.54715   0.00000  Uiso   1.00
C1522  C     0.50585   0.81724   0.97663   0.00000  Uiso   1.00
C1523  C     0.50581   0.81641   0.52348   0.00000  Uiso   1.00
C1524  C     0.54159   0.83263   0.95350   0.00000  Uiso   1.00
C1525  C     0.46954   0.80247   0.54646   0.00000  Uiso   1.00
C1526  C     0.43787   0.77975   0.97571   0.00000  Uiso   1.00
C1527  C     0.43847   0.77760   0.52292   0.00000  Uiso   1.00
C1528  C     0.57974   0.83385   0.52399   0.00000  Uiso   1.00
C1529  C     0.57029   0.87268   0.88523   0.00000  Uiso   1.00
C1530  C     0.42510   0.81044   0.61477   0.00000  Uiso   1.00
C1531  C     0.42524   0.82228   0.88640   0.00000  Uiso   1.00
C1532  C     0.57170   0.86351   0.61824   0.00000  Uiso   1.00
C1533  C     0.40912   0.74987   0.94969   0.00000  Uiso   1.00
C1534  C     0.61916   0.82770   0.54848   0.00000  Uiso   1.00
C1535  C     0.41211   0.74349   0.54719   0.00000  Uiso   1.00
C1536  C     0.61896   0.82901   0.95185   0.00000  Uiso   1.00
C1537  C     0.37308   0.74885   0.77478   0.00000  Uiso   1.00
C1538  C     0.57974   0.83453   0.97676   0.00000  Uiso   1.00
C1539  C     0.62761   0.92029   0.74024   0.00000  Uiso   1.00
C1540  C     0.62162   0.75821   0.79591   0.00000  Uiso   1.00
C1541  C     0.37634   0.90821   0.70861   0.00000  Uiso   1.00
C1542  C     0.35317   0.79286   0.76483   0.00000  Uiso   1.00
C1543  C     0.64681   0.87510   0.74479   0.00000  Uiso   1.00
C1544  C     0.64439   0.79606   0.77248   0.00000  Uiso   1.00
C1545  C     0.35491   0.87123   0.73460   0.00000  Uiso   1.00
C1546  C     0.62433   0.83585   0.75895   0.00000  Uiso   1.00
H1547  H     0.60526   0.93012   0.88768   0.00000  Uiso   1.00
H1548  H     0.60966   0.97103   0.69955   0.00000  Uiso   1.00
H1549  H     0.60734   0.69139   0.79916   0.00000  Uiso   1.00
H1550  H     0.40924   0.92553   0.65358   0.00000  Uiso   1.00
H1551  H     0.52792   0.70917   0.81406   0.00000  Uiso   1.00
H1552  H     0.47235   0.95754   0.68585   0.00000  Uiso   1.00
H1553  H     0.47211   0.70847   0.68590   0.00000  Uiso   1.00
H1554  H     0.52825   0.95819   0.81392   0.00000  Uiso   1.00
H1555  H     0.38935   0.78319   0.66349   0.00000  Uiso   1.00
H1556  H     0.36948   0.85055   0.88992   0.00000  Uiso   1.00
H1557  H     0.61867   0.85660   0.66133   0.00000  Uiso   1.00
H1558  H     0.40258   0.70234   0.90165   0.00000  Uiso   1.00
H1559  H     0.65155   0.78883   0.59107   0.00000  Uiso   1.00
H1560  H     0.40967   0.69174   0.59180   0.00000  Uiso   1.00
H1561  H     0.64933   0.79407   0.90471   0.00000  Uiso   1.00
H1562  H     0.40151   0.69417   0.75068   0.00000  Uiso   1.00
N1563  N     0.50000   0.95240   0.75000   0.00000  Uiso   1.00
N1564  N     0.50000   0.71427   0.75000   0.00000  Uiso   1.00
O1565  O     0.43892   0.87154   0.74999   0.00000  Uiso   1.00
O1566  O     0.58348   0.91300   0.90581   0.00000  Uiso   1.00
O1567  O     0.39639   0.83130   0.59876   0.00000  Uiso   1.00
O1568  O     0.41897   0.78324   0.65276   0.00000  Uiso   1.00
O1569  O     0.41802   0.80687   0.84930   0.00000  Uiso   1.00
O1570  O     0.39513   0.84651   0.90882   0.00000  Uiso   1.00
O1571  O     0.58160   0.90280   0.60918   0.00000  Uiso   1.00
O1572  O     0.59321   0.83935   0.65071   0.00000  Uiso   1.00
O1573  O     0.37190   0.75186   0.95516   0.00000  Uiso   1.00
O1574  O     0.42497   0.72050   0.91771   0.00000  Uiso   1.00
O1575  O     0.64631   0.85715   0.54708   0.00000  Uiso   1.00
O1576  O     0.56108   0.79513   0.75000   0.00000  Uiso   1.00
O1577  O     0.62434   0.78854   0.57436   0.00000  Uiso   1.00
O1578  O     0.37467   0.74305   0.54274   0.00000  Uiso   1.00
O1579  O     0.43053   0.71275   0.57648   0.00000  Uiso   1.00
O1580  O     0.64795   0.85558   0.95748   0.00000  Uiso   1.00
O1581  O     0.62193   0.79376   0.92094   0.00000  Uiso   1.00
O1582  O     0.37456   0.73451   0.81327   0.00000  Uiso   1.00
O1583  O     0.38844   0.72308   0.73965   0.00000  Uiso   1.00
O1584  O     0.61555   0.93960   0.77375   0.00000  Uiso   1.00
O1585  O     0.62338   0.94050   0.69804   0.00000  Uiso   1.00
O1586  O     0.60040   0.76629   0.82860   0.00000  Uiso   1.00
O1587  O     0.56108   0.87154   0.75000   0.00000  Uiso   1.00
O1588  O     0.62392   0.71375   0.78011   0.00000  Uiso   1.00
O1589  O     0.37687   0.94725   0.72231   0.00000  Uiso   1.00
O1590  O     0.39652   0.89775   0.66881   0.00000  Uiso   1.00
O1591  O     0.43892   0.79513   0.74999   0.00000  Uiso   1.00
O1592  O     0.49999   0.87156   0.68392   0.00000  Uiso   1.00
O1593  O     0.50001   0.79511   0.81607   0.00000  Uiso   1.00
O1594  O     0.50001   0.87156   0.81607   0.00000  Uiso   1.00
O1595  O     0.49999   0.79511   0.68392   0.00000  Uiso   1.00
O1596  O     0.58513   0.86169   0.84947   0.00000  Uiso   1.00
Zn1597 Zn    0.50000   0.88437   0.75000   0.00000  Uiso   1.00
Zn1598 Zn    0.50000   0.78229   0.75000   0.00000  Uiso   1.00
C1599  C     0.75315   0.83264   0.74818   0.00000  Uiso   1.00
C1600  C     0.70855   0.83120   0.74717   0.00000  Uiso   1.00
C1601  C     0.84884   0.69085   0.78561   0.00000  Uiso   1.00
C1602  C     0.81793   0.97583   0.71435   0.00000  Uiso   1.00
C1603  C     0.81793   0.69048   0.71433   0.00000  Uiso   1.00
C1604  C     0.84894   0.97619   0.78556   0.00000  Uiso   1.00
C1605  C     0.83244   0.83321   0.66331   0.00000  Uiso   1.00
C1606  C     0.83412   0.83329   0.83666   0.00000  Uiso   1.00
C1607  C     0.87177   0.84325   0.90755   0.00000  Uiso   1.00
C1608  C     0.79934   0.81268   0.59228   0.00000  Uiso   1.00
C1609  C     0.83496   0.83230   0.88487   0.00000  Uiso   1.00
C1610  C     0.91331   0.83403   0.75344   0.00000  Uiso   1.00
C1611  C     0.83360   0.83129   0.61508   0.00000  Uiso   1.00
C1612  C     0.79966   0.81662   0.90766   0.00000  Uiso   1.00
C1613  C     0.87114   0.84058   0.59321   0.00000  Uiso   1.00
C1614  C     0.80270   0.80507   0.95321   0.00000  Uiso   1.00
C1615  C     0.87482   0.83105   0.54715   0.00000  Uiso   1.00
C1616  C     0.83918   0.81724   0.97663   0.00000  Uiso   1.00
C1617  C     0.83914   0.81641   0.52348   0.00000  Uiso   1.00
C1618  C     0.87492   0.83263   0.95350   0.00000  Uiso   1.00
C1619  C     0.80287   0.80247   0.54646   0.00000  Uiso   1.00
C1620  C     0.77121   0.77975   0.97571   0.00000  Uiso   1.00
C1621  C     0.77181   0.77760   0.52292   0.00000  Uiso   1.00
C1622  C     0.91307   0.83385   0.52399   0.00000  Uiso   1.00
C1623  C     0.90362   0.87268   0.88523   0.00000  Uiso   1.00
C1624  C     0.75843   0.81044   0.61477   0.00000  Uiso   1.00
C1625  C     0.75857   0.82228   0.88640   0.00000  Uiso   1.00
C1626  C     0.90503   0.86351   0.61824   0.00000  Uiso   1.00
C1627  C     0.74245   0.74987   0.94969   0.00000  Uiso   1.00
C1628  C     0.95249   0.82770   0.54848   0.00000  Uiso   1.00
C1629  C     0.74544   0.74349   0.54719   0.00000  Uiso   1.00
C1630  C     0.95230   0.82901   0.95185   0.00000  Uiso   1.00
C1631  C     0.70641   0.74885   0.77478   0.00000  Uiso   1.00
C1632  C     0.91307   0.83453   0.97676   0.00000  Uiso   1.00
C1633  C     0.96094   0.92029   0.74024   0.00000  Uiso   1.00
C1634  C     0.95496   0.75821   0.79591   0.00000  Uiso   1.00
C1635  C     0.70967   0.90821   0.70861   0.00000  Uiso   1.00
C1636  C     0.68651   0.79286   0.76483   0.00000  Uiso   1.00
C1637  C     0.98014   0.87510   0.74479   0.00000  Uiso   1.00
C1638  C     0.97773   0.79606   0.77248   0.00000  Uiso   1.00
C1639  C     0.68824   0.87123   0.73460   0.00000  Uiso   1.00
C1640  C     0.95766   0.83585   0.75895   0.00000  Uiso   1.00
H1641  H     0.93860   0.93012   0.88768   0.00000  Uiso   1.00
H1642  H     0.94300   0.97103   0.69955   0.00000  Uiso   1.00
H1643  H     0.94067   0.69139   0.79916   0.00000  Uiso   1.00
H1644  H     0.74258   0.92553   0.65358   0.00000  Uiso   1.00
H1645  H     0.86125   0.70917   0.81406   0.00000  Uiso   1.00
H1646  H     0.80568   0.95754   0.68585   0.00000  Uiso   1.00
H1647  H     0.80544   0.70847   0.68590   0.00000  Uiso   1.00
H1648  H     0.86158   0.95819   0.81392   0.00000  Uiso   1.00
H1649  H     0.72268   0.78319   0.66349   0.00000  Uiso   1.00
H1650  H     0.70282   0.85055   0.88992   0.00000  Uiso   1.00
H1651  H     0.95200   0.85660   0.66133   0.00000  Uiso   1.00
H1652  H     0.73591   0.70234   0.90165   0.00000  Uiso   1.00
H1653  H     0.98489   0.78883   0.59107   0.00000  Uiso   1.00
H1654  H     0.74301   0.69174   0.59180   0.00000  Uiso   1.00
H1655  H     0.98266   0.79407   0.90471   0.00000  Uiso   1.00
H1656  H     0.73484   0.69417   0.75068   0.00000  Uiso   1.00
N1657  N     0.83333   0.95240   0.75000   0.00000  Uiso   1.00
N1658  N     0.83333   0.71427   0.75000   0.00000  Uiso   1.00
O1659  O     0.77226   0.87154   0.74999   0.00000  Uiso   1.00
O1660  O     0.91681   0.91300   0.90581   0.00000  Uiso   1.00
O1661  O     0.72973   0.83130   0.59876   0.00000  Uiso   1.00
O1662  O     0.75231   0.78324   0.65276   0.00000  Uiso   1.00
O1663  O     0.75136   0.80687   0.84930   0.00000  Uiso   1.00
O1664  O     0.72846   0.84651   0.90882   0.00000  Uiso   1.00
O1665  O     0.91493   0.90280   0.60918   0.00000  Uiso   1.00
O1666  O     0.92654   0.83935   0.65071   0.00000  Uiso   1.00
O1667  O     0.70523   0.75186   0.95516   0.00000  Uiso   1.00
O1668  O     0.75830   0.72050   0.91771   0.00000  Uiso   1.00
O1669  O     0.97964   0.85715   0.54708   0.00000  Uiso   1.00
O1670  O     0.89441   0.79513   0.75000   0.00000  Uiso   1.00
O1671  O     0.95767   0.78854   0.57436   0.00000  Uiso   1.00
O1672  O     0.70800   0.74305   0.54274   0.00000  Uiso   1.00
O1673  O     0.76387   0.71275   0.57648   0.00000  Uiso   1.00
O1674  O     0.98129   0.85558   0.95748   0.00000  Uiso   1.00
O1675  O     0.95526   0.79376   0.92094   0.00000  Uiso   1.00
O1676  O     0.70789   0.73451   0.81327   0.00000  Uiso   1.00
O1677  O     0.72177   0.72308   0.73965   0.00000  Uiso   1.00
O1678  O     0.94889   0.93960   0.77375   0.00000  Uiso   1.00
O1679  O     0.95672   0.94050   0.69804   0.00000  Uiso   1.00
O1680  O     0.93374   0.76629   0.82860   0.00000  Uiso   1.00
O1681  O     0.89441   0.87154   0.75000   0.00000  Uiso   1.00
O1682  O     0.95725   0.71375   0.78011   0.00000  Uiso   1.00
O1683  O     0.71021   0.94725   0.72231   0.00000  Uiso   1.00
O1684  O     0.72985   0.89775   0.66881   0.00000  Uiso   1.00
O1685  O     0.77226   0.79513   0.74999   0.00000  Uiso   1.00
O1686  O     0.83333   0.87156   0.68392   0.00000  Uiso   1.00
O1687  O     0.83334   0.79511   0.81607   0.00000  Uiso   1.00
O1688  O     0.83334   0.87156   0.81607   0.00000  Uiso   1.00
O1689  O     0.83333   0.79511   0.68392   0.00000  Uiso   1.00
O1690  O     0.91846   0.86169   0.84947   0.00000  Uiso   1.00
Zn1691 Zn    0.83333   0.88437   0.75000   0.00000  Uiso   1.00
Zn1692 Zn    0.83333   0.78229   0.75000   0.00000  Uiso   1.00
loop_
_geom_bond_atom_site_label_1
_geom_bond_atom_site_label_2
_geom_bond_distance
_geom_bond_site_symmetry_2
_ccdc_geom_bond_type
C1     O87     1.280   .     A
C1     C2      1.447   .     S
C1     O61     1.291   .     A
C2     C41     1.412   .     A
C2     C38     1.422   .     A
C3     N60     1.365   .     A
C3     H47     1.081   .     S
C3     C570    1.413   1_545 S
C4     H48     1.080   .     S
C4     N59     1.365   .     A
C4     C287    1.413   .     S
C5     H49     1.081   .     S
C5     N60     1.366   .     A
C5     C568    1.413   1_545 S
C6     H50     1.082   .     S
C6     N59     1.366   .     A
C6     C285    1.413   .     S
C7     O88     1.289   .     A
C7     O91     1.278   .     A
C7     C13     1.442   .     S
C8     O90     1.281   .     A
C8     C11     1.439   .     S
C8     O89     1.284   .     A
C9     C25     1.489   .     S
C9     C20     1.409   .     A
C9     C11     1.404   .     A
C10    C26     1.488   .     S
C10    C21     1.407   .     A
C10    C13     1.405   .     A
C11    C14     1.401   .     A
C12    C42     1.448   .     S
C12    O72     1.292   .     A
C12    O83     1.279   .     A
C13    C15     1.403   .     A
C14    C27     1.488   .     S
C14    C16     1.404   .     A
C15    C17     1.411   .     A
C15    C28     1.481   .     S
C16    C22     1.419   .     A
C16    C18     1.414   .     A
C17    C24     1.422   .     A
C17    C19     1.416   .     A
C18    C20     1.415   .     A
C18    C865    1.399   .     S
C19    C21     1.414   .     A
C19    C864    1.399   1_554 S
C20    C34     1.419   .     A
C21    C23     1.420   .     A
C22    C29     1.489   .     S
C22    C869    1.410   .     S
C23    C31     1.490   .     S
C23    C868    1.410   1_554 S
C24    C30     1.487   .     S
C24    C880    1.410   1_554 S
C25    O92     1.220   .     D
C25    O62     1.398   .     S
C26    O64     1.396   .     S
C26    O63     1.223   .     D
C27    O65     1.219   .     D
C27    O66     1.397   .     S
C28    O68     1.395   .     S
C28    O67     1.223   .     D
C29    O69     1.222   .     D
C29    O70     1.398   .     S
C30    O71     1.223   .     D
C30    O73     1.398   .     S
C31    O74     1.222   .     D
C31    O75     1.398   .     S
C32    O77     1.398   .     S
C32    C34     1.487   .     S
C32    O76     1.222   .     D
C33    O78     1.223   .     D
C33    O79     1.397   .     S
C33    C38     1.489   .     S
C34    C870    1.410   .     S
C35    O81     1.398   .     S
C35    O80     1.222   .     D
C35    C39     1.488   .     S
C36    O82     1.223   .     D
C36    C40     1.494   .     S
C36    O84     1.398   .     S
C37    O85     1.222   .     D
C37    O86     1.396   .     S
C37    C41     1.493   .     S
C38    C228    1.391   1_455 S
C39    C42     1.416   .     A
C39    C135    1.386   .     S
C40    C42     1.410   .     A
C40    C132    1.391   .     S
C41    C227    1.386   1_455 S
H43    O62     1.014   .     S
H44    O81     1.014   .     S
H45    O84     1.013   .     S
H46    O86     1.013   .     S
H51    O64     1.014   .     S
H52    O66     1.014   .     S
H53    O68     1.011   .     S
H54    O70     1.014   .     S
H55    O73     1.013   .     S
H56    O75     1.014   .     S
H57    O77     1.013   .     S
H58    O79     1.013   .     S
N59    Zn93    2.003   .     S
N60    Zn94    2.003   .     S
O61    Zn93    2.009   .     S
O72    Zn94    2.009   .     S
O83    Zn93    2.026   .     S
O87    Zn94    2.026   .     S
O88    Zn93    2.010   .     S
O89    Zn94    2.010   .     S
O90    Zn93    2.006   .     S
O91    Zn94    2.006   .     S
C95    O181    1.280   .     A
C95    C96     1.447   .     S
C95    O155    1.291   .     A
C96    C135    1.412   .     A
C96    C132    1.422   .     A
C97    N154    1.365   .     A
C97    H141    1.081   .     S
C97    C664    1.413   1_545 S
C98    H142    1.080   .     S
C98    N153    1.365   .     A
C98    C381    1.413   .     S
C99    H143    1.081   .     S
C99    N154    1.366   .     A
C99    C662    1.413   1_545 S
C100   H144    1.082   .     S
C100   N153    1.366   .     A
C100   C379    1.413   .     S
C101   O182    1.289   .     A
C101   O185    1.278   .     A
C101   C107    1.442   .     S
C102   O184    1.281   .     A
C102   C105    1.439   .     S
C102   O183    1.284   .     A
C103   C119    1.489   .     S
C103   C114    1.409   .     A
C103   C105    1.404   .     A
C104   C120    1.488   .     S
C104   C115    1.407   .     A
C104   C107    1.405   .     A
C105   C108    1.401   .     A
C106   C136    1.448   .     S
C106   O166    1.292   .     A
C106   O177    1.279   .     A
C107   C109    1.403   .     A
C108   C121    1.488   .     S
C108   C110    1.404   .     A
C109   C111    1.411   .     A
C109   C122    1.481   .     S
C110   C116    1.419   .     A
C110   C112    1.414   .     A
C111   C118    1.422   .     A
C111   C113    1.416   .     A
C112   C114    1.415   .     A
C112   C959    1.399   .     S
C113   C115    1.414   .     A
C113   C958    1.399   1_554 S
C114   C128    1.419   .     A
C115   C117    1.420   .     A
C116   C123    1.489   .     S
C116   C963    1.410   .     S
C117   C125    1.490   .     S
C117   C962    1.410   1_554 S
C118   C124    1.487   .     S
C118   C974    1.410   1_554 S
C119   O186    1.220   .     D
C119   O156    1.398   .     S
C120   O158    1.396   .     S
C120   O157    1.223   .     D
C121   O159    1.219   .     D
C121   O160    1.397   .     S
C122   O162    1.395   .     S
C122   O161    1.223   .     D
C123   O163    1.222   .     D
C123   O164    1.398   .     S
C124   O165    1.223   .     D
C124   O167    1.398   .     S
C125   O168    1.222   .     D
C125   O169    1.398   .     S
C126   O171    1.398   .     S
C126   C128    1.487   .     S
C126   O170    1.222   .     D
C127   O172    1.223   .     D
C127   O173    1.397   .     S
C127   C132    1.489   .     S
C128   C964    1.410   .     S
C129   O175    1.398   .     S
C129   O174    1.222   .     D
C129   C133    1.488   .     S
C130   O176    1.223   .     D
C130   C134    1.494   .     S
C130   O178    1.398   .     S
C131   O179    1.222   .     D
C131   O180    1.396   .     S
C131   C135    1.493   .     S
C133   C136    1.416   .     A
C133   C229    1.386   .     S
C134   C136    1.410   .     A
C134   C226    1.391   .     S
H137   O156    1.014   .     S
H138   O175    1.014   .     S
H139   O178    1.013   .     S
H140   O180    1.013   .     S
H145   O158    1.014   .     S
H146   O160    1.014   .     S
H147   O162    1.011   .     S
H148   O164    1.014   .     S
H149   O167    1.013   .     S
H150   O169    1.014   .     S
H151   O171    1.013   .     S
H152   O173    1.013   .     S
N153   Zn187   2.003   .     S
N154   Zn188   2.003   .     S
O155   Zn187   2.009   .     S
O166   Zn188   2.009   .     S
O177   Zn187   2.026   .     S
O181   Zn188   2.026   .     S
O182   Zn187   2.010   .     S
O183   Zn188   2.010   .     S
O184   Zn187   2.006   .     S
O185   Zn188   2.006   .     S
C189   O275    1.280   .     A
C189   C190    1.447   .     S
C189   O249    1.291   .     A
C190   C229    1.412   .     A
C190   C226    1.422   .     A
C191   N248    1.365   .     A
C191   H235    1.081   .     S
C191   C758    1.413   1_545 S
C192   H236    1.080   .     S
C192   N247    1.365   .     A
C192   C475    1.413   .     S
C193   H237    1.081   .     S
C193   N248    1.366   .     A
C193   C756    1.413   1_545 S
C194   H238    1.082   .     S
C194   N247    1.366   .     A
C194   C473    1.413   .     S
C195   O276    1.289   .     A
C195   O279    1.278   .     A
C195   C201    1.442   .     S
C196   O278    1.281   .     A
C196   C199    1.439   .     S
C196   O277    1.284   .     A
C197   C213    1.489   .     S
C197   C208    1.409   .     A
C197   C199    1.404   .     A
C198   C214    1.488   .     S
C198   C209    1.407   .     A
C198   C201    1.405   .     A
C199   C202    1.401   .     A
C200   C230    1.448   .     S
C200   O260    1.292   .     A
C200   O271    1.279   .     A
C201   C203    1.403   .     A
C202   C215    1.488   .     S
C202   C204    1.404   .     A
C203   C205    1.411   .     A
C203   C216    1.481   .     S
C204   C210    1.419   .     A
C204   C206    1.414   .     A
C205   C212    1.422   .     A
C205   C207    1.416   .     A
C206   C208    1.415   .     A
C206   C1053   1.399   .     S
C207   C209    1.414   .     A
C207   C1052   1.399   1_554 S
C208   C222    1.419   .     A
C209   C211    1.420   .     A
C210   C217    1.489   .     S
C210   C1057   1.410   .     S
C211   C219    1.490   .     S
C211   C1056   1.410   1_554 S
C212   C218    1.487   .     S
C212   C1068   1.410   1_554 S
C213   O280    1.220   .     D
C213   O250    1.398   .     S
C214   O252    1.396   .     S
C214   O251    1.223   .     D
C215   O253    1.219   .     D
C215   O254    1.397   .     S
C216   O256    1.395   .     S
C216   O255    1.223   .     D
C217   O257    1.222   .     D
C217   O258    1.398   .     S
C218   O259    1.223   .     D
C218   O261    1.398   .     S
C219   O262    1.222   .     D
C219   O263    1.398   .     S
C220   O265    1.398   .     S
C220   C222    1.487   .     S
C220   O264    1.222   .     D
C221   O266    1.223   .     D
C221   O267    1.397   .     S
C221   C226    1.489   .     S
C222   C1058   1.410   .     S
C223   O269    1.398   .     S
C223   O268    1.222   .     D
C223   C227    1.488   .     S
C224   O270    1.223   .     D
C224   C228    1.494   .     S
C224   O272    1.398   .     S
C225   O273    1.222   .     D
C225   O274    1.396   .     S
C225   C229    1.493   .     S
C227   C230    1.416   .     A
C227   C41     1.386   1_655 S
C228   C230    1.410   .     A
C228   C38     1.391   1_655 S
H231   O250    1.014   .     S
H232   O269    1.014   .     S
H233   O272    1.013   .     S
H234   O274    1.013   .     S
H239   O252    1.014   .     S
H240   O254    1.014   .     S
H241   O256    1.011   .     S
H242   O258    1.014   .     S
H243   O261    1.013   .     S
H244   O263    1.014   .     S
H245   O265    1.013   .     S
H246   O267    1.013   .     S
N247   Zn281   2.003   .     S
N248   Zn282   2.003   .     S
O249   Zn281   2.009   .     S
O260   Zn282   2.009   .     S
O271   Zn281   2.026   .     S
O275   Zn282   2.026   .     S
O276   Zn281   2.010   .     S
O277   Zn282   2.010   .     S
O278   Zn281   2.006   .     S
O279   Zn282   2.006   .     S
C283   O369    1.280   .     A
C283   C284    1.447   .     S
C283   O343    1.291   .     A
C284   C323    1.412   .     A
C284   C320    1.422   .     A
C285   N342    1.365   .     A
C285   H329    1.081   .     S
C286   H330    1.080   .     S
C286   N341    1.365   .     A
C286   C569    1.413   .     S
C287   H331    1.081   .     S
C287   N342    1.366   .     A
C288   H332    1.082   .     S
C288   N341    1.366   .     A
C288   C567    1.413   .     S
C289   O370    1.289   .     A
C289   O373    1.278   .     A
C289   C295    1.442   .     S
C290   O372    1.281   .     A
C290   C293    1.439   .     S
C290   O371    1.284   .     A
C291   C307    1.489   .     S
C291   C302    1.409   .     A
C291   C293    1.404   .     A
C292   C308    1.488   .     S
C292   C303    1.407   .     A
C292   C295    1.405   .     A
C293   C296    1.401   .     A
C294   C324    1.448   .     S
C294   O354    1.292   .     A
C294   O365    1.279   .     A
C295   C297    1.403   .     A
C296   C309    1.488   .     S
C296   C298    1.404   .     A
C297   C299    1.411   .     A
C297   C310    1.481   .     S
C298   C304    1.419   .     A
C298   C300    1.414   .     A
C299   C306    1.422   .     A
C299   C301    1.416   .     A
C300   C302    1.415   .     A
C300   C1147   1.399   .     S
C301   C303    1.414   .     A
C301   C1146   1.399   1_554 S
C302   C316    1.419   .     A
C303   C305    1.420   .     A
C304   C311    1.489   .     S
C304   C1151   1.410   .     S
C305   C313    1.490   .     S
C305   C1150   1.410   1_554 S
C306   C312    1.487   .     S
C306   C1162   1.410   1_554 S
C307   O374    1.220   .     D
C307   O344    1.398   .     S
C308   O346    1.396   .     S
C308   O345    1.223   .     D
C309   O347    1.219   .     D
C309   O348    1.397   .     S
C310   O350    1.395   .     S
C310   O349    1.223   .     D
C311   O351    1.222   .     D
C311   O352    1.398   .     S
C312   O353    1.223   .     D
C312   O355    1.398   .     S
C313   O356    1.222   .     D
C313   O357    1.398   .     S
C314   O359    1.398   .     S
C314   C316    1.487   .     S
C314   O358    1.222   .     D
C315   O360    1.223   .     D
C315   O361    1.397   .     S
C315   C320    1.489   .     S
C316   C1152   1.410   .     S
C317   O363    1.398   .     S
C317   O362    1.222   .     D
C317   C321    1.488   .     S
C318   O364    1.223   .     D
C318   C322    1.494   .     S
C318   O366    1.398   .     S
C319   O367    1.222   .     D
C319   O368    1.396   .     S
C319   C323    1.493   .     S
C320   C510    1.391   1_455 S
C321   C324    1.416   .     A
C321   C417    1.386   .     S
C322   C324    1.410   .     A
C322   C414    1.391   .     S
C323   C509    1.386   1_455 S
H325   O344    1.014   .     S
H326   O363    1.014   .     S
H327   O366    1.013   .     S
H328   O368    1.013   .     S
H333   O346    1.014   .     S
H334   O348    1.014   .     S
H335   O350    1.011   .     S
H336   O352    1.014   .     S
H337   O355    1.013   .     S
H338   O357    1.014   .     S
H339   O359    1.013   .     S
H340   O361    1.013   .     S
N341   Zn375   2.003   .     S
N342   Zn376   2.003   .     S
O343   Zn375   2.009   .     S
O354   Zn376   2.009   .     S
O365   Zn375   2.026   .     S
O369   Zn376   2.026   .     S
O370   Zn375   2.010   .     S
O371   Zn376   2.010   .     S
O372   Zn375   2.006   .     S
O373   Zn376   2.006   .     S
C377   O463    1.280   .     A
C377   C378    1.447   .     S
C377   O437    1.291   .     A
C378   C417    1.412   .     A
C378   C414    1.422   .     A
C379   N436    1.365   .     A
C379   H423    1.081   .     S
C380   H424    1.080   .     S
C380   N435    1.365   .     A
C380   C663    1.413   .     S
C381   H425    1.081   .     S
C381   N436    1.366   .     A
C382   H426    1.082   .     S
C382   N435    1.366   .     A
C382   C661    1.413   .     S
C383   O464    1.289   .     A
C383   O467    1.278   .     A
C383   C389    1.442   .     S
C384   O466    1.281   .     A
C384   C387    1.439   .     S
C384   O465    1.284   .     A
C385   C401    1.489   .     S
C385   C396    1.409   .     A
C385   C387    1.404   .     A
C386   C402    1.488   .     S
C386   C397    1.407   .     A
C386   C389    1.405   .     A
C387   C390    1.401   .     A
C388   C418    1.448   .     S
C388   O448    1.292   .     A
C388   O459    1.279   .     A
C389   C391    1.403   .     A
C390   C403    1.488   .     S
C390   C392    1.404   .     A
C391   C393    1.411   .     A
C391   C404    1.481   .     S
C392   C398    1.419   .     A
C392   C394    1.414   .     A
C393   C400    1.422   .     A
C393   C395    1.416   .     A
C394   C396    1.415   .     A
C394   C1241   1.399   .     S
C395   C397    1.414   .     A
C395   C1240   1.399   1_554 S
C396   C410    1.419   .     A
C397   C399    1.420   .     A
C398   C405    1.489   .     S
C398   C1245   1.410   .     S
C399   C407    1.490   .     S
C399   C1244   1.410   1_554 S
C400   C406    1.487   .     S
C400   C1256   1.410   1_554 S
C401   O468    1.220   .     D
C401   O438    1.398   .     S
C402   O440    1.396   .     S
C402   O439    1.223   .     D
C403   O441    1.219   .     D
C403   O442    1.397   .     S
C404   O444    1.395   .     S
C404   O443    1.223   .     D
C405   O445    1.222   .     D
C405   O446    1.398   .     S
C406   O447    1.223   .     D
C406   O449    1.398   .     S
C407   O450    1.222   .     D
C407   O451    1.398   .     S
C408   O453    1.398   .     S
C408   C410    1.487   .     S
C408   O452    1.222   .     D
C409   O454    1.223   .     D
C409   O455    1.397   .     S
C409   C414    1.489   .     S
C410   C1246   1.410   .     S
C411   O457    1.398   .     S
C411   O456    1.222   .     D
C411   C415    1.488   .     S
C412   O458    1.223   .     D
C412   C416    1.494   .     S
C412   O460    1.398   .     S
C413   O461    1.222   .     D
C413   O462    1.396   .     S
C413   C417    1.493   .     S
C415   C418    1.416   .     A
C415   C511    1.386   .     S
C416   C418    1.410   .     A
C416   C508    1.391   .     S
H419   O438    1.014   .     S
H420   O457    1.014   .     S
H421   O460    1.013   .     S
H422   O462    1.013   .     S
H427   O440    1.014   .     S
H428   O442    1.014   .     S
H429   O444    1.011   .     S
H430   O446    1.014   .     S
H431   O449    1.013   .     S
H432   O451    1.014   .     S
H433   O453    1.013   .     S
H434   O455    1.013   .     S
N435   Zn469   2.003   .     S
N436   Zn470   2.003   .     S
O437   Zn469   2.009   .     S
O448   Zn470   2.009   .     S
O459   Zn469   2.026   .     S
O463   Zn470   2.026   .     S
O464   Zn469   2.010   .     S
O465   Zn470   2.010   .     S
O466   Zn469   2.006   .     S
O467   Zn470   2.006   .     S
C471   O557    1.280   .     A
C471   C472    1.447   .     S
C471   O531    1.291   .     A
C472   C511    1.412   .     A
C472   C508    1.422   .     A
C473   N530    1.365   .     A
C473   H517    1.081   .     S
C474   H518    1.080   .     S
C474   N529    1.365   .     A
C474   C757    1.413   .     S
C475   H519    1.081   .     S
C475   N530    1.366   .     A
C476   H520    1.082   .     S
C476   N529    1.366   .     A
C476   C755    1.413   .     S
C477   O558    1.289   .     A
C477   O561    1.278   .     A
C477   C483    1.442   .     S
C478   O560    1.281   .     A
C478   C481    1.439   .     S
C478   O559    1.284   .     A
C479   C495    1.489   .     S
C479   C490    1.409   .     A
C479   C481    1.404   .     A
C480   C496    1.488   .     S
C480   C491    1.407   .     A
C480   C483    1.405   .     A
C481   C484    1.401   .     A
C482   C512    1.448   .     S
C482   O542    1.292   .     A
C482   O553    1.279   .     A
C483   C485    1.403   .     A
C484   C497    1.488   .     S
C484   C486    1.404   .     A
C485   C487    1.411   .     A
C485   C498    1.481   .     S
C486   C492    1.419   .     A
C486   C488    1.414   .     A
C487   C494    1.422   .     A
C487   C489    1.416   .     A
C488   C490    1.415   .     A
C488   C1335   1.399   .     S
C489   C491    1.414   .     A
C489   C1334   1.399   1_554 S
C490   C504    1.419   .     A
C491   C493    1.420   .     A
C492   C499    1.489   .     S
C492   C1339   1.410   .     S
C493   C501    1.490   .     S
C493   C1338   1.410   1_554 S
C494   C500    1.487   .     S
C494   C1350   1.410   1_554 S
C495   O562    1.220   .     D
C495   O532    1.398   .     S
C496   O534    1.396   .     S
C496   O533    1.223   .     D
C497   O535    1.219   .     D
C497   O536    1.397   .     S
C498   O538    1.395   .     S
C498   O537    1.223   .     D
C499   O539    1.222   .     D
C499   O540    1.398   .     S
C500   O541    1.223   .     D
C500   O543    1.398   .     S
C501   O544    1.222   .     D
C501   O545    1.398   .     S
C502   O547    1.398   .     S
C502   C504    1.487   .     S
C502   O546    1.222   .     D
C503   O548    1.223   .     D
C503   O549    1.397   .     S
C503   C508    1.489   .     S
C504   C1340   1.410   .     S
C505   O551    1.398   .     S
C505   O550    1.222   .     D
C505   C509    1.488   .     S
C506   O552    1.223   .     D
C506   C510    1.494   .     S
C506   O554    1.398   .     S
C507   O555    1.222   .     D
C507   O556    1.396   .     S
C507   C511    1.493   .     S
C509   C512    1.416   .     A
C509   C323    1.386   1_655 S
C510   C512    1.410   .     A
C510   C320    1.391   1_655 S
H513   O532    1.014   .     S
H514   O551    1.014   .     S
H515   O554    1.013   .     S
H516   O556    1.013   .     S
H521   O534    1.014   .     S
H522   O536    1.014   .     S
H523   O538    1.011   .     S
H524   O540    1.014   .     S
H525   O543    1.013   .     S
H526   O545    1.014   .     S
H527   O547    1.013   .     S
H528   O549    1.013   .     S
N529   Zn563   2.003   .     S
N530   Zn564   2.003   .     S
O531   Zn563   2.009   .     S
O542   Zn564   2.009   .     S
O553   Zn563   2.026   .     S
O557   Zn564   2.026   .     S
O558   Zn563   2.010   .     S
O559   Zn564   2.010   .     S
O560   Zn563   2.006   .     S
O561   Zn564   2.006   .     S
C565   O651    1.280   .     A
C565   C566    1.447   .     S
C565   O625    1.291   .     A
C566   C605    1.412   .     A
C566   C602    1.422   .     A
C567   N624    1.365   .     A
C567   H611    1.081   .     S
C568   H612    1.080   .     S
C568   N623    1.365   .     A
C568   C5      1.413   1_565 S
C569   H613    1.081   .     S
C569   N624    1.366   .     A
C570   H614    1.082   .     S
C570   N623    1.366   .     A
C570   C3      1.413   1_565 S
C571   O652    1.289   .     A
C571   O655    1.278   .     A
C571   C577    1.442   .     S
C572   O654    1.281   .     A
C572   C575    1.439   .     S
C572   O653    1.284   .     A
C573   C589    1.489   .     S
C573   C584    1.409   .     A
C573   C575    1.404   .     A
C574   C590    1.488   .     S
C574   C585    1.407   .     A
C574   C577    1.405   .     A
C575   C578    1.401   .     A
C576   C606    1.448   .     S
C576   O636    1.292   .     A
C576   O647    1.279   .     A
C577   C579    1.403   .     A
C578   C591    1.488   .     S
C578   C580    1.404   .     A
C579   C581    1.411   .     A
C579   C592    1.481   .     S
C580   C586    1.419   .     A
C580   C582    1.414   .     A
C581   C588    1.422   .     A
C581   C583    1.416   .     A
C582   C584    1.415   .     A
C582   C1429   1.399   .     S
C583   C585    1.414   .     A
C583   C1428   1.399   1_554 S
C584   C598    1.419   .     A
C585   C587    1.420   .     A
C586   C593    1.489   .     S
C586   C1433   1.410   .     S
C587   C595    1.490   .     S
C587   C1432   1.410   1_554 S
C588   C594    1.487   .     S
C588   C1444   1.410   1_554 S
C589   O656    1.220   .     D
C589   O626    1.398   .     S
C590   O628    1.396   .     S
C590   O627    1.223   .     D
C591   O629    1.219   .     D
C591   O630    1.397   .     S
C592   O632    1.395   .     S
C592   O631    1.223   .     D
C593   O633    1.222   .     D
C593   O634    1.398   .     S
C594   O635    1.223   .     D
C594   O637    1.398   .     S
C595   O638    1.222   .     D
C595   O639    1.398   .     S
C596   O641    1.398   .     S
C596   C598    1.487   .     S
C596   O640    1.222   .     D
C597   O642    1.223   .     D
C597   O643    1.397   .     S
C597   C602    1.489   .     S
C598   C1434   1.410   .     S
C599   O645    1.398   .     S
C599   O644    1.222   .     D
C599   C603    1.488   .     S
C600   O646    1.223   .     D
C600   C604    1.494   .     S
C600   O648    1.398   .     S
C601   O649    1.222   .     D
C601   O650    1.396   .     S
C601   C605    1.493   .     S
C602   C792    1.391   1_455 S
C603   C606    1.416   .     A
C603   C699    1.386   .     S
C604   C606    1.410   .     A
C604   C696    1.391   .     S
C605   C791    1.386   1_455 S
H607   O626    1.014   .     S
H608   O645    1.014   .     S
H609   O648    1.013   .     S
H610   O650    1.013   .     S
H615   O628    1.014   .     S
H616   O630    1.014   .     S
H617   O632    1.011   .     S
H618   O634    1.014   .     S
H619   O637    1.013   .     S
H620   O639    1.014   .     S
H621   O641    1.013   .     S
H622   O643    1.013   .     S
N623   Zn657   2.003   .     S
N624   Zn658   2.003   .     S
O625   Zn657   2.009   .     S
O636   Zn658   2.009   .     S
O647   Zn657   2.026   .     S
O651   Zn658   2.026   .     S
O652   Zn657   2.010   .     S
O653   Zn658   2.010   .     S
O654   Zn657   2.006   .     S
O655   Zn658   2.006   .     S
C659   O745    1.280   .     A
C659   C660    1.447   .     S
C659   O719    1.291   .     A
C660   C699    1.412   .     A
C660   C696    1.422   .     A
C661   N718    1.365   .     A
C661   H705    1.081   .     S
C662   H706    1.080   .     S
C662   N717    1.365   .     A
C662   C99     1.413   1_565 S
C663   H707    1.081   .     S
C663   N718    1.366   .     A
C664   H708    1.082   .     S
C664   N717    1.366   .     A
C664   C97     1.413   1_565 S
C665   O746    1.289   .     A
C665   O749    1.278   .     A
C665   C671    1.442   .     S
C666   O748    1.281   .     A
C666   C669    1.439   .     S
C666   O747    1.284   .     A
C667   C683    1.489   .     S
C667   C678    1.409   .     A
C667   C669    1.404   .     A
C668   C684    1.488   .     S
C668   C679    1.407   .     A
C668   C671    1.405   .     A
C669   C672    1.401   .     A
C670   C700    1.448   .     S
C670   O730    1.292   .     A
C670   O741    1.279   .     A
C671   C673    1.403   .     A
C672   C685    1.488   .     S
C672   C674    1.404   .     A
C673   C675    1.411   .     A
C673   C686    1.481   .     S
C674   C680    1.419   .     A
C674   C676    1.414   .     A
C675   C682    1.422   .     A
C675   C677    1.416   .     A
C676   C678    1.415   .     A
C676   C1523   1.399   .     S
C677   C679    1.414   .     A
C677   C1522   1.399   1_554 S
C678   C692    1.419   .     A
C679   C681    1.420   .     A
C680   C687    1.489   .     S
C680   C1527   1.410   .     S
C681   C689    1.490   .     S
C681   C1526   1.410   1_554 S
C682   C688    1.487   .     S
C682   C1538   1.410   1_554 S
C683   O750    1.220   .     D
C683   O720    1.398   .     S
C684   O722    1.396   .     S
C684   O721    1.223   .     D
C685   O723    1.219   .     D
C685   O724    1.397   .     S
C686   O726    1.395   .     S
C686   O725    1.223   .     D
C687   O727    1.222   .     D
C687   O728    1.398   .     S
C688   O729    1.223   .     D
C688   O731    1.398   .     S
C689   O732    1.222   .     D
C689   O733    1.398   .     S
C690   O735    1.398   .     S
C690   C692    1.487   .     S
C690   O734    1.222   .     D
C691   O736    1.223   .     D
C691   O737    1.397   .     S
C691   C696    1.489   .     S
C692   C1528   1.410   .     S
C693   O739    1.398   .     S
C693   O738    1.222   .     D
C693   C697    1.488   .     S
C694   O740    1.223   .     D
C694   C698    1.494   .     S
C694   O742    1.398   .     S
C695   O743    1.222   .     D
C695   O744    1.396   .     S
C695   C699    1.493   .     S
C697   C700    1.416   .     A
C697   C793    1.386   .     S
C698   C700    1.410   .     A
C698   C790    1.391   .     S
H701   O720    1.014   .     S
H702   O739    1.014   .     S
H703   O742    1.013   .     S
H704   O744    1.013   .     S
H709   O722    1.014   .     S
H710   O724    1.014   .     S
H711   O726    1.011   .     S
H712   O728    1.014   .     S
H713   O731    1.013   .     S
H714   O733    1.014   .     S
H715   O735    1.013   .     S
H716   O737    1.013   .     S
N717   Zn751   2.003   .     S
N718   Zn752   2.003   .     S
O719   Zn751   2.009   .     S
O730   Zn752   2.009   .     S
O741   Zn751   2.026   .     S
O745   Zn752   2.026   .     S
O746   Zn751   2.010   .     S
O747   Zn752   2.010   .     S
O748   Zn751   2.006   .     S
O749   Zn752   2.006   .     S
C753   O839    1.280   .     A
C753   C754    1.447   .     S
C753   O813    1.291   .     A
C754   C793    1.412   .     A
C754   C790    1.422   .     A
C755   N812    1.365   .     A
C755   H799    1.081   .     S
C756   H800    1.080   .     S
C756   N811    1.365   .     A
C756   C193    1.413   1_565 S
C757   H801    1.081   .     S
C757   N812    1.366   .     A
C758   H802    1.082   .     S
C758   N811    1.366   .     A
C758   C191    1.413   1_565 S
C759   O840    1.289   .     A
C759   O843    1.278   .     A
C759   C765    1.442   .     S
C760   O842    1.281   .     A
C760   C763    1.439   .     S
C760   O841    1.284   .     A
C761   C777    1.489   .     S
C761   C772    1.409   .     A
C761   C763    1.404   .     A
C762   C778    1.488   .     S
C762   C773    1.407   .     A
C762   C765    1.405   .     A
C763   C766    1.401   .     A
C764   C794    1.448   .     S
C764   O824    1.292   .     A
C764   O835    1.279   .     A
C765   C767    1.403   .     A
C766   C779    1.488   .     S
C766   C768    1.404   .     A
C767   C769    1.411   .     A
C767   C780    1.481   .     S
C768   C774    1.419   .     A
C768   C770    1.414   .     A
C769   C776    1.422   .     A
C769   C771    1.416   .     A
C770   C772    1.415   .     A
C770   C1617   1.399   .     S
C771   C773    1.414   .     A
C771   C1616   1.399   1_554 S
C772   C786    1.419   .     A
C773   C775    1.420   .     A
C774   C781    1.489   .     S
C774   C1621   1.410   .     S
C775   C783    1.490   .     S
C775   C1620   1.410   1_554 S
C776   C782    1.487   .     S
C776   C1632   1.410   1_554 S
C777   O844    1.220   .     D
C777   O814    1.398   .     S
C778   O816    1.396   .     S
C778   O815    1.223   .     D
C779   O817    1.219   .     D
C779   O818    1.397   .     S
C780   O820    1.395   .     S
C780   O819    1.223   .     D
C781   O821    1.222   .     D
C781   O822    1.398   .     S
C782   O823    1.223   .     D
C782   O825    1.398   .     S
C783   O826    1.222   .     D
C783   O827    1.398   .     S
C784   O829    1.398   .     S
C784   C786    1.487   .     S
C784   O828    1.222   .     D
C785   O830    1.223   .     D
C785   O831    1.397   .     S
C785   C790    1.489   .     S
C786   C1622   1.410   .     S
C787   O833    1.398   .     S
C787   O832    1.222   .     D
C787   C791    1.488   .     S
C788   O834    1.223   .     D
C788   C792    1.494   .     S
C788   O836    1.398   .     S
C789   O837    1.222   .     D
C789   O838    1.396   .     S
C789   C793    1.493   .     S
C791   C794    1.416   .     A
C791   C605    1.386   1_655 S
C792   C794    1.410   .     A
C792   C602    1.391   1_655 S
H795   O814    1.014   .     S
H796   O833    1.014   .     S
H797   O836    1.013   .     S
H798   O838    1.013   .     S
H803   O816    1.014   .     S
H804   O818    1.014   .     S
H805   O820    1.011   .     S
H806   O822    1.014   .     S
H807   O825    1.013   .     S
H808   O827    1.014   .     S
H809   O829    1.013   .     S
H810   O831    1.013   .     S
N811   Zn845   2.003   .     S
N812   Zn846   2.003   .     S
O813   Zn845   2.009   .     S
O824   Zn846   2.009   .     S
O835   Zn845   2.026   .     S
O839   Zn846   2.026   .     S
O840   Zn845   2.010   .     S
O841   Zn846   2.010   .     S
O842   Zn845   2.006   .     S
O843   Zn846   2.006   .     S
C847   O933    1.280   .     A
C847   C848    1.447   .     S
C847   O907    1.291   .     A
C848   C887    1.412   .     A
C848   C884    1.422   .     A
C849   N906    1.365   .     A
C849   H893    1.081   .     S
C849   C1416   1.413   1_545 S
C850   H894    1.080   .     S
C850   N905    1.365   .     A
C850   C1133   1.413   .     S
C851   H895    1.081   .     S
C851   N906    1.366   .     A
C851   C1414   1.413   1_545 S
C852   H896    1.082   .     S
C852   N905    1.366   .     A
C852   C1131   1.413   .     S
C853   O934    1.289   .     A
C853   O937    1.278   .     A
C853   C859    1.442   .     S
C854   O936    1.281   .     A
C854   C857    1.439   .     S
C854   O935    1.284   .     A
C855   C871    1.489   .     S
C855   C866    1.409   .     A
C855   C857    1.404   .     A
C856   C872    1.488   .     S
C856   C867    1.407   .     A
C856   C859    1.405   .     A
C857   C860    1.401   .     A
C858   C888    1.448   .     S
C858   O918    1.292   .     A
C858   O929    1.279   .     A
C859   C861    1.403   .     A
C860   C873    1.488   .     S
C860   C862    1.404   .     A
C861   C863    1.411   .     A
C861   C874    1.481   .     S
C862   C868    1.419   .     A
C862   C864    1.414   .     A
C863   C870    1.422   .     A
C863   C865    1.416   .     A
C864   C866    1.415   .     A
C864   C19     1.399   1_556 S
C865   C867    1.414   .     A
C866   C880    1.419   .     A
C867   C869    1.420   .     A
C868   C875    1.489   .     S
C868   C23     1.410   1_556 S
C869   C877    1.490   .     S
C870   C876    1.487   .     S
C871   O938    1.220   .     D
C871   O908    1.398   .     S
C872   O910    1.396   .     S
C872   O909    1.223   .     D
C873   O911    1.219   .     D
C873   O912    1.397   .     S
C874   O914    1.395   .     S
C874   O913    1.223   .     D
C875   O915    1.222   .     D
C875   O916    1.398   .     S
C876   O917    1.223   .     D
C876   O919    1.398   .     S
C877   O920    1.222   .     D
C877   O921    1.398   .     S
C878   O923    1.398   .     S
C878   C880    1.487   .     S
C878   O922    1.222   .     D
C879   O924    1.223   .     D
C879   O925    1.397   .     S
C879   C884    1.489   .     S
C880   C24     1.410   1_556 S
C881   O927    1.398   .     S
C881   O926    1.222   .     D
C881   C885    1.488   .     S
C882   O928    1.223   .     D
C882   C886    1.494   .     S
C882   O930    1.398   .     S
C883   O931    1.222   .     D
C883   O932    1.396   .     S
C883   C887    1.493   .     S
C884   C1074   1.391   1_455 S
C885   C888    1.416   .     A
C885   C981    1.386   .     S
C886   C888    1.410   .     A
C886   C978    1.391   .     S
C887   C1073   1.386   1_455 S
H889   O908    1.014   .     S
H890   O927    1.014   .     S
H891   O930    1.013   .     S
H892   O932    1.013   .     S
H897   O910    1.014   .     S
H898   O912    1.014   .     S
H899   O914    1.011   .     S
H900   O916    1.014   .     S
H901   O919    1.013   .     S
H902   O921    1.014   .     S
H903   O923    1.013   .     S
H904   O925    1.013   .     S
N905   Zn939   2.003   .     S
N906   Zn940   2.003   .     S
O907   Zn939   2.009   .     S
O918   Zn940   2.009   .     S
O929   Zn939   2.026   .     S
O933   Zn940   2.026   .     S
O934   Zn939   2.010   .     S
O935   Zn940   2.010   .     S
O936   Zn939   2.006   .     S
O937   Zn940   2.006   .     S
C941   O1027   1.280   .     A
C941   C942    1.447   .     S
C941   O1001   1.291   .     A
C942   C981    1.412   .     A
C942   C978    1.422   .     A
C943   N1000   1.365   .     A
C943   H987    1.081   .     S
C943   C1510   1.413   1_545 S
C944   H988    1.080   .     S
C944   N999    1.365   .     A
C944   C1227   1.413   .     S
C945   H989    1.081   .     S
C945   N1000   1.366   .     A
C945   C1508   1.413   1_545 S
C946   H990    1.082   .     S
C946   N999    1.366   .     A
C946   C1225   1.413   .     S
C947   O1028   1.289   .     A
C947   O1031   1.278   .     A
C947   C953    1.442   .     S
C948   O1030   1.281   .     A
C948   C951    1.439   .     S
C948   O1029   1.284   .     A
C949   C965    1.489   .     S
C949   C960    1.409   .     A
C949   C951    1.404   .     A
C950   C966    1.488   .     S
C950   C961    1.407   .     A
C950   C953    1.405   .     A
C951   C954    1.401   .     A
C952   C982    1.448   .     S
C952   O1012   1.292   .     A
C952   O1023   1.279   .     A
C953   C955    1.403   .     A
C954   C967    1.488   .     S
C954   C956    1.404   .     A
C955   C957    1.411   .     A
C955   C968    1.481   .     S
C956   C962    1.419   .     A
C956   C958    1.414   .     A
C957   C964    1.422   .     A
C957   C959    1.416   .     A
C958   C960    1.415   .     A
C958   C113    1.399   1_556 S
C959   C961    1.414   .     A
C960   C974    1.419   .     A
C961   C963    1.420   .     A
C962   C969    1.489   .     S
C962   C117    1.410   1_556 S
C963   C971    1.490   .     S
C964   C970    1.487   .     S
C965   O1032   1.220   .     D
C965   O1002   1.398   .     S
C966   O1004   1.396   .     S
C966   O1003   1.223   .     D
C967   O1005   1.219   .     D
C967   O1006   1.397   .     S
C968   O1008   1.395   .     S
C968   O1007   1.223   .     D
C969   O1009   1.222   .     D
C969   O1010   1.398   .     S
C970   O1011   1.223   .     D
C970   O1013   1.398   .     S
C971   O1014   1.222   .     D
C971   O1015   1.398   .     S
C972   O1017   1.398   .     S
C972   C974    1.487   .     S
C972   O1016   1.222   .     D
C973   O1018   1.223   .     D
C973   O1019   1.397   .     S
C973   C978    1.489   .     S
C974   C118    1.410   1_556 S
C975   O1021   1.398   .     S
C975   O1020   1.222   .     D
C975   C979    1.488   .     S
C976   O1022   1.223   .     D
C976   C980    1.494   .     S
C976   O1024   1.398   .     S
C977   O1025   1.222   .     D
C977   O1026   1.396   .     S
C977   C981    1.493   .     S
C979   C982    1.416   .     A
C979   C1075   1.386   .     S
C980   C982    1.410   .     A
C980   C1072   1.391   .     S
H983   O1002   1.014   .     S
H984   O1021   1.014   .     S
H985   O1024   1.013   .     S
H986   O1026   1.013   .     S
H991   O1004   1.014   .     S
H992   O1006   1.014   .     S
H993   O1008   1.011   .     S
H994   O1010   1.014   .     S
H995   O1013   1.013   .     S
H996   O1015   1.014   .     S
H997   O1017   1.013   .     S
H998   O1019   1.013   .     S
N999   Zn1033  2.003   .     S
N1000  Zn1034  2.003   .     S
O1001  Zn1033  2.009   .     S
O1012  Zn1034  2.009   .     S
O1023  Zn1033  2.026   .     S
O1027  Zn1034  2.026   .     S
O1028  Zn1033  2.010   .     S
O1029  Zn1034  2.010   .     S
O1030  Zn1033  2.006   .     S
O1031  Zn1034  2.006   .     S
C1035  O1121   1.280   .     A
C1035  C1036   1.447   .     S
C1035  O1095   1.291   .     A
C1036  C1075   1.412   .     A
C1036  C1072   1.422   .     A
C1037  N1094   1.365   .     A
C1037  H1081   1.081   .     S
C1037  C1604   1.413   1_545 S
C1038  H1082   1.080   .     S
C1038  N1093   1.365   .     A
C1038  C1321   1.413   .     S
C1039  H1083   1.081   .     S
C1039  N1094   1.366   .     A
C1039  C1602   1.413   1_545 S
C1040  H1084   1.082   .     S
C1040  N1093   1.366   .     A
C1040  C1319   1.413   .     S
C1041  O1122   1.289   .     A
C1041  O1125   1.278   .     A
C1041  C1047   1.442   .     S
C1042  O1124   1.281   .     A
C1042  C1045   1.439   .     S
C1042  O1123   1.284   .     A
C1043  C1059   1.489   .     S
C1043  C1054   1.409   .     A
C1043  C1045   1.404   .     A
C1044  C1060   1.488   .     S
C1044  C1055   1.407   .     A
C1044  C1047   1.405   .     A
C1045  C1048   1.401   .     A
C1046  C1076   1.448   .     S
C1046  O1106   1.292   .     A
C1046  O1117   1.279   .     A
C1047  C1049   1.403   .     A
C1048  C1061   1.488   .     S
C1048  C1050   1.404   .     A
C1049  C1051   1.411   .     A
C1049  C1062   1.481   .     S
C1050  C1056   1.419   .     A
C1050  C1052   1.414   .     A
C1051  C1058   1.422   .     A
C1051  C1053   1.416   .     A
C1052  C1054   1.415   .     A
C1052  C207    1.399   1_556 S
C1053  C1055   1.414   .     A
C1054  C1068   1.419   .     A
C1055  C1057   1.420   .     A
C1056  C1063   1.489   .     S
C1056  C211    1.410   1_556 S
C1057  C1065   1.490   .     S
C1058  C1064   1.487   .     S
C1059  O1126   1.220   .     D
C1059  O1096   1.398   .     S
C1060  O1098   1.396   .     S
C1060  O1097   1.223   .     D
C1061  O1099   1.219   .     D
C1061  O1100   1.397   .     S
C1062  O1102   1.395   .     S
C1062  O1101   1.223   .     D
C1063  O1103   1.222   .     D
C1063  O1104   1.398   .     S
C1064  O1105   1.223   .     D
C1064  O1107   1.398   .     S
C1065  O1108   1.222   .     D
C1065  O1109   1.398   .     S
C1066  O1111   1.398   .     S
C1066  C1068   1.487   .     S
C1066  O1110   1.222   .     D
C1067  O1112   1.223   .     D
C1067  O1113   1.397   .     S
C1067  C1072   1.489   .     S
C1068  C212    1.410   1_556 S
C1069  O1115   1.398   .     S
C1069  O1114   1.222   .     D
C1069  C1073   1.488   .     S
C1070  O1116   1.223   .     D
C1070  C1074   1.494   .     S
C1070  O1118   1.398   .     S
C1071  O1119   1.222   .     D
C1071  O1120   1.396   .     S
C1071  C1075   1.493   .     S
C1073  C1076   1.416   .     A
C1073  C887    1.386   1_655 S
C1074  C1076   1.410   .     A
C1074  C884    1.391   1_655 S
H1077  O1096   1.014   .     S
H1078  O1115   1.014   .     S
H1079  O1118   1.013   .     S
H1080  O1120   1.013   .     S
H1085  O1098   1.014   .     S
H1086  O1100   1.014   .     S
H1087  O1102   1.011   .     S
H1088  O1104   1.014   .     S
H1089  O1107   1.013   .     S
H1090  O1109   1.014   .     S
H1091  O1111   1.013   .     S
H1092  O1113   1.013   .     S
N1093  Zn1127  2.003   .     S
N1094  Zn1128  2.003   .     S
O1095  Zn1127  2.009   .     S
O1106  Zn1128  2.009   .     S
O1117  Zn1127  2.026   .     S
O1121  Zn1128  2.026   .     S
O1122  Zn1127  2.010   .     S
O1123  Zn1128  2.010   .     S
O1124  Zn1127  2.006   .     S
O1125  Zn1128  2.006   .     S
C1129  O1215   1.280   .     A
C1129  C1130   1.447   .     S
C1129  O1189   1.291   .     A
C1130  C1169   1.412   .     A
C1130  C1166   1.422   .     A
C1131  N1188   1.365   .     A
C1131  H1175   1.081   .     S
C1132  H1176   1.080   .     S
C1132  N1187   1.365   .     A
C1132  C1415   1.413   .     S
C1133  H1177   1.081   .     S
C1133  N1188   1.366   .     A
C1134  H1178   1.082   .     S
C1134  N1187   1.366   .     A
C1134  C1413   1.413   .     S
C1135  O1216   1.289   .     A
C1135  O1219   1.278   .     A
C1135  C1141   1.442   .     S
C1136  O1218   1.281   .     A
C1136  C1139   1.439   .     S
C1136  O1217   1.284   .     A
C1137  C1153   1.489   .     S
C1137  C1148   1.409   .     A
C1137  C1139   1.404   .     A
C1138  C1154   1.488   .     S
C1138  C1149   1.407   .     A
C1138  C1141   1.405   .     A
C1139  C1142   1.401   .     A
C1140  C1170   1.448   .     S
C1140  O1200   1.292   .     A
C1140  O1211   1.279   .     A
C1141  C1143   1.403   .     A
C1142  C1155   1.488   .     S
C1142  C1144   1.404   .     A
C1143  C1145   1.411   .     A
C1143  C1156   1.481   .     S
C1144  C1150   1.419   .     A
C1144  C1146   1.414   .     A
C1145  C1152   1.422   .     A
C1145  C1147   1.416   .     A
C1146  C1148   1.415   .     A
C1146  C301    1.399   1_556 S
C1147  C1149   1.414   .     A
C1148  C1162   1.419   .     A
C1149  C1151   1.420   .     A
C1150  C1157   1.489   .     S
C1150  C305    1.410   1_556 S
C1151  C1159   1.490   .     S
C1152  C1158   1.487   .     S
C1153  O1220   1.220   .     D
C1153  O1190   1.398   .     S
C1154  O1192   1.396   .     S
C1154  O1191   1.223   .     D
C1155  O1193   1.219   .     D
C1155  O1194   1.397   .     S
C1156  O1196   1.395   .     S
C1156  O1195   1.223   .     D
C1157  O1197   1.222   .     D
C1157  O1198   1.398   .     S
C1158  O1199   1.223   .     D
C1158  O1201   1.398   .     S
C1159  O1202   1.222   .     D
C1159  O1203   1.398   .     S
C1160  O1205   1.398   .     S
C1160  C1162   1.487   .     S
C1160  O1204   1.222   .     D
C1161  O1206   1.223   .     D
C1161  O1207   1.397   .     S
C1161  C1166   1.489   .     S
C1162  C306    1.410   1_556 S
C1163  O1209   1.398   .     S
C1163  O1208   1.222   .     D
C1163  C1167   1.488   .     S
C1164  O1210   1.223   .     D
C1164  C1168   1.494   .     S
C1164  O1212   1.398   .     S
C1165  O1213   1.222   .     D
C1165  O1214   1.396   .     S
C1165  C1169   1.493   .     S
C1166  C1356   1.391   1_455 S
C1167  C1170   1.416   .     A
C1167  C1263   1.386   .     S
C1168  C1170   1.410   .     A
C1168  C1260   1.391   .     S
C1169  C1355   1.386   1_455 S
H1171  O1190   1.014   .     S
H1172  O1209   1.014   .     S
H1173  O1212   1.013   .     S
H1174  O1214   1.013   .     S
H1179  O1192   1.014   .     S
H1180  O1194   1.014   .     S
H1181  O1196   1.011   .     S
H1182  O1198   1.014   .     S
H1183  O1201   1.013   .     S
H1184  O1203   1.014   .     S
H1185  O1205   1.013   .     S
H1186  O1207   1.013   .     S
N1187  Zn1221  2.003   .     S
N1188  Zn1222  2.003   .     S
O1189  Zn1221  2.009   .     S
O1200  Zn1222  2.009   .     S
O1211  Zn1221  2.026   .     S
O1215  Zn1222  2.026   .     S
O1216  Zn1221  2.010   .     S
O1217  Zn1222  2.010   .     S
O1218  Zn1221  2.006   .     S
O1219  Zn1222  2.006   .     S
C1223  O1309   1.280   .     A
C1223  C1224   1.447   .     S
C1223  O1283   1.291   .     A
C1224  C1263   1.412   .     A
C1224  C1260   1.422   .     A
C1225  N1282   1.365   .     A
C1225  H1269   1.081   .     S
C1226  H1270   1.080   .     S
C1226  N1281   1.365   .     A
C1226  C1509   1.413   .     S
C1227  H1271   1.081   .     S
C1227  N1282   1.366   .     A
C1228  H1272   1.082   .     S
C1228  N1281   1.366   .     A
C1228  C1507   1.413   .     S
C1229  O1310   1.289   .     A
C1229  O1313   1.278   .     A
C1229  C1235   1.442   .     S
C1230  O1312   1.281   .     A
C1230  C1233   1.439   .     S
C1230  O1311   1.284   .     A
C1231  C1247   1.489   .     S
C1231  C1242   1.409   .     A
C1231  C1233   1.404   .     A
C1232  C1248   1.488   .     S
C1232  C1243   1.407   .     A
C1232  C1235   1.405   .     A
C1233  C1236   1.401   .     A
C1234  C1264   1.448   .     S
C1234  O1294   1.292   .     A
C1234  O1305   1.279   .     A
C1235  C1237   1.403   .     A
C1236  C1249   1.488   .     S
C1236  C1238   1.404   .     A
C1237  C1239   1.411   .     A
C1237  C1250   1.481   .     S
C1238  C1244   1.419   .     A
C1238  C1240   1.414   .     A
C1239  C1246   1.422   .     A
C1239  C1241   1.416   .     A
C1240  C1242   1.415   .     A
C1240  C395    1.399   1_556 S
C1241  C1243   1.414   .     A
C1242  C1256   1.419   .     A
C1243  C1245   1.420   .     A
C1244  C1251   1.489   .     S
C1244  C399    1.410   1_556 S
C1245  C1253   1.490   .     S
C1246  C1252   1.487   .     S
C1247  O1314   1.220   .     D
C1247  O1284   1.398   .     S
C1248  O1286   1.396   .     S
C1248  O1285   1.223   .     D
C1249  O1287   1.219   .     D
C1249  O1288   1.397   .     S
C1250  O1290   1.395   .     S
C1250  O1289   1.223   .     D
C1251  O1291   1.222   .     D
C1251  O1292   1.398   .     S
C1252  O1293   1.223   .     D
C1252  O1295   1.398   .     S
C1253  O1296   1.222   .     D
C1253  O1297   1.398   .     S
C1254  O1299   1.398   .     S
C1254  C1256   1.487   .     S
C1254  O1298   1.222   .     D
C1255  O1300   1.223   .     D
C1255  O1301   1.397   .     S
C1255  C1260   1.489   .     S
C1256  C400    1.410   1_556 S
C1257  O1303   1.398   .     S
C1257  O1302   1.222   .     D
C1257  C1261   1.488   .     S
C1258  O1304   1.223   .     D
C1258  C1262   1.494   .     S
C1258  O1306   1.398   .     S
C1259  O1307   1.222   .     D
C1259  O1308   1.396   .     S
C1259  C1263   1.493   .     S
C1261  C1264   1.416   .     A
C1261  C1357   1.386   .     S
C1262  C1264   1.410   .     A
C1262  C1354   1.391   .     S
H1265  O1284   1.014   .     S
H1266  O1303   1.014   .     S
H1267  O1306   1.013   .     S
H1268  O1308   1.013   .     S
H1273  O1286   1.014   .     S
H1274  O1288   1.014   .     S
H1275  O1290   1.011   .     S
H1276  O1292   1.014   .     S
H1277  O1295   1.013   .     S
H1278  O1297   1.014   .     S
H1279  O1299   1.013   .     S
H1280  O1301   1.013   .     S
N1281  Zn1315  2.003   .     S
N1282  Zn1316  2.003   .     S
O1283  Zn1315  2.009   .     S
O1294  Zn1316  2.009   .     S
O1305  Zn1315  2.026   .     S
O1309  Zn1316  2.026   .     S
O1310  Zn1315  2.010   .     S
O1311  Zn1316  2.010   .     S
O1312  Zn1315  2.006   .     S
O1313  Zn1316  2.006   .     S
C1317  O1403   1.280   .     A
C1317  C1318   1.447   .     S
C1317  O1377   1.291   .     A
C1318  C1357   1.412   .     A
C1318  C1354   1.422   .     A
C1319  N1376   1.365   .     A
C1319  H1363   1.081   .     S
C1320  H1364   1.080   .     S
C1320  N1375   1.365   .     A
C1320  C1603   1.413   .     S
C1321  H1365   1.081   .     S
C1321  N1376   1.366   .     A
C1322  H1366   1.082   .     S
C1322  N1375   1.366   .     A
C1322  C1601   1.413   .     S
C1323  O1404   1.289   .     A
C1323  O1407   1.278   .     A
C1323  C1329   1.442   .     S
C1324  O1406   1.281   .     A
C1324  C1327   1.439   .     S
C1324  O1405   1.284   .     A
C1325  C1341   1.489   .     S
C1325  C1336   1.409   .     A
C1325  C1327   1.404   .     A
C1326  C1342   1.488   .     S
C1326  C1337   1.407   .     A
C1326  C1329   1.405   .     A
C1327  C1330   1.401   .     A
C1328  C1358   1.448   .     S
C1328  O1388   1.292   .     A
C1328  O1399   1.279   .     A
C1329  C1331   1.403   .     A
C1330  C1343   1.488   .     S
C1330  C1332   1.404   .     A
C1331  C1333   1.411   .     A
C1331  C1344   1.481   .     S
C1332  C1338   1.419   .     A
C1332  C1334   1.414   .     A
C1333  C1340   1.422   .     A
C1333  C1335   1.416   .     A
C1334  C1336   1.415   .     A
C1334  C489    1.399   1_556 S
C1335  C1337   1.414   .     A
C1336  C1350   1.419   .     A
C1337  C1339   1.420   .     A
C1338  C1345   1.489   .     S
C1338  C493    1.410   1_556 S
C1339  C1347   1.490   .     S
C1340  C1346   1.487   .     S
C1341  O1408   1.220   .     D
C1341  O1378   1.398   .     S
C1342  O1380   1.396   .     S
C1342  O1379   1.223   .     D
C1343  O1381   1.219   .     D
C1343  O1382   1.397   .     S
C1344  O1384   1.395   .     S
C1344  O1383   1.223   .     D
C1345  O1385   1.222   .     D
C1345  O1386   1.398   .     S
C1346  O1387   1.223   .     D
C1346  O1389   1.398   .     S
C1347  O1390   1.222   .     D
C1347  O1391   1.398   .     S
C1348  O1393   1.398   .     S
C1348  C1350   1.487   .     S
C1348  O1392   1.222   .     D
C1349  O1394   1.223   .     D
C1349  O1395   1.397   .     S
C1349  C1354   1.489   .     S
C1350  C494    1.410   1_556 S
C1351  O1397   1.398   .     S
C1351  O1396   1.222   .     D
C1351  C1355   1.488   .     S
C1352  O1398   1.223   .     D
C1352  C1356   1.494   .     S
C1352  O1400   1.398   .     S
C1353  O1401   1.222   .     D
C1353  O1402   1.396   .     S
C1353  C1357   1.493   .     S
C1355  C1358   1.416   .     A
C1355  C1169   1.386   1_655 S
C1356  C1358   1.410   .     A
C1356  C1166   1.391   1_655 S
H1359  O1378   1.014   .     S
H1360  O1397   1.014   .     S
H1361  O1400   1.013   .     S
H1362  O1402   1.013   .     S
H1367  O1380   1.014   .     S
H1368  O1382   1.014   .     S
H1369  O1384   1.011   .     S
H1370  O1386   1.014   .     S
H1371  O1389   1.013   .     S
H1372  O1391   1.014   .     S
H1373  O1393   1.013   .     S
H1374  O1395   1.013   .     S
N1375  Zn1409  2.003   .     S
N1376  Zn1410  2.003   .     S
O1377  Zn1409  2.009   .     S
O1388  Zn1410  2.009   .     S
O1399  Zn1409  2.026   .     S
O1403  Zn1410  2.026   .     S
O1404  Zn1409  2.010   .     S
O1405  Zn1410  2.010   .     S
O1406  Zn1409  2.006   .     S
O1407  Zn1410  2.006   .     S
C1411  O1497   1.280   .     A
C1411  C1412   1.447   .     S
C1411  O1471   1.291   .     A
C1412  C1451   1.412   .     A
C1412  C1448   1.422   .     A
C1413  N1470   1.365   .     A
C1413  H1457   1.081   .     S
C1414  H1458   1.080   .     S
C1414  N1469   1.365   .     A
C1414  C851    1.413   1_565 S
C1415  H1459   1.081   .     S
C1415  N1470   1.366   .     A
C1416  H1460   1.082   .     S
C1416  N1469   1.366   .     A
C1416  C849    1.413   1_565 S
C1417  O1498   1.289   .     A
C1417  O1501   1.278   .     A
C1417  C1423   1.442   .     S
C1418  O1500   1.281   .     A
C1418  C1421   1.439   .     S
C1418  O1499   1.284   .     A
C1419  C1435   1.489   .     S
C1419  C1430   1.409   .     A
C1419  C1421   1.404   .     A
C1420  C1436   1.488   .     S
C1420  C1431   1.407   .     A
C1420  C1423   1.405   .     A
C1421  C1424   1.401   .     A
C1422  C1452   1.448   .     S
C1422  O1482   1.292   .     A
C1422  O1493   1.279   .     A
C1423  C1425   1.403   .     A
C1424  C1437   1.488   .     S
C1424  C1426   1.404   .     A
C1425  C1427   1.411   .     A
C1425  C1438   1.481   .     S
C1426  C1432   1.419   .     A
C1426  C1428   1.414   .     A
C1427  C1434   1.422   .     A
C1427  C1429   1.416   .     A
C1428  C1430   1.415   .     A
C1428  C583    1.399   1_556 S
C1429  C1431   1.414   .     A
C1430  C1444   1.419   .     A
C1431  C1433   1.420   .     A
C1432  C1439   1.489   .     S
C1432  C587    1.410   1_556 S
C1433  C1441   1.490   .     S
C1434  C1440   1.487   .     S
C1435  O1502   1.220   .     D
C1435  O1472   1.398   .     S
C1436  O1474   1.396   .     S
C1436  O1473   1.223   .     D
C1437  O1475   1.219   .     D
C1437  O1476   1.397   .     S
C1438  O1478   1.395   .     S
C1438  O1477   1.223   .     D
C1439  O1479   1.222   .     D
C1439  O1480   1.398   .     S
C1440  O1481   1.223   .     D
C1440  O1483   1.398   .     S
C1441  O1484   1.222   .     D
C1441  O1485   1.398   .     S
C1442  O1487   1.398   .     S
C1442  C1444   1.487   .     S
C1442  O1486   1.222   .     D
C1443  O1488   1.223   .     D
C1443  O1489   1.397   .     S
C1443  C1448   1.489   .     S
C1444  C588    1.410   1_556 S
C1445  O1491   1.398   .     S
C1445  O1490   1.222   .     D
C1445  C1449   1.488   .     S
C1446  O1492   1.223   .     D
C1446  C1450   1.494   .     S
C1446  O1494   1.398   .     S
C1447  O1495   1.222   .     D
C1447  O1496   1.396   .     S
C1447  C1451   1.493   .     S
C1448  C1638   1.391   1_455 S
C1449  C1452   1.416   .     A
C1449  C1545   1.386   .     S
C1450  C1452   1.410   .     A
C1450  C1542   1.391   .     S
C1451  C1637   1.386   1_455 S
H1453  O1472   1.014   .     S
H1454  O1491   1.014   .     S
H1455  O1494   1.013   .     S
H1456  O1496   1.013   .     S
H1461  O1474   1.014   .     S
H1462  O1476   1.014   .     S
H1463  O1478   1.011   .     S
H1464  O1480   1.014   .     S
H1465  O1483   1.013   .     S
H1466  O1485   1.014   .     S
H1467  O1487   1.013   .     S
H1468  O1489   1.013   .     S
N1469  Zn1503  2.003   .     S
N1470  Zn1504  2.003   .     S
O1471  Zn1503  2.009   .     S
O1482  Zn1504  2.009   .     S
O1493  Zn1503  2.026   .     S
O1497  Zn1504  2.026   .     S
O1498  Zn1503  2.010   .     S
O1499  Zn1504  2.010   .     S
O1500  Zn1503  2.006   .     S
O1501  Zn1504  2.006   .     S
C1505  O1591   1.280   .     A
C1505  C1506   1.447   .     S
C1505  O1565   1.291   .     A
C1506  C1545   1.412   .     A
C1506  C1542   1.422   .     A
C1507  N1564   1.365   .     A
C1507  H1551   1.081   .     S
C1508  H1552   1.080   .     S
C1508  N1563   1.365   .     A
C1508  C945    1.413   1_565 S
C1509  H1553   1.081   .     S
C1509  N1564   1.366   .     A
C1510  H1554   1.082   .     S
C1510  N1563   1.366   .     A
C1510  C943    1.413   1_565 S
C1511  O1592   1.289   .     A
C1511  O1595   1.278   .     A
C1511  C1517   1.442   .     S
C1512  O1594   1.281   .     A
C1512  C1515   1.439   .     S
C1512  O1593   1.284   .     A
C1513  C1529   1.489   .     S
C1513  C1524   1.409   .     A
C1513  C1515   1.404   .     A
C1514  C1530   1.488   .     S
C1514  C1525   1.407   .     A
C1514  C1517   1.405   .     A
C1515  C1518   1.401   .     A
C1516  C1546   1.448   .     S
C1516  O1576   1.292   .     A
C1516  O1587   1.279   .     A
C1517  C1519   1.403   .     A
C1518  C1531   1.488   .     S
C1518  C1520   1.404   .     A
C1519  C1521   1.411   .     A
C1519  C1532   1.481   .     S
C1520  C1526   1.419   .     A
C1520  C1522   1.414   .     A
C1521  C1528   1.422   .     A
C1521  C1523   1.416   .     A
C1522  C1524   1.415   .     A
C1522  C677    1.399   1_556 S
C1523  C1525   1.414   .     A
C1524  C1538   1.419   .     A
C1525  C1527   1.420   .     A
C1526  C1533   1.489   .     S
C1526  C681    1.410   1_556 S
C1527  C1535   1.490   .     S
C1528  C1534   1.487   .     S
C1529  O1596   1.220   .     D
C1529  O1566   1.398   .     S
C1530  O1568   1.396   .     S
C1530  O1567   1.223   .     D
C1531  O1569   1.219   .     D
C1531  O1570   1.397   .     S
C1532  O1572   1.395   .     S
C1532  O1571   1.223   .     D
C1533  O1573   1.222   .     D
C1533  O1574   1.398   .     S
C1534  O1575   1.223   .     D
C1534  O1577   1.398   .     S
C1535  O1578   1.222   .     D
C1535  O1579   1.398   .     S
C1536  O1581   1.398   .     S
C1536  C1538   1.487   .     S
C1536  O1580   1.222   .     D
C1537  O1582   1.223   .     D
C1537  O1583   1.397   .     S
C1537  C1542   1.489   .     S
C1538  C682    1.410   1_556 S
C1539  O1585   1.398   .     S
C1539  O1584   1.222   .     D
C1539  C1543   1.488   .     S
C1540  O1586   1.223   .     D
C1540  C1544   1.494   .     S
C1540  O1588   1.398   .     S
C1541  O1589   1.222   .     D
C1541  O1590   1.396   .     S
C1541  C1545   1.493   .     S
C1543  C1546   1.416   .     A
C1543  C1639   1.386   .     S
C1544  C1546   1.410   .     A
C1544  C1636   1.391   .     S
H1547  O1566   1.014   .     S
H1548  O1585   1.014   .     S
H1549  O1588   1.013   .     S
H1550  O1590   1.013   .     S
H1555  O1568   1.014   .     S
H1556  O1570   1.014   .     S
H1557  O1572   1.011   .     S
H1558  O1574   1.014   .     S
H1559  O1577   1.013   .     S
H1560  O1579   1.014   .     S
H1561  O1581   1.013   .     S
H1562  O1583   1.013   .     S
N1563  Zn1597  2.003   .     S
N1564  Zn1598  2.003   .     S
O1565  Zn1597  2.009   .     S
O1576  Zn1598  2.009   .     S
O1587  Zn1597  2.026   .     S
O1591  Zn1598  2.026   .     S
O1592  Zn1597  2.010   .     S
O1593  Zn1598  2.010   .     S
O1594  Zn1597  2.006   .     S
O1595  Zn1598  2.006   .     S
C1599  O1685   1.280   .     A
C1599  C1600   1.447   .     S
C1599  O1659   1.291   .     A
C1600  C1639   1.412   .     A
C1600  C1636   1.422   .     A
C1601  N1658   1.365   .     A
C1601  H1645   1.081   .     S
C1602  H1646   1.080   .     S
C1602  N1657   1.365   .     A
C1602  C1039   1.413   1_565 S
C1603  H1647   1.081   .     S
C1603  N1658   1.366   .     A
C1604  H1648   1.082   .     S
C1604  N1657   1.366   .     A
C1604  C1037   1.413   1_565 S
C1605  O1686   1.289   .     A
C1605  O1689   1.278   .     A
C1605  C1611   1.442   .     S
C1606  O1688   1.281   .     A
C1606  C1609   1.439   .     S
C1606  O1687   1.284   .     A
C1607  C1623   1.489   .     S
C1607  C1618   1.409   .     A
C1607  C1609   1.404   .     A
C1608  C1624   1.488   .     S
C1608  C1619   1.407   .     A
C1608  C1611   1.405   .     A
C1609  C1612   1.401   .     A
C1610  C1640   1.448   .     S
C1610  O1670   1.292   .     A
C1610  O1681   1.279   .     A
C1611  C1613   1.403   .     A
C1612  C1625   1.488   .     S
C1612  C1614   1.404   .     A
C1613  C1615   1.411   .     A
C1613  C1626   1.481   .     S
C1614  C1620   1.419   .     A
C1614  C1616   1.414   .     A
C1615  C1622   1.422   .     A
C1615  C1617   1.416   .     A
C1616  C1618   1.415   .     A
C1616  C771    1.399   1_556 S
C1617  C1619   1.414   .     A
C1618  C1632   1.419   .     A
C1619  C1621   1.420   .     A
C1620  C1627   1.489   .     S
C1620  C775    1.410   1_556 S
C1621  C1629   1.490   .     S
C1622  C1628   1.487   .     S
C1623  O1690   1.220   .     D
C1623  O1660   1.398   .     S
C1624  O1662   1.396   .     S
C1624  O1661   1.223   .     D
C1625  O1663   1.219   .     D
C1625  O1664   1.397   .     S
C1626  O1666   1.395   .     S
C1626  O1665   1.223   .     D
C1627  O1667   1.222   .     D
C1627  O1668   1.398   .     S
C1628  O1669   1.223   .     D
C1628  O1671   1.398   .     S
C1629  O1672   1.222   .     D
C1629  O1673   1.398   .     S
C1630  O1675   1.398   .     S
C1630  C1632   1.487   .     S
C1630  O1674   1.222   .     D
C1631  O1676   1.223   .     D
C1631  O1677   1.397   .     S
C1631  C1636   1.489   .     S
C1632  C776    1.410   1_556 S
C1633  O1679   1.398   .     S
C1633  O1678   1.222   .     D
C1633  C1637   1.488   .     S
C1634  O1680   1.223   .     D
C1634  C1638   1.494   .     S
C1634  O1682   1.398   .     S
C1635  O1683   1.222   .     D
C1635  O1684   1.396   .     S
C1635  C1639   1.493   .     S
C1637  C1640   1.416   .     A
C1637  C1451   1.386   1_655 S
C1638  C1640   1.410   .     A
C1638  C1448   1.391   1_655 S
H1641  O1660   1.014   .     S
H1642  O1679   1.014   .     S
H1643  O1682   1.013   .     S
H1644  O1684   1.013   .     S
H1649  O1662   1.014   .     S
H1650  O1664   1.014   .     S
H1651  O1666   1.011   .     S
H1652  O1668   1.014   .     S
H1653  O1671   1.013   .     S
H1654  O1673   1.014   .     S
H1655  O1675   1.013   .     S
H1656  O1677   1.013   .     S
N1657  Zn1691  2.003   .     S
N1658  Zn1692  2.003   .     S
O1659  Zn1691  2.009   .     S
O1670  Zn1692  2.009   .     S
O1681  Zn1691  2.026   .     S
O1685  Zn1692  2.026   .     S
O1686  Zn1691  2.010   .     S
O1687  Zn1692  2.010   .     S
O1688  Zn1691  2.006   .     S
O1689  Zn1692  2.006   .     S
