data_str_m3_o1_o18_pcu_sym.50
_audit_creation_date              2020-01-03
_audit_creation_method            'Materials Studio'
_symmetry_space_group_name_H-M    'P1'
_symmetry_Int_Tables_number       1
_symmetry_cell_setting            triclinic
loop_
_symmetry_equiv_pos_as_xyz
  x,y,z
_cell_length_a                    29.7366
_cell_length_b                    31.9559
_cell_length_c                    31.0065
_cell_angle_alpha                 90.7610
_cell_angle_beta                  67.1257
_cell_angle_gamma                 89.0949
loop_
_atom_site_label
_atom_site_type_symbol
_atom_site_fract_x
_atom_site_fract_y
_atom_site_fract_z
_atom_site_U_iso_or_equiv
_atom_site_adp_type
_atom_site_occupancy
C1     C     0.16640   0.24660   0.25013   0.00000  Uiso   1.00
C2     C     0.14253   0.31196   0.22580   0.00000  Uiso   1.00
C3     C     0.16721   0.04257   0.24965   0.00000  Uiso   1.00
C4     C     0.16621   0.29077   0.25024   0.00000  Uiso   1.00
C5     C     0.32225   0.13937   0.22136   0.00000  Uiso   1.00
C6     C     0.01111   0.19400   0.27860   0.00000  Uiso   1.00
C7     C     0.03655   0.13991   0.22154   0.00000  Uiso   1.00
C8     C     0.29680   0.19345   0.27843   0.00000  Uiso   1.00
C9     C     0.13601   0.16604   0.33806   0.00000  Uiso   1.00
C10    C     0.19732   0.16620   0.16190   0.00000  Uiso   1.00
C11    C     0.11667   0.16288   0.38895   0.00000  Uiso   1.00
C12    C     0.16696   0.08673   0.24982   0.00000  Uiso   1.00
C13    C     0.21594   0.15993   0.11121   0.00000  Uiso   1.00
C14    C     0.05274   0.17331   0.46565   0.00000  Uiso   1.00
C15    C     0.27292   0.12751   0.03955   0.00000  Uiso   1.00
C16    C     0.06801   0.17305   0.41708   0.00000  Uiso   1.00
C17    C     0.26144   0.14077   0.08578   0.00000  Uiso   1.00
C18    C     0.14897   0.15063   0.40944   0.00000  Uiso   1.00
C19    C     0.18302   0.16675   0.08991   0.00000  Uiso   1.00
C20    C     0.13462   0.15052   0.45797   0.00000  Uiso   1.00
C21    C     0.19162   0.15000   0.04561   0.00000  Uiso   1.00
C22    C     0.08597   0.16322   0.48625   0.00000  Uiso   1.00
C23    C     0.10570   0.16183   0.05455   0.00000  Uiso   1.00
C24    C     0.23824   0.13187   0.01933   0.00000  Uiso   1.00
C25    C     0.16853   0.14146   0.47874   0.00000  Uiso   1.00
C26    C     0.15519   0.15149   0.02675   0.00000  Uiso   1.00
C27    C     0.31411   0.10810   0.18840   0.00000  Uiso   1.00
C28    C     0.31593   0.06306   0.20441   0.00000  Uiso   1.00
C29    C     0.30399   0.03165   0.17310   0.00000  Uiso   1.00
C30    C     0.01932   0.22546   0.31135   0.00000  Uiso   1.00
C31    C     0.01785   0.27036   0.29482   0.00000  Uiso   1.00
C32    C     0.02968   0.30205   0.32594   0.00000  Uiso   1.00
C33    C     0.21537   0.12321   0.45320   0.00000  Uiso   1.00
C34    C     0.07158   0.16697   0.03455   0.00000  Uiso   1.00
C35    C     0.24929   0.11798   0.47353   0.00000  Uiso   1.00
C36    C     0.19059   0.31180   0.27420   0.00000  Uiso   1.00
C37    C     0.14287   0.02154   0.22564   0.00000  Uiso   1.00
C38    C     0.19095   0.02138   0.27403   0.00000  Uiso   1.00
H39    H     0.03423   0.17556   0.05682   0.00000  Uiso   1.00
H40    H     0.22630   0.11124   0.41783   0.00000  Uiso   1.00
H41    H     0.20871   0.29509   0.29335   0.00000  Uiso   1.00
H42    H     0.12476   0.03825   0.20649   0.00000  Uiso   1.00
H43    H     0.20890   0.03796   0.29336   0.00000  Uiso   1.00
H44    H     0.12462   0.29538   0.20644   0.00000  Uiso   1.00
H45    H     0.06493   0.11883   0.19868   0.00000  Uiso   1.00
H46    H     0.26845   0.21459   0.30121   0.00000  Uiso   1.00
H47    H     0.26700   0.03830   0.17362   0.00000  Uiso   1.00
H48    H     0.33125   0.03322   0.13652   0.00000  Uiso   1.00
H49    H     0.30484   0.33284   0.18596   0.00000  Uiso   1.00
H50    H     0.28458   0.10357   0.45306   0.00000  Uiso   1.00
H51    H     0.01957   0.05528   0.20337   0.00000  Uiso   1.00
H52    H     0.28932   0.05998   0.24104   0.00000  Uiso   1.00
H53    H     0.27922   0.11372   0.18521   0.00000  Uiso   1.00
H54    H     0.00947   0.11175   0.15273   0.00000  Uiso   1.00
H55    H     0.00206   0.30098   0.36240   0.00000  Uiso   1.00
H56    H     0.06643   0.29528   0.32592   0.00000  Uiso   1.00
H57    H     0.02931   0.00072   0.31253   0.00000  Uiso   1.00
H58    H     0.04464   0.27311   0.25822   0.00000  Uiso   1.00
H59    H     0.31434   0.27816   0.29554   0.00000  Uiso   1.00
H60    H     0.32381   0.22214   0.34699   0.00000  Uiso   1.00
H61    H     0.15000   0.18461   0.10920   0.00000  Uiso   1.00
H62    H     0.05407   0.21974   0.31484   0.00000  Uiso   1.00
H63    H     0.18629   0.14362   0.38669   0.00000  Uiso   1.00
H64    H     0.28720   0.13482   0.10197   0.00000  Uiso   1.00
H65    H     0.04247   0.18229   0.40162   0.00000  Uiso   1.00
H66    H     0.01554   0.18301   0.48704   0.00000  Uiso   1.00
H67    H     0.30822   0.11269   0.02013   0.00000  Uiso   1.00
H68    H     0.09203   0.16518   0.09218   0.00000  Uiso   1.00
N69    N     0.04759   0.16668   0.25001   0.00000  Uiso   1.00
N70    N     0.28574   0.16666   0.24999   0.00000  Uiso   1.00
O71    O     0.12846   0.22775   0.25001   0.00000  Uiso   1.00
O72    O     0.20488   0.10558   0.24999   0.00000  Uiso   1.00
O73    O     0.20490   0.22774   0.25000   0.00000  Uiso   1.00
O74    O     0.12843   0.10559   0.25000   0.00000  Uiso   1.00
O75    O     0.10661   0.16667   0.31613   0.00000  Uiso   1.00
O76    O     0.22672   0.16666   0.18387   0.00000  Uiso   1.00
O77    O     0.18305   0.16666   0.31612   0.00000  Uiso   1.00
O78    O     0.15028   0.16667   0.18388   0.00000  Uiso   1.00
Zn79   Zn    0.11562   0.16667   0.25000   0.00000  Uiso   1.00
Zn80   Zn    0.21771   0.16666   0.25000   0.00000  Uiso   1.00
C81    C     0.49973   0.24660   0.25013   0.00000  Uiso   1.00
C82    C     0.47586   0.31196   0.22580   0.00000  Uiso   1.00
C83    C     0.50054   0.04257   0.24965   0.00000  Uiso   1.00
C84    C     0.49954   0.29077   0.25024   0.00000  Uiso   1.00
C85    C     0.65558   0.13937   0.22136   0.00000  Uiso   1.00
C86    C     0.34444   0.19400   0.27860   0.00000  Uiso   1.00
C87    C     0.36989   0.13991   0.22154   0.00000  Uiso   1.00
C88    C     0.63013   0.19345   0.27843   0.00000  Uiso   1.00
C89    C     0.46934   0.16604   0.33806   0.00000  Uiso   1.00
C90    C     0.53065   0.16620   0.16190   0.00000  Uiso   1.00
C91    C     0.45001   0.16288   0.38895   0.00000  Uiso   1.00
C92    C     0.50029   0.08673   0.24982   0.00000  Uiso   1.00
C93    C     0.54927   0.15993   0.11121   0.00000  Uiso   1.00
C94    C     0.38607   0.17331   0.46565   0.00000  Uiso   1.00
C95    C     0.60625   0.12751   0.03955   0.00000  Uiso   1.00
C96    C     0.40135   0.17305   0.41708   0.00000  Uiso   1.00
C97    C     0.59477   0.14077   0.08578   0.00000  Uiso   1.00
C98    C     0.48230   0.15063   0.40944   0.00000  Uiso   1.00
C99    C     0.51635   0.16675   0.08991   0.00000  Uiso   1.00
C100   C     0.46795   0.15052   0.45797   0.00000  Uiso   1.00
C101   C     0.52495   0.15000   0.04561   0.00000  Uiso   1.00
C102   C     0.41930   0.16322   0.48625   0.00000  Uiso   1.00
C103   C     0.43903   0.16183   0.05455   0.00000  Uiso   1.00
C104   C     0.57157   0.13187   0.01933   0.00000  Uiso   1.00
C105   C     0.50186   0.14146   0.47874   0.00000  Uiso   1.00
C106   C     0.48852   0.15149   0.02675   0.00000  Uiso   1.00
C107   C     0.64744   0.10810   0.18840   0.00000  Uiso   1.00
C108   C     0.64926   0.06306   0.20441   0.00000  Uiso   1.00
C109   C     0.63732   0.03165   0.17310   0.00000  Uiso   1.00
C110   C     0.35266   0.22546   0.31135   0.00000  Uiso   1.00
C111   C     0.35118   0.27036   0.29482   0.00000  Uiso   1.00
C112   C     0.36301   0.30205   0.32594   0.00000  Uiso   1.00
C113   C     0.54870   0.12321   0.45320   0.00000  Uiso   1.00
C114   C     0.40491   0.16697   0.03455   0.00000  Uiso   1.00
C115   C     0.58262   0.11798   0.47353   0.00000  Uiso   1.00
C116   C     0.52393   0.31180   0.27420   0.00000  Uiso   1.00
C117   C     0.47620   0.02154   0.22564   0.00000  Uiso   1.00
C118   C     0.52428   0.02138   0.27403   0.00000  Uiso   1.00
H119   H     0.36756   0.17556   0.05682   0.00000  Uiso   1.00
H120   H     0.55964   0.11124   0.41783   0.00000  Uiso   1.00
H121   H     0.54204   0.29509   0.29335   0.00000  Uiso   1.00
H122   H     0.45810   0.03825   0.20649   0.00000  Uiso   1.00
H123   H     0.54223   0.03796   0.29336   0.00000  Uiso   1.00
H124   H     0.45795   0.29538   0.20644   0.00000  Uiso   1.00
H125   H     0.39826   0.11883   0.19868   0.00000  Uiso   1.00
H126   H     0.60178   0.21459   0.30121   0.00000  Uiso   1.00
H127   H     0.60034   0.03830   0.17362   0.00000  Uiso   1.00
H128   H     0.66458   0.03322   0.13652   0.00000  Uiso   1.00
H129   H     0.63818   0.33284   0.18596   0.00000  Uiso   1.00
H130   H     0.61791   0.10357   0.45306   0.00000  Uiso   1.00
H131   H     0.35290   0.05528   0.20337   0.00000  Uiso   1.00
H132   H     0.62265   0.05998   0.24104   0.00000  Uiso   1.00
H133   H     0.61255   0.11372   0.18521   0.00000  Uiso   1.00
H134   H     0.34280   0.11175   0.15273   0.00000  Uiso   1.00
H135   H     0.33539   0.30098   0.36240   0.00000  Uiso   1.00
H136   H     0.39977   0.29528   0.32592   0.00000  Uiso   1.00
H137   H     0.36264   0.00072   0.31253   0.00000  Uiso   1.00
H138   H     0.37798   0.27311   0.25822   0.00000  Uiso   1.00
H139   H     0.64767   0.27816   0.29554   0.00000  Uiso   1.00
H140   H     0.65714   0.22214   0.34699   0.00000  Uiso   1.00
H141   H     0.48333   0.18461   0.10920   0.00000  Uiso   1.00
H142   H     0.38740   0.21974   0.31484   0.00000  Uiso   1.00
H143   H     0.51962   0.14362   0.38669   0.00000  Uiso   1.00
H144   H     0.62053   0.13482   0.10197   0.00000  Uiso   1.00
H145   H     0.37580   0.18229   0.40162   0.00000  Uiso   1.00
H146   H     0.34887   0.18301   0.48704   0.00000  Uiso   1.00
H147   H     0.64156   0.11269   0.02013   0.00000  Uiso   1.00
H148   H     0.42536   0.16518   0.09218   0.00000  Uiso   1.00
N149   N     0.38093   0.16668   0.25001   0.00000  Uiso   1.00
N150   N     0.61907   0.16666   0.24999   0.00000  Uiso   1.00
O151   O     0.46179   0.22775   0.25001   0.00000  Uiso   1.00
O152   O     0.53821   0.10558   0.24999   0.00000  Uiso   1.00
O153   O     0.53823   0.22774   0.25000   0.00000  Uiso   1.00
O154   O     0.46177   0.10559   0.25000   0.00000  Uiso   1.00
O155   O     0.43994   0.16667   0.31613   0.00000  Uiso   1.00
O156   O     0.56006   0.16666   0.18387   0.00000  Uiso   1.00
O157   O     0.51639   0.16666   0.31612   0.00000  Uiso   1.00
O158   O     0.48361   0.16667   0.18388   0.00000  Uiso   1.00
Zn159  Zn    0.44896   0.16667   0.25000   0.00000  Uiso   1.00
Zn160  Zn    0.55104   0.16666   0.25000   0.00000  Uiso   1.00
C161   C     0.83306   0.24660   0.25013   0.00000  Uiso   1.00
C162   C     0.80920   0.31196   0.22580   0.00000  Uiso   1.00
C163   C     0.83388   0.04257   0.24965   0.00000  Uiso   1.00
C164   C     0.83287   0.29077   0.25024   0.00000  Uiso   1.00
C165   C     0.98891   0.13937   0.22136   0.00000  Uiso   1.00
C166   C     0.67778   0.19400   0.27860   0.00000  Uiso   1.00
C167   C     0.70322   0.13991   0.22154   0.00000  Uiso   1.00
C168   C     0.96347   0.19345   0.27843   0.00000  Uiso   1.00
C169   C     0.80267   0.16604   0.33806   0.00000  Uiso   1.00
C170   C     0.86398   0.16620   0.16190   0.00000  Uiso   1.00
C171   C     0.78334   0.16288   0.38895   0.00000  Uiso   1.00
C172   C     0.83363   0.08673   0.24982   0.00000  Uiso   1.00
C173   C     0.88260   0.15993   0.11121   0.00000  Uiso   1.00
C174   C     0.71941   0.17331   0.46565   0.00000  Uiso   1.00
C175   C     0.93958   0.12751   0.03955   0.00000  Uiso   1.00
C176   C     0.73468   0.17305   0.41708   0.00000  Uiso   1.00
C177   C     0.92810   0.14077   0.08578   0.00000  Uiso   1.00
C178   C     0.81564   0.15063   0.40944   0.00000  Uiso   1.00
C179   C     0.84968   0.16675   0.08991   0.00000  Uiso   1.00
C180   C     0.80128   0.15052   0.45797   0.00000  Uiso   1.00
C181   C     0.85828   0.15000   0.04561   0.00000  Uiso   1.00
C182   C     0.75264   0.16322   0.48625   0.00000  Uiso   1.00
C183   C     0.77236   0.16183   0.05455   0.00000  Uiso   1.00
C184   C     0.90490   0.13187   0.01933   0.00000  Uiso   1.00
C185   C     0.83519   0.14146   0.47874   0.00000  Uiso   1.00
C186   C     0.82185   0.15149   0.02675   0.00000  Uiso   1.00
C187   C     0.98078   0.10810   0.18840   0.00000  Uiso   1.00
C188   C     0.98259   0.06306   0.20441   0.00000  Uiso   1.00
C189   C     0.97065   0.03165   0.17310   0.00000  Uiso   1.00
C190   C     0.68599   0.22546   0.31135   0.00000  Uiso   1.00
C191   C     0.68452   0.27036   0.29482   0.00000  Uiso   1.00
C192   C     0.69635   0.30205   0.32594   0.00000  Uiso   1.00
C193   C     0.88204   0.12321   0.45320   0.00000  Uiso   1.00
C194   C     0.73824   0.16697   0.03455   0.00000  Uiso   1.00
C195   C     0.91596   0.11798   0.47353   0.00000  Uiso   1.00
C196   C     0.85726   0.31180   0.27420   0.00000  Uiso   1.00
C197   C     0.80954   0.02154   0.22564   0.00000  Uiso   1.00
C198   C     0.85762   0.02138   0.27403   0.00000  Uiso   1.00
H199   H     0.70090   0.17556   0.05682   0.00000  Uiso   1.00
H200   H     0.89297   0.11124   0.41783   0.00000  Uiso   1.00
H201   H     0.87537   0.29509   0.29335   0.00000  Uiso   1.00
H202   H     0.79143   0.03825   0.20649   0.00000  Uiso   1.00
H203   H     0.87556   0.03796   0.29336   0.00000  Uiso   1.00
H204   H     0.79129   0.29538   0.20644   0.00000  Uiso   1.00
H205   H     0.73160   0.11883   0.19868   0.00000  Uiso   1.00
H206   H     0.93512   0.21459   0.30121   0.00000  Uiso   1.00
H207   H     0.93367   0.03830   0.17362   0.00000  Uiso   1.00
H208   H     0.99792   0.03322   0.13652   0.00000  Uiso   1.00
H209   H     0.97151   0.33284   0.18596   0.00000  Uiso   1.00
H210   H     0.95124   0.10357   0.45306   0.00000  Uiso   1.00
H211   H     0.68624   0.05528   0.20337   0.00000  Uiso   1.00
H212   H     0.95598   0.05998   0.24104   0.00000  Uiso   1.00
H213   H     0.94588   0.11372   0.18521   0.00000  Uiso   1.00
H214   H     0.67614   0.11175   0.15273   0.00000  Uiso   1.00
H215   H     0.66873   0.30098   0.36240   0.00000  Uiso   1.00
H216   H     0.73310   0.29528   0.32592   0.00000  Uiso   1.00
H217   H     0.69598   0.00072   0.31253   0.00000  Uiso   1.00
H218   H     0.71131   0.27311   0.25822   0.00000  Uiso   1.00
H219   H     0.98101   0.27816   0.29554   0.00000  Uiso   1.00
H220   H     0.99048   0.22214   0.34699   0.00000  Uiso   1.00
H221   H     0.81666   0.18461   0.10920   0.00000  Uiso   1.00
H222   H     0.72073   0.21974   0.31484   0.00000  Uiso   1.00
H223   H     0.85295   0.14362   0.38669   0.00000  Uiso   1.00
H224   H     0.95387   0.13482   0.10197   0.00000  Uiso   1.00
H225   H     0.70914   0.18229   0.40162   0.00000  Uiso   1.00
H226   H     0.68220   0.18301   0.48704   0.00000  Uiso   1.00
H227   H     0.97489   0.11269   0.02013   0.00000  Uiso   1.00
H228   H     0.75869   0.16518   0.09218   0.00000  Uiso   1.00
N229   N     0.71426   0.16668   0.25001   0.00000  Uiso   1.00
N230   N     0.95241   0.16666   0.24999   0.00000  Uiso   1.00
O231   O     0.79512   0.22775   0.25001   0.00000  Uiso   1.00
O232   O     0.87154   0.10558   0.24999   0.00000  Uiso   1.00
O233   O     0.87157   0.22774   0.25000   0.00000  Uiso   1.00
O234   O     0.79510   0.10559   0.25000   0.00000  Uiso   1.00
O235   O     0.77328   0.16667   0.31613   0.00000  Uiso   1.00
O236   O     0.89339   0.16666   0.18387   0.00000  Uiso   1.00
O237   O     0.84972   0.16666   0.31612   0.00000  Uiso   1.00
O238   O     0.81695   0.16667   0.18388   0.00000  Uiso   1.00
Zn239  Zn    0.78229   0.16667   0.25000   0.00000  Uiso   1.00
Zn240  Zn    0.88438   0.16666   0.25000   0.00000  Uiso   1.00
C241   C     0.16640   0.57993   0.25013   0.00000  Uiso   1.00
C242   C     0.14253   0.64530   0.22580   0.00000  Uiso   1.00
C243   C     0.16721   0.37591   0.24965   0.00000  Uiso   1.00
C244   C     0.16621   0.62410   0.25024   0.00000  Uiso   1.00
C245   C     0.32225   0.47270   0.22136   0.00000  Uiso   1.00
C246   C     0.01111   0.52733   0.27860   0.00000  Uiso   1.00
C247   C     0.03655   0.47324   0.22154   0.00000  Uiso   1.00
C248   C     0.29680   0.52679   0.27843   0.00000  Uiso   1.00
C249   C     0.13601   0.49937   0.33806   0.00000  Uiso   1.00
C250   C     0.19732   0.49953   0.16190   0.00000  Uiso   1.00
C251   C     0.11667   0.49622   0.38895   0.00000  Uiso   1.00
C252   C     0.16696   0.42007   0.24982   0.00000  Uiso   1.00
C253   C     0.21594   0.49326   0.11121   0.00000  Uiso   1.00
C254   C     0.05274   0.50664   0.46565   0.00000  Uiso   1.00
C255   C     0.27292   0.46084   0.03955   0.00000  Uiso   1.00
C256   C     0.06801   0.50638   0.41708   0.00000  Uiso   1.00
C257   C     0.26144   0.47411   0.08578   0.00000  Uiso   1.00
C258   C     0.14897   0.48397   0.40944   0.00000  Uiso   1.00
C259   C     0.18302   0.50008   0.08991   0.00000  Uiso   1.00
C260   C     0.13462   0.48385   0.45797   0.00000  Uiso   1.00
C261   C     0.19162   0.48333   0.04561   0.00000  Uiso   1.00
C262   C     0.08597   0.49656   0.48625   0.00000  Uiso   1.00
C263   C     0.10570   0.49517   0.05455   0.00000  Uiso   1.00
C264   C     0.23824   0.46520   0.01933   0.00000  Uiso   1.00
C265   C     0.16853   0.47479   0.47874   0.00000  Uiso   1.00
C266   C     0.15519   0.48482   0.02675   0.00000  Uiso   1.00
C267   C     0.31411   0.44143   0.18840   0.00000  Uiso   1.00
C268   C     0.31593   0.39640   0.20441   0.00000  Uiso   1.00
C269   C     0.30399   0.36499   0.17310   0.00000  Uiso   1.00
C270   C     0.01932   0.55879   0.31135   0.00000  Uiso   1.00
C271   C     0.01785   0.60369   0.29482   0.00000  Uiso   1.00
C272   C     0.02968   0.63538   0.32594   0.00000  Uiso   1.00
C273   C     0.21537   0.45654   0.45320   0.00000  Uiso   1.00
C274   C     0.07158   0.50030   0.03455   0.00000  Uiso   1.00
C275   C     0.24929   0.45132   0.47353   0.00000  Uiso   1.00
C276   C     0.19059   0.64513   0.27420   0.00000  Uiso   1.00
C277   C     0.14287   0.35488   0.22564   0.00000  Uiso   1.00
C278   C     0.19095   0.35471   0.27403   0.00000  Uiso   1.00
H279   H     0.03423   0.50889   0.05682   0.00000  Uiso   1.00
H280   H     0.22630   0.44457   0.41783   0.00000  Uiso   1.00
H281   H     0.20871   0.62843   0.29335   0.00000  Uiso   1.00
H282   H     0.12476   0.37159   0.20649   0.00000  Uiso   1.00
H283   H     0.20890   0.37129   0.29336   0.00000  Uiso   1.00
H284   H     0.12462   0.62871   0.20644   0.00000  Uiso   1.00
H285   H     0.06493   0.45216   0.19868   0.00000  Uiso   1.00
H286   H     0.26845   0.54792   0.30121   0.00000  Uiso   1.00
H287   H     0.26700   0.37163   0.17362   0.00000  Uiso   1.00
H288   H     0.33125   0.36655   0.13652   0.00000  Uiso   1.00
H289   H     0.30484   0.66617   0.18596   0.00000  Uiso   1.00
H290   H     0.28458   0.43690   0.45306   0.00000  Uiso   1.00
H291   H     0.01957   0.38861   0.20337   0.00000  Uiso   1.00
H292   H     0.28932   0.39331   0.24104   0.00000  Uiso   1.00
H293   H     0.27922   0.44705   0.18521   0.00000  Uiso   1.00
H294   H     0.00947   0.44508   0.15273   0.00000  Uiso   1.00
H295   H     0.00206   0.63431   0.36240   0.00000  Uiso   1.00
H296   H     0.06643   0.62862   0.32592   0.00000  Uiso   1.00
H297   H     0.02931   0.33405   0.31253   0.00000  Uiso   1.00
H298   H     0.04464   0.60645   0.25822   0.00000  Uiso   1.00
H299   H     0.31434   0.61149   0.29554   0.00000  Uiso   1.00
H300   H     0.32381   0.55548   0.34699   0.00000  Uiso   1.00
H301   H     0.15000   0.51794   0.10920   0.00000  Uiso   1.00
H302   H     0.05407   0.55307   0.31484   0.00000  Uiso   1.00
H303   H     0.18629   0.47695   0.38669   0.00000  Uiso   1.00
H304   H     0.28720   0.46815   0.10197   0.00000  Uiso   1.00
H305   H     0.04247   0.51562   0.40162   0.00000  Uiso   1.00
H306   H     0.01554   0.51634   0.48704   0.00000  Uiso   1.00
H307   H     0.30822   0.44603   0.02013   0.00000  Uiso   1.00
H308   H     0.09203   0.49851   0.09218   0.00000  Uiso   1.00
N309   N     0.04759   0.50001   0.25001   0.00000  Uiso   1.00
N310   N     0.28574   0.49999   0.24999   0.00000  Uiso   1.00
O311   O     0.12846   0.56108   0.25001   0.00000  Uiso   1.00
O312   O     0.20488   0.43892   0.24999   0.00000  Uiso   1.00
O313   O     0.20490   0.56107   0.25000   0.00000  Uiso   1.00
O314   O     0.12843   0.43893   0.25000   0.00000  Uiso   1.00
O315   O     0.10661   0.50001   0.31613   0.00000  Uiso   1.00
O316   O     0.22672   0.49999   0.18387   0.00000  Uiso   1.00
O317   O     0.18305   0.50000   0.31612   0.00000  Uiso   1.00
O318   O     0.15028   0.50000   0.18388   0.00000  Uiso   1.00
Zn319  Zn    0.11562   0.50001   0.25000   0.00000  Uiso   1.00
Zn320  Zn    0.21771   0.49999   0.25000   0.00000  Uiso   1.00
C321   C     0.49973   0.57993   0.25013   0.00000  Uiso   1.00
C322   C     0.47586   0.64530   0.22580   0.00000  Uiso   1.00
C323   C     0.50054   0.37591   0.24965   0.00000  Uiso   1.00
C324   C     0.49954   0.62410   0.25024   0.00000  Uiso   1.00
C325   C     0.65558   0.47270   0.22136   0.00000  Uiso   1.00
C326   C     0.34444   0.52733   0.27860   0.00000  Uiso   1.00
C327   C     0.36989   0.47324   0.22154   0.00000  Uiso   1.00
C328   C     0.63013   0.52679   0.27843   0.00000  Uiso   1.00
C329   C     0.46934   0.49937   0.33806   0.00000  Uiso   1.00
C330   C     0.53065   0.49953   0.16190   0.00000  Uiso   1.00
C331   C     0.45001   0.49622   0.38895   0.00000  Uiso   1.00
C332   C     0.50029   0.42007   0.24982   0.00000  Uiso   1.00
C333   C     0.54927   0.49326   0.11121   0.00000  Uiso   1.00
C334   C     0.38607   0.50664   0.46565   0.00000  Uiso   1.00
C335   C     0.60625   0.46084   0.03955   0.00000  Uiso   1.00
C336   C     0.40135   0.50638   0.41708   0.00000  Uiso   1.00
C337   C     0.59477   0.47411   0.08578   0.00000  Uiso   1.00
C338   C     0.48230   0.48397   0.40944   0.00000  Uiso   1.00
C339   C     0.51635   0.50008   0.08991   0.00000  Uiso   1.00
C340   C     0.46795   0.48385   0.45797   0.00000  Uiso   1.00
C341   C     0.52495   0.48333   0.04561   0.00000  Uiso   1.00
C342   C     0.41930   0.49656   0.48625   0.00000  Uiso   1.00
C343   C     0.43903   0.49517   0.05455   0.00000  Uiso   1.00
C344   C     0.57157   0.46520   0.01933   0.00000  Uiso   1.00
C345   C     0.50186   0.47479   0.47874   0.00000  Uiso   1.00
C346   C     0.48852   0.48482   0.02675   0.00000  Uiso   1.00
C347   C     0.64744   0.44143   0.18840   0.00000  Uiso   1.00
C348   C     0.64926   0.39640   0.20441   0.00000  Uiso   1.00
C349   C     0.63732   0.36499   0.17310   0.00000  Uiso   1.00
C350   C     0.35266   0.55879   0.31135   0.00000  Uiso   1.00
C351   C     0.35118   0.60369   0.29482   0.00000  Uiso   1.00
C352   C     0.36301   0.63538   0.32594   0.00000  Uiso   1.00
C353   C     0.54870   0.45654   0.45320   0.00000  Uiso   1.00
C354   C     0.40491   0.50030   0.03455   0.00000  Uiso   1.00
C355   C     0.58262   0.45132   0.47353   0.00000  Uiso   1.00
C356   C     0.52393   0.64513   0.27420   0.00000  Uiso   1.00
C357   C     0.47620   0.35488   0.22564   0.00000  Uiso   1.00
C358   C     0.52428   0.35471   0.27403   0.00000  Uiso   1.00
H359   H     0.36756   0.50889   0.05682   0.00000  Uiso   1.00
H360   H     0.55964   0.44457   0.41783   0.00000  Uiso   1.00
H361   H     0.54204   0.62843   0.29335   0.00000  Uiso   1.00
H362   H     0.45810   0.37159   0.20649   0.00000  Uiso   1.00
H363   H     0.54223   0.37129   0.29336   0.00000  Uiso   1.00
H364   H     0.45795   0.62871   0.20644   0.00000  Uiso   1.00
H365   H     0.39826   0.45216   0.19868   0.00000  Uiso   1.00
H366   H     0.60178   0.54792   0.30121   0.00000  Uiso   1.00
H367   H     0.60034   0.37163   0.17362   0.00000  Uiso   1.00
H368   H     0.66458   0.36655   0.13652   0.00000  Uiso   1.00
H369   H     0.63818   0.66617   0.18596   0.00000  Uiso   1.00
H370   H     0.61791   0.43690   0.45306   0.00000  Uiso   1.00
H371   H     0.35290   0.38861   0.20337   0.00000  Uiso   1.00
H372   H     0.62265   0.39331   0.24104   0.00000  Uiso   1.00
H373   H     0.61255   0.44705   0.18521   0.00000  Uiso   1.00
H374   H     0.34280   0.44508   0.15273   0.00000  Uiso   1.00
H375   H     0.33539   0.63431   0.36240   0.00000  Uiso   1.00
H376   H     0.39977   0.62862   0.32592   0.00000  Uiso   1.00
H377   H     0.36264   0.33405   0.31253   0.00000  Uiso   1.00
H378   H     0.37798   0.60645   0.25822   0.00000  Uiso   1.00
H379   H     0.64767   0.61149   0.29554   0.00000  Uiso   1.00
H380   H     0.65714   0.55548   0.34699   0.00000  Uiso   1.00
H381   H     0.48333   0.51794   0.10920   0.00000  Uiso   1.00
H382   H     0.38740   0.55307   0.31484   0.00000  Uiso   1.00
H383   H     0.51962   0.47695   0.38669   0.00000  Uiso   1.00
H384   H     0.62053   0.46815   0.10197   0.00000  Uiso   1.00
H385   H     0.37580   0.51562   0.40162   0.00000  Uiso   1.00
H386   H     0.34887   0.51634   0.48704   0.00000  Uiso   1.00
H387   H     0.64156   0.44603   0.02013   0.00000  Uiso   1.00
H388   H     0.42536   0.49851   0.09218   0.00000  Uiso   1.00
N389   N     0.38093   0.50001   0.25001   0.00000  Uiso   1.00
N390   N     0.61907   0.49999   0.24999   0.00000  Uiso   1.00
O391   O     0.46179   0.56108   0.25001   0.00000  Uiso   1.00
O392   O     0.53821   0.43892   0.24999   0.00000  Uiso   1.00
O393   O     0.53823   0.56107   0.25000   0.00000  Uiso   1.00
O394   O     0.46177   0.43893   0.25000   0.00000  Uiso   1.00
O395   O     0.43994   0.50001   0.31613   0.00000  Uiso   1.00
O396   O     0.56006   0.49999   0.18387   0.00000  Uiso   1.00
O397   O     0.51639   0.50000   0.31612   0.00000  Uiso   1.00
O398   O     0.48361   0.50000   0.18388   0.00000  Uiso   1.00
Zn399  Zn    0.44896   0.50001   0.25000   0.00000  Uiso   1.00
Zn400  Zn    0.55104   0.49999   0.25000   0.00000  Uiso   1.00
C401   C     0.83306   0.57993   0.25013   0.00000  Uiso   1.00
C402   C     0.80920   0.64530   0.22580   0.00000  Uiso   1.00
C403   C     0.83388   0.37591   0.24965   0.00000  Uiso   1.00
C404   C     0.83287   0.62410   0.25024   0.00000  Uiso   1.00
C405   C     0.98891   0.47270   0.22136   0.00000  Uiso   1.00
C406   C     0.67778   0.52733   0.27860   0.00000  Uiso   1.00
C407   C     0.70322   0.47324   0.22154   0.00000  Uiso   1.00
C408   C     0.96347   0.52679   0.27843   0.00000  Uiso   1.00
C409   C     0.80267   0.49937   0.33806   0.00000  Uiso   1.00
C410   C     0.86398   0.49953   0.16190   0.00000  Uiso   1.00
C411   C     0.78334   0.49622   0.38895   0.00000  Uiso   1.00
C412   C     0.83363   0.42007   0.24982   0.00000  Uiso   1.00
C413   C     0.88260   0.49326   0.11121   0.00000  Uiso   1.00
C414   C     0.71941   0.50664   0.46565   0.00000  Uiso   1.00
C415   C     0.93958   0.46084   0.03955   0.00000  Uiso   1.00
C416   C     0.73468   0.50638   0.41708   0.00000  Uiso   1.00
C417   C     0.92810   0.47411   0.08578   0.00000  Uiso   1.00
C418   C     0.81564   0.48397   0.40944   0.00000  Uiso   1.00
C419   C     0.84968   0.50008   0.08991   0.00000  Uiso   1.00
C420   C     0.80128   0.48385   0.45797   0.00000  Uiso   1.00
C421   C     0.85828   0.48333   0.04561   0.00000  Uiso   1.00
C422   C     0.75264   0.49656   0.48625   0.00000  Uiso   1.00
C423   C     0.77236   0.49517   0.05455   0.00000  Uiso   1.00
C424   C     0.90490   0.46520   0.01933   0.00000  Uiso   1.00
C425   C     0.83519   0.47479   0.47874   0.00000  Uiso   1.00
C426   C     0.82185   0.48482   0.02675   0.00000  Uiso   1.00
C427   C     0.98078   0.44143   0.18840   0.00000  Uiso   1.00
C428   C     0.98259   0.39640   0.20441   0.00000  Uiso   1.00
C429   C     0.97065   0.36499   0.17310   0.00000  Uiso   1.00
C430   C     0.68599   0.55879   0.31135   0.00000  Uiso   1.00
C431   C     0.68452   0.60369   0.29482   0.00000  Uiso   1.00
C432   C     0.69635   0.63538   0.32594   0.00000  Uiso   1.00
C433   C     0.88204   0.45654   0.45320   0.00000  Uiso   1.00
C434   C     0.73824   0.50030   0.03455   0.00000  Uiso   1.00
C435   C     0.91596   0.45132   0.47353   0.00000  Uiso   1.00
C436   C     0.85726   0.64513   0.27420   0.00000  Uiso   1.00
C437   C     0.80954   0.35488   0.22564   0.00000  Uiso   1.00
C438   C     0.85762   0.35471   0.27403   0.00000  Uiso   1.00
H439   H     0.70090   0.50889   0.05682   0.00000  Uiso   1.00
H440   H     0.89297   0.44457   0.41783   0.00000  Uiso   1.00
H441   H     0.87537   0.62843   0.29335   0.00000  Uiso   1.00
H442   H     0.79143   0.37159   0.20649   0.00000  Uiso   1.00
H443   H     0.87556   0.37129   0.29336   0.00000  Uiso   1.00
H444   H     0.79129   0.62871   0.20644   0.00000  Uiso   1.00
H445   H     0.73160   0.45216   0.19868   0.00000  Uiso   1.00
H446   H     0.93512   0.54792   0.30121   0.00000  Uiso   1.00
H447   H     0.93367   0.37163   0.17362   0.00000  Uiso   1.00
H448   H     0.99792   0.36655   0.13652   0.00000  Uiso   1.00
H449   H     0.97151   0.66617   0.18596   0.00000  Uiso   1.00
H450   H     0.95124   0.43690   0.45306   0.00000  Uiso   1.00
H451   H     0.68624   0.38861   0.20337   0.00000  Uiso   1.00
H452   H     0.95598   0.39331   0.24104   0.00000  Uiso   1.00
H453   H     0.94588   0.44705   0.18521   0.00000  Uiso   1.00
H454   H     0.67614   0.44508   0.15273   0.00000  Uiso   1.00
H455   H     0.66873   0.63431   0.36240   0.00000  Uiso   1.00
H456   H     0.73310   0.62862   0.32592   0.00000  Uiso   1.00
H457   H     0.69598   0.33405   0.31253   0.00000  Uiso   1.00
H458   H     0.71131   0.60645   0.25822   0.00000  Uiso   1.00
H459   H     0.98101   0.61149   0.29554   0.00000  Uiso   1.00
H460   H     0.99048   0.55548   0.34699   0.00000  Uiso   1.00
H461   H     0.81666   0.51794   0.10920   0.00000  Uiso   1.00
H462   H     0.72073   0.55307   0.31484   0.00000  Uiso   1.00
H463   H     0.85295   0.47695   0.38669   0.00000  Uiso   1.00
H464   H     0.95387   0.46815   0.10197   0.00000  Uiso   1.00
H465   H     0.70914   0.51562   0.40162   0.00000  Uiso   1.00
H466   H     0.68220   0.51634   0.48704   0.00000  Uiso   1.00
H467   H     0.97489   0.44603   0.02013   0.00000  Uiso   1.00
H468   H     0.75869   0.49851   0.09218   0.00000  Uiso   1.00
N469   N     0.71426   0.50001   0.25001   0.00000  Uiso   1.00
N470   N     0.95241   0.49999   0.24999   0.00000  Uiso   1.00
O471   O     0.79512   0.56108   0.25001   0.00000  Uiso   1.00
O472   O     0.87154   0.43892   0.24999   0.00000  Uiso   1.00
O473   O     0.87157   0.56107   0.25000   0.00000  Uiso   1.00
O474   O     0.79510   0.43893   0.25000   0.00000  Uiso   1.00
O475   O     0.77328   0.50001   0.31613   0.00000  Uiso   1.00
O476   O     0.89339   0.49999   0.18387   0.00000  Uiso   1.00
O477   O     0.84972   0.50000   0.31612   0.00000  Uiso   1.00
O478   O     0.81695   0.50000   0.18388   0.00000  Uiso   1.00
Zn479  Zn    0.78229   0.50001   0.25000   0.00000  Uiso   1.00
Zn480  Zn    0.88438   0.49999   0.25000   0.00000  Uiso   1.00
C481   C     0.16640   0.91327   0.25013   0.00000  Uiso   1.00
C482   C     0.14253   0.97863   0.22580   0.00000  Uiso   1.00
C483   C     0.16721   0.70924   0.24965   0.00000  Uiso   1.00
C484   C     0.16621   0.95743   0.25024   0.00000  Uiso   1.00
C485   C     0.32225   0.80603   0.22136   0.00000  Uiso   1.00
C486   C     0.01111   0.86067   0.27860   0.00000  Uiso   1.00
C487   C     0.03655   0.80657   0.22154   0.00000  Uiso   1.00
C488   C     0.29680   0.86012   0.27843   0.00000  Uiso   1.00
C489   C     0.13601   0.83270   0.33806   0.00000  Uiso   1.00
C490   C     0.19732   0.83287   0.16190   0.00000  Uiso   1.00
C491   C     0.11667   0.82955   0.38895   0.00000  Uiso   1.00
C492   C     0.16696   0.75340   0.24982   0.00000  Uiso   1.00
C493   C     0.21594   0.82659   0.11121   0.00000  Uiso   1.00
C494   C     0.05274   0.83998   0.46565   0.00000  Uiso   1.00
C495   C     0.27292   0.79417   0.03955   0.00000  Uiso   1.00
C496   C     0.06801   0.83972   0.41708   0.00000  Uiso   1.00
C497   C     0.26144   0.80744   0.08578   0.00000  Uiso   1.00
C498   C     0.14897   0.81730   0.40944   0.00000  Uiso   1.00
C499   C     0.18302   0.83341   0.08991   0.00000  Uiso   1.00
C500   C     0.13462   0.81718   0.45797   0.00000  Uiso   1.00
C501   C     0.19162   0.81666   0.04561   0.00000  Uiso   1.00
C502   C     0.08597   0.82989   0.48625   0.00000  Uiso   1.00
C503   C     0.10570   0.82850   0.05455   0.00000  Uiso   1.00
C504   C     0.23824   0.79854   0.01933   0.00000  Uiso   1.00
C505   C     0.16853   0.80813   0.47874   0.00000  Uiso   1.00
C506   C     0.15519   0.81816   0.02675   0.00000  Uiso   1.00
C507   C     0.31411   0.77476   0.18840   0.00000  Uiso   1.00
C508   C     0.31593   0.72973   0.20441   0.00000  Uiso   1.00
C509   C     0.30399   0.69832   0.17310   0.00000  Uiso   1.00
C510   C     0.01932   0.89212   0.31135   0.00000  Uiso   1.00
C511   C     0.01785   0.93703   0.29482   0.00000  Uiso   1.00
C512   C     0.02968   0.96872   0.32594   0.00000  Uiso   1.00
C513   C     0.21537   0.78988   0.45320   0.00000  Uiso   1.00
C514   C     0.07158   0.83363   0.03455   0.00000  Uiso   1.00
C515   C     0.24929   0.78465   0.47353   0.00000  Uiso   1.00
C516   C     0.19059   0.97847   0.27420   0.00000  Uiso   1.00
C517   C     0.14287   0.68821   0.22564   0.00000  Uiso   1.00
C518   C     0.19095   0.68804   0.27403   0.00000  Uiso   1.00
H519   H     0.03423   0.84223   0.05682   0.00000  Uiso   1.00
H520   H     0.22630   0.77791   0.41783   0.00000  Uiso   1.00
H521   H     0.20871   0.96176   0.29335   0.00000  Uiso   1.00
H522   H     0.12476   0.70492   0.20649   0.00000  Uiso   1.00
H523   H     0.20890   0.70463   0.29336   0.00000  Uiso   1.00
H524   H     0.12462   0.96205   0.20644   0.00000  Uiso   1.00
H525   H     0.06493   0.78550   0.19868   0.00000  Uiso   1.00
H526   H     0.26845   0.88126   0.30121   0.00000  Uiso   1.00
H527   H     0.26700   0.70497   0.17362   0.00000  Uiso   1.00
H528   H     0.33125   0.69988   0.13652   0.00000  Uiso   1.00
H529   H     0.30484   0.99950   0.18596   0.00000  Uiso   1.00
H530   H     0.28458   0.77024   0.45306   0.00000  Uiso   1.00
H531   H     0.01957   0.72195   0.20337   0.00000  Uiso   1.00
H532   H     0.28932   0.72665   0.24104   0.00000  Uiso   1.00
H533   H     0.27922   0.78039   0.18521   0.00000  Uiso   1.00
H534   H     0.00947   0.77841   0.15273   0.00000  Uiso   1.00
H535   H     0.00206   0.96765   0.36240   0.00000  Uiso   1.00
H536   H     0.06643   0.96195   0.32592   0.00000  Uiso   1.00
H537   H     0.02931   0.66739   0.31253   0.00000  Uiso   1.00
H538   H     0.04464   0.93978   0.25822   0.00000  Uiso   1.00
H539   H     0.31434   0.94483   0.29554   0.00000  Uiso   1.00
H540   H     0.32381   0.88881   0.34699   0.00000  Uiso   1.00
H541   H     0.15000   0.85128   0.10920   0.00000  Uiso   1.00
H542   H     0.05407   0.88640   0.31484   0.00000  Uiso   1.00
H543   H     0.18629   0.81029   0.38669   0.00000  Uiso   1.00
H544   H     0.28720   0.80148   0.10197   0.00000  Uiso   1.00
H545   H     0.04247   0.84895   0.40162   0.00000  Uiso   1.00
H546   H     0.01554   0.84968   0.48704   0.00000  Uiso   1.00
H547   H     0.30822   0.77936   0.02013   0.00000  Uiso   1.00
H548   H     0.09203   0.83185   0.09218   0.00000  Uiso   1.00
N549   N     0.04759   0.83334   0.25001   0.00000  Uiso   1.00
N550   N     0.28574   0.83332   0.24999   0.00000  Uiso   1.00
O551   O     0.12846   0.89442   0.25001   0.00000  Uiso   1.00
O552   O     0.20488   0.77225   0.24999   0.00000  Uiso   1.00
O553   O     0.20490   0.89441   0.25000   0.00000  Uiso   1.00
O554   O     0.12843   0.77226   0.25000   0.00000  Uiso   1.00
O555   O     0.10661   0.83334   0.31613   0.00000  Uiso   1.00
O556   O     0.22672   0.83333   0.18387   0.00000  Uiso   1.00
O557   O     0.18305   0.83333   0.31612   0.00000  Uiso   1.00
O558   O     0.15028   0.83334   0.18388   0.00000  Uiso   1.00
Zn559  Zn    0.11562   0.83334   0.25000   0.00000  Uiso   1.00
Zn560  Zn    0.21771   0.83333   0.25000   0.00000  Uiso   1.00
C561   C     0.49973   0.91327   0.25013   0.00000  Uiso   1.00
C562   C     0.47586   0.97863   0.22580   0.00000  Uiso   1.00
C563   C     0.50054   0.70924   0.24965   0.00000  Uiso   1.00
C564   C     0.49954   0.95743   0.25024   0.00000  Uiso   1.00
C565   C     0.65558   0.80603   0.22136   0.00000  Uiso   1.00
C566   C     0.34444   0.86067   0.27860   0.00000  Uiso   1.00
C567   C     0.36989   0.80657   0.22154   0.00000  Uiso   1.00
C568   C     0.63013   0.86012   0.27843   0.00000  Uiso   1.00
C569   C     0.46934   0.83270   0.33806   0.00000  Uiso   1.00
C570   C     0.53065   0.83287   0.16190   0.00000  Uiso   1.00
C571   C     0.45001   0.82955   0.38895   0.00000  Uiso   1.00
C572   C     0.50029   0.75340   0.24982   0.00000  Uiso   1.00
C573   C     0.54927   0.82659   0.11121   0.00000  Uiso   1.00
C574   C     0.38607   0.83998   0.46565   0.00000  Uiso   1.00
C575   C     0.60625   0.79417   0.03955   0.00000  Uiso   1.00
C576   C     0.40135   0.83972   0.41708   0.00000  Uiso   1.00
C577   C     0.59477   0.80744   0.08578   0.00000  Uiso   1.00
C578   C     0.48230   0.81730   0.40944   0.00000  Uiso   1.00
C579   C     0.51635   0.83341   0.08991   0.00000  Uiso   1.00
C580   C     0.46795   0.81718   0.45797   0.00000  Uiso   1.00
C581   C     0.52495   0.81666   0.04561   0.00000  Uiso   1.00
C582   C     0.41930   0.82989   0.48625   0.00000  Uiso   1.00
C583   C     0.43903   0.82850   0.05455   0.00000  Uiso   1.00
C584   C     0.57157   0.79854   0.01933   0.00000  Uiso   1.00
C585   C     0.50186   0.80813   0.47874   0.00000  Uiso   1.00
C586   C     0.48852   0.81816   0.02675   0.00000  Uiso   1.00
C587   C     0.64744   0.77476   0.18840   0.00000  Uiso   1.00
C588   C     0.64926   0.72973   0.20441   0.00000  Uiso   1.00
C589   C     0.63732   0.69832   0.17310   0.00000  Uiso   1.00
C590   C     0.35266   0.89212   0.31135   0.00000  Uiso   1.00
C591   C     0.35118   0.93703   0.29482   0.00000  Uiso   1.00
C592   C     0.36301   0.96872   0.32594   0.00000  Uiso   1.00
C593   C     0.54870   0.78988   0.45320   0.00000  Uiso   1.00
C594   C     0.40491   0.83363   0.03455   0.00000  Uiso   1.00
C595   C     0.58262   0.78465   0.47353   0.00000  Uiso   1.00
C596   C     0.52393   0.97847   0.27420   0.00000  Uiso   1.00
C597   C     0.47620   0.68821   0.22564   0.00000  Uiso   1.00
C598   C     0.52428   0.68804   0.27403   0.00000  Uiso   1.00
H599   H     0.36756   0.84223   0.05682   0.00000  Uiso   1.00
H600   H     0.55964   0.77791   0.41783   0.00000  Uiso   1.00
H601   H     0.54204   0.96176   0.29335   0.00000  Uiso   1.00
H602   H     0.45810   0.70492   0.20649   0.00000  Uiso   1.00
H603   H     0.54223   0.70463   0.29336   0.00000  Uiso   1.00
H604   H     0.45795   0.96205   0.20644   0.00000  Uiso   1.00
H605   H     0.39826   0.78550   0.19868   0.00000  Uiso   1.00
H606   H     0.60178   0.88126   0.30121   0.00000  Uiso   1.00
H607   H     0.60034   0.70497   0.17362   0.00000  Uiso   1.00
H608   H     0.66458   0.69988   0.13652   0.00000  Uiso   1.00
H609   H     0.63818   0.99950   0.18596   0.00000  Uiso   1.00
H610   H     0.61791   0.77024   0.45306   0.00000  Uiso   1.00
H611   H     0.35290   0.72195   0.20337   0.00000  Uiso   1.00
H612   H     0.62265   0.72665   0.24104   0.00000  Uiso   1.00
H613   H     0.61255   0.78039   0.18521   0.00000  Uiso   1.00
H614   H     0.34280   0.77841   0.15273   0.00000  Uiso   1.00
H615   H     0.33539   0.96765   0.36240   0.00000  Uiso   1.00
H616   H     0.39977   0.96195   0.32592   0.00000  Uiso   1.00
H617   H     0.36264   0.66739   0.31253   0.00000  Uiso   1.00
H618   H     0.37798   0.93978   0.25822   0.00000  Uiso   1.00
H619   H     0.64767   0.94483   0.29554   0.00000  Uiso   1.00
H620   H     0.65714   0.88881   0.34699   0.00000  Uiso   1.00
H621   H     0.48333   0.85128   0.10920   0.00000  Uiso   1.00
H622   H     0.38740   0.88640   0.31484   0.00000  Uiso   1.00
H623   H     0.51962   0.81029   0.38669   0.00000  Uiso   1.00
H624   H     0.62053   0.80148   0.10197   0.00000  Uiso   1.00
H625   H     0.37580   0.84895   0.40162   0.00000  Uiso   1.00
H626   H     0.34887   0.84968   0.48704   0.00000  Uiso   1.00
H627   H     0.64156   0.77936   0.02013   0.00000  Uiso   1.00
H628   H     0.42536   0.83185   0.09218   0.00000  Uiso   1.00
N629   N     0.38093   0.83334   0.25001   0.00000  Uiso   1.00
N630   N     0.61907   0.83332   0.24999   0.00000  Uiso   1.00
O631   O     0.46179   0.89442   0.25001   0.00000  Uiso   1.00
O632   O     0.53821   0.77225   0.24999   0.00000  Uiso   1.00
O633   O     0.53823   0.89441   0.25000   0.00000  Uiso   1.00
O634   O     0.46177   0.77226   0.25000   0.00000  Uiso   1.00
O635   O     0.43994   0.83334   0.31613   0.00000  Uiso   1.00
O636   O     0.56006   0.83333   0.18387   0.00000  Uiso   1.00
O637   O     0.51639   0.83333   0.31612   0.00000  Uiso   1.00
O638   O     0.48361   0.83334   0.18388   0.00000  Uiso   1.00
Zn639  Zn    0.44896   0.83334   0.25000   0.00000  Uiso   1.00
Zn640  Zn    0.55104   0.83333   0.25000   0.00000  Uiso   1.00
C641   C     0.83306   0.91327   0.25013   0.00000  Uiso   1.00
C642   C     0.80920   0.97863   0.22580   0.00000  Uiso   1.00
C643   C     0.83388   0.70924   0.24965   0.00000  Uiso   1.00
C644   C     0.83287   0.95743   0.25024   0.00000  Uiso   1.00
C645   C     0.98891   0.80603   0.22136   0.00000  Uiso   1.00
C646   C     0.67778   0.86067   0.27860   0.00000  Uiso   1.00
C647   C     0.70322   0.80657   0.22154   0.00000  Uiso   1.00
C648   C     0.96347   0.86012   0.27843   0.00000  Uiso   1.00
C649   C     0.80267   0.83270   0.33806   0.00000  Uiso   1.00
C650   C     0.86398   0.83287   0.16190   0.00000  Uiso   1.00
C651   C     0.78334   0.82955   0.38895   0.00000  Uiso   1.00
C652   C     0.83363   0.75340   0.24982   0.00000  Uiso   1.00
C653   C     0.88260   0.82659   0.11121   0.00000  Uiso   1.00
C654   C     0.71941   0.83998   0.46565   0.00000  Uiso   1.00
C655   C     0.93958   0.79417   0.03955   0.00000  Uiso   1.00
C656   C     0.73468   0.83972   0.41708   0.00000  Uiso   1.00
C657   C     0.92810   0.80744   0.08578   0.00000  Uiso   1.00
C658   C     0.81564   0.81730   0.40944   0.00000  Uiso   1.00
C659   C     0.84968   0.83341   0.08991   0.00000  Uiso   1.00
C660   C     0.80128   0.81718   0.45797   0.00000  Uiso   1.00
C661   C     0.85828   0.81666   0.04561   0.00000  Uiso   1.00
C662   C     0.75264   0.82989   0.48625   0.00000  Uiso   1.00
C663   C     0.77236   0.82850   0.05455   0.00000  Uiso   1.00
C664   C     0.90490   0.79854   0.01933   0.00000  Uiso   1.00
C665   C     0.83519   0.80813   0.47874   0.00000  Uiso   1.00
C666   C     0.82185   0.81816   0.02675   0.00000  Uiso   1.00
C667   C     0.98078   0.77476   0.18840   0.00000  Uiso   1.00
C668   C     0.98259   0.72973   0.20441   0.00000  Uiso   1.00
C669   C     0.97065   0.69832   0.17310   0.00000  Uiso   1.00
C670   C     0.68599   0.89212   0.31135   0.00000  Uiso   1.00
C671   C     0.68452   0.93703   0.29482   0.00000  Uiso   1.00
C672   C     0.69635   0.96872   0.32594   0.00000  Uiso   1.00
C673   C     0.88204   0.78988   0.45320   0.00000  Uiso   1.00
C674   C     0.73824   0.83363   0.03455   0.00000  Uiso   1.00
C675   C     0.91596   0.78465   0.47353   0.00000  Uiso   1.00
C676   C     0.85726   0.97847   0.27420   0.00000  Uiso   1.00
C677   C     0.80954   0.68821   0.22564   0.00000  Uiso   1.00
C678   C     0.85762   0.68804   0.27403   0.00000  Uiso   1.00
H679   H     0.70090   0.84223   0.05682   0.00000  Uiso   1.00
H680   H     0.89297   0.77791   0.41783   0.00000  Uiso   1.00
H681   H     0.87537   0.96176   0.29335   0.00000  Uiso   1.00
H682   H     0.79143   0.70492   0.20649   0.00000  Uiso   1.00
H683   H     0.87556   0.70463   0.29336   0.00000  Uiso   1.00
H684   H     0.79129   0.96205   0.20644   0.00000  Uiso   1.00
H685   H     0.73160   0.78550   0.19868   0.00000  Uiso   1.00
H686   H     0.93512   0.88126   0.30121   0.00000  Uiso   1.00
H687   H     0.93367   0.70497   0.17362   0.00000  Uiso   1.00
H688   H     0.99792   0.69988   0.13652   0.00000  Uiso   1.00
H689   H     0.97151   0.99950   0.18596   0.00000  Uiso   1.00
H690   H     0.95124   0.77024   0.45306   0.00000  Uiso   1.00
H691   H     0.68624   0.72195   0.20337   0.00000  Uiso   1.00
H692   H     0.95598   0.72665   0.24104   0.00000  Uiso   1.00
H693   H     0.94588   0.78039   0.18521   0.00000  Uiso   1.00
H694   H     0.67614   0.77841   0.15273   0.00000  Uiso   1.00
H695   H     0.66873   0.96765   0.36240   0.00000  Uiso   1.00
H696   H     0.73310   0.96195   0.32592   0.00000  Uiso   1.00
H697   H     0.69598   0.66739   0.31253   0.00000  Uiso   1.00
H698   H     0.71131   0.93978   0.25822   0.00000  Uiso   1.00
H699   H     0.98101   0.94483   0.29554   0.00000  Uiso   1.00
H700   H     0.99048   0.88881   0.34699   0.00000  Uiso   1.00
H701   H     0.81666   0.85128   0.10920   0.00000  Uiso   1.00
H702   H     0.72073   0.88640   0.31484   0.00000  Uiso   1.00
H703   H     0.85295   0.81029   0.38669   0.00000  Uiso   1.00
H704   H     0.95387   0.80148   0.10197   0.00000  Uiso   1.00
H705   H     0.70914   0.84895   0.40162   0.00000  Uiso   1.00
H706   H     0.68220   0.84968   0.48704   0.00000  Uiso   1.00
H707   H     0.97489   0.77936   0.02013   0.00000  Uiso   1.00
H708   H     0.75869   0.83185   0.09218   0.00000  Uiso   1.00
N709   N     0.71426   0.83334   0.25001   0.00000  Uiso   1.00
N710   N     0.95241   0.83332   0.24999   0.00000  Uiso   1.00
O711   O     0.79512   0.89442   0.25001   0.00000  Uiso   1.00
O712   O     0.87154   0.77225   0.24999   0.00000  Uiso   1.00
O713   O     0.87157   0.89441   0.25000   0.00000  Uiso   1.00
O714   O     0.79510   0.77226   0.25000   0.00000  Uiso   1.00
O715   O     0.77328   0.83334   0.31613   0.00000  Uiso   1.00
O716   O     0.89339   0.83333   0.18387   0.00000  Uiso   1.00
O717   O     0.84972   0.83333   0.31612   0.00000  Uiso   1.00
O718   O     0.81695   0.83334   0.18388   0.00000  Uiso   1.00
Zn719  Zn    0.78229   0.83334   0.25000   0.00000  Uiso   1.00
Zn720  Zn    0.88438   0.83333   0.25000   0.00000  Uiso   1.00
C721   C     0.16640   0.24660   0.75013   0.00000  Uiso   1.00
C722   C     0.14253   0.31196   0.72580   0.00000  Uiso   1.00
C723   C     0.16721   0.04257   0.74965   0.00000  Uiso   1.00
C724   C     0.16621   0.29077   0.75024   0.00000  Uiso   1.00
C725   C     0.32225   0.13937   0.72136   0.00000  Uiso   1.00
C726   C     0.01111   0.19400   0.77860   0.00000  Uiso   1.00
C727   C     0.03655   0.13991   0.72154   0.00000  Uiso   1.00
C728   C     0.29680   0.19345   0.77843   0.00000  Uiso   1.00
C729   C     0.13601   0.16604   0.83806   0.00000  Uiso   1.00
C730   C     0.19732   0.16620   0.66190   0.00000  Uiso   1.00
C731   C     0.11667   0.16288   0.88895   0.00000  Uiso   1.00
C732   C     0.16696   0.08673   0.74982   0.00000  Uiso   1.00
C733   C     0.21594   0.15993   0.61121   0.00000  Uiso   1.00
C734   C     0.05274   0.17331   0.96565   0.00000  Uiso   1.00
C735   C     0.27292   0.12751   0.53955   0.00000  Uiso   1.00
C736   C     0.06801   0.17305   0.91708   0.00000  Uiso   1.00
C737   C     0.26144   0.14077   0.58578   0.00000  Uiso   1.00
C738   C     0.14897   0.15063   0.90944   0.00000  Uiso   1.00
C739   C     0.18302   0.16675   0.58991   0.00000  Uiso   1.00
C740   C     0.13462   0.15052   0.95797   0.00000  Uiso   1.00
C741   C     0.19162   0.15000   0.54561   0.00000  Uiso   1.00
C742   C     0.08597   0.16322   0.98625   0.00000  Uiso   1.00
C743   C     0.10570   0.16183   0.55455   0.00000  Uiso   1.00
C744   C     0.23824   0.13187   0.51933   0.00000  Uiso   1.00
C745   C     0.16853   0.14146   0.97874   0.00000  Uiso   1.00
C746   C     0.15519   0.15149   0.52675   0.00000  Uiso   1.00
C747   C     0.31411   0.10810   0.68840   0.00000  Uiso   1.00
C748   C     0.31593   0.06306   0.70441   0.00000  Uiso   1.00
C749   C     0.30399   0.03165   0.67310   0.00000  Uiso   1.00
C750   C     0.01932   0.22546   0.81135   0.00000  Uiso   1.00
C751   C     0.01785   0.27036   0.79482   0.00000  Uiso   1.00
C752   C     0.02968   0.30205   0.82594   0.00000  Uiso   1.00
C753   C     0.21537   0.12321   0.95320   0.00000  Uiso   1.00
C754   C     0.07158   0.16697   0.53455   0.00000  Uiso   1.00
C755   C     0.24929   0.11798   0.97353   0.00000  Uiso   1.00
C756   C     0.19059   0.31180   0.77420   0.00000  Uiso   1.00
C757   C     0.14287   0.02154   0.72564   0.00000  Uiso   1.00
C758   C     0.19095   0.02138   0.77403   0.00000  Uiso   1.00
H759   H     0.03423   0.17556   0.55682   0.00000  Uiso   1.00
H760   H     0.22630   0.11124   0.91783   0.00000  Uiso   1.00
H761   H     0.20871   0.29509   0.79335   0.00000  Uiso   1.00
H762   H     0.12476   0.03825   0.70649   0.00000  Uiso   1.00
H763   H     0.20890   0.03796   0.79336   0.00000  Uiso   1.00
H764   H     0.12462   0.29538   0.70644   0.00000  Uiso   1.00
H765   H     0.06493   0.11883   0.69868   0.00000  Uiso   1.00
H766   H     0.26845   0.21459   0.80121   0.00000  Uiso   1.00
H767   H     0.26700   0.03830   0.67362   0.00000  Uiso   1.00
H768   H     0.33125   0.03322   0.63652   0.00000  Uiso   1.00
H769   H     0.30484   0.33284   0.68596   0.00000  Uiso   1.00
H770   H     0.28458   0.10357   0.95306   0.00000  Uiso   1.00
H771   H     0.01957   0.05528   0.70337   0.00000  Uiso   1.00
H772   H     0.28932   0.05998   0.74104   0.00000  Uiso   1.00
H773   H     0.27922   0.11372   0.68521   0.00000  Uiso   1.00
H774   H     0.00947   0.11175   0.65273   0.00000  Uiso   1.00
H775   H     0.00206   0.30098   0.86240   0.00000  Uiso   1.00
H776   H     0.06643   0.29528   0.82592   0.00000  Uiso   1.00
H777   H     0.02931   0.00072   0.81253   0.00000  Uiso   1.00
H778   H     0.04464   0.27311   0.75822   0.00000  Uiso   1.00
H779   H     0.31434   0.27816   0.79554   0.00000  Uiso   1.00
H780   H     0.32381   0.22214   0.84699   0.00000  Uiso   1.00
H781   H     0.15000   0.18461   0.60920   0.00000  Uiso   1.00
H782   H     0.05407   0.21974   0.81484   0.00000  Uiso   1.00
H783   H     0.18629   0.14362   0.88669   0.00000  Uiso   1.00
H784   H     0.28720   0.13482   0.60197   0.00000  Uiso   1.00
H785   H     0.04247   0.18229   0.90162   0.00000  Uiso   1.00
H786   H     0.01554   0.18301   0.98704   0.00000  Uiso   1.00
H787   H     0.30822   0.11269   0.52013   0.00000  Uiso   1.00
H788   H     0.09203   0.16518   0.59218   0.00000  Uiso   1.00
N789   N     0.04759   0.16668   0.75001   0.00000  Uiso   1.00
N790   N     0.28574   0.16666   0.74999   0.00000  Uiso   1.00
O791   O     0.12846   0.22775   0.75001   0.00000  Uiso   1.00
O792   O     0.20488   0.10558   0.74999   0.00000  Uiso   1.00
O793   O     0.20490   0.22774   0.75000   0.00000  Uiso   1.00
O794   O     0.12843   0.10559   0.75000   0.00000  Uiso   1.00
O795   O     0.10661   0.16667   0.81613   0.00000  Uiso   1.00
O796   O     0.22672   0.16666   0.68387   0.00000  Uiso   1.00
O797   O     0.18305   0.16666   0.81612   0.00000  Uiso   1.00
O798   O     0.15028   0.16667   0.68388   0.00000  Uiso   1.00
Zn799  Zn    0.11562   0.16667   0.75000   0.00000  Uiso   1.00
Zn800  Zn    0.21771   0.16666   0.75000   0.00000  Uiso   1.00
C801   C     0.49973   0.24660   0.75013   0.00000  Uiso   1.00
C802   C     0.47586   0.31196   0.72580   0.00000  Uiso   1.00
C803   C     0.50054   0.04257   0.74965   0.00000  Uiso   1.00
C804   C     0.49954   0.29077   0.75024   0.00000  Uiso   1.00
C805   C     0.65558   0.13937   0.72136   0.00000  Uiso   1.00
C806   C     0.34444   0.19400   0.77860   0.00000  Uiso   1.00
C807   C     0.36989   0.13991   0.72154   0.00000  Uiso   1.00
C808   C     0.63013   0.19345   0.77843   0.00000  Uiso   1.00
C809   C     0.46934   0.16604   0.83806   0.00000  Uiso   1.00
C810   C     0.53065   0.16620   0.66190   0.00000  Uiso   1.00
C811   C     0.45001   0.16288   0.88895   0.00000  Uiso   1.00
C812   C     0.50029   0.08673   0.74982   0.00000  Uiso   1.00
C813   C     0.54927   0.15993   0.61121   0.00000  Uiso   1.00
C814   C     0.38607   0.17331   0.96565   0.00000  Uiso   1.00
C815   C     0.60625   0.12751   0.53955   0.00000  Uiso   1.00
C816   C     0.40135   0.17305   0.91708   0.00000  Uiso   1.00
C817   C     0.59477   0.14077   0.58578   0.00000  Uiso   1.00
C818   C     0.48230   0.15063   0.90944   0.00000  Uiso   1.00
C819   C     0.51635   0.16675   0.58991   0.00000  Uiso   1.00
C820   C     0.46795   0.15052   0.95797   0.00000  Uiso   1.00
C821   C     0.52495   0.15000   0.54561   0.00000  Uiso   1.00
C822   C     0.41930   0.16322   0.98625   0.00000  Uiso   1.00
C823   C     0.43903   0.16183   0.55455   0.00000  Uiso   1.00
C824   C     0.57157   0.13187   0.51933   0.00000  Uiso   1.00
C825   C     0.50186   0.14146   0.97874   0.00000  Uiso   1.00
C826   C     0.48852   0.15149   0.52675   0.00000  Uiso   1.00
C827   C     0.64744   0.10810   0.68840   0.00000  Uiso   1.00
C828   C     0.64926   0.06306   0.70441   0.00000  Uiso   1.00
C829   C     0.63732   0.03165   0.67310   0.00000  Uiso   1.00
C830   C     0.35266   0.22546   0.81135   0.00000  Uiso   1.00
C831   C     0.35118   0.27036   0.79482   0.00000  Uiso   1.00
C832   C     0.36301   0.30205   0.82594   0.00000  Uiso   1.00
C833   C     0.54870   0.12321   0.95320   0.00000  Uiso   1.00
C834   C     0.40491   0.16697   0.53455   0.00000  Uiso   1.00
C835   C     0.58262   0.11798   0.97353   0.00000  Uiso   1.00
C836   C     0.52393   0.31180   0.77420   0.00000  Uiso   1.00
C837   C     0.47620   0.02154   0.72564   0.00000  Uiso   1.00
C838   C     0.52428   0.02138   0.77403   0.00000  Uiso   1.00
H839   H     0.36756   0.17556   0.55682   0.00000  Uiso   1.00
H840   H     0.55964   0.11124   0.91783   0.00000  Uiso   1.00
H841   H     0.54204   0.29509   0.79335   0.00000  Uiso   1.00
H842   H     0.45810   0.03825   0.70649   0.00000  Uiso   1.00
H843   H     0.54223   0.03796   0.79336   0.00000  Uiso   1.00
H844   H     0.45795   0.29538   0.70644   0.00000  Uiso   1.00
H845   H     0.39826   0.11883   0.69868   0.00000  Uiso   1.00
H846   H     0.60178   0.21459   0.80121   0.00000  Uiso   1.00
H847   H     0.60034   0.03830   0.67362   0.00000  Uiso   1.00
H848   H     0.66458   0.03322   0.63652   0.00000  Uiso   1.00
H849   H     0.63818   0.33284   0.68596   0.00000  Uiso   1.00
H850   H     0.61791   0.10357   0.95306   0.00000  Uiso   1.00
H851   H     0.35290   0.05528   0.70337   0.00000  Uiso   1.00
H852   H     0.62265   0.05998   0.74104   0.00000  Uiso   1.00
H853   H     0.61255   0.11372   0.68521   0.00000  Uiso   1.00
H854   H     0.34280   0.11175   0.65273   0.00000  Uiso   1.00
H855   H     0.33539   0.30098   0.86240   0.00000  Uiso   1.00
H856   H     0.39977   0.29528   0.82592   0.00000  Uiso   1.00
H857   H     0.36264   0.00072   0.81253   0.00000  Uiso   1.00
H858   H     0.37798   0.27311   0.75822   0.00000  Uiso   1.00
H859   H     0.64767   0.27816   0.79554   0.00000  Uiso   1.00
H860   H     0.65714   0.22214   0.84699   0.00000  Uiso   1.00
H861   H     0.48333   0.18461   0.60920   0.00000  Uiso   1.00
H862   H     0.38740   0.21974   0.81484   0.00000  Uiso   1.00
H863   H     0.51962   0.14362   0.88669   0.00000  Uiso   1.00
H864   H     0.62053   0.13482   0.60197   0.00000  Uiso   1.00
H865   H     0.37580   0.18229   0.90162   0.00000  Uiso   1.00
H866   H     0.34887   0.18301   0.98704   0.00000  Uiso   1.00
H867   H     0.64156   0.11269   0.52013   0.00000  Uiso   1.00
H868   H     0.42536   0.16518   0.59218   0.00000  Uiso   1.00
N869   N     0.38093   0.16668   0.75001   0.00000  Uiso   1.00
N870   N     0.61907   0.16666   0.74999   0.00000  Uiso   1.00
O871   O     0.46179   0.22775   0.75001   0.00000  Uiso   1.00
O872   O     0.53821   0.10558   0.74999   0.00000  Uiso   1.00
O873   O     0.53823   0.22774   0.75000   0.00000  Uiso   1.00
O874   O     0.46177   0.10559   0.75000   0.00000  Uiso   1.00
O875   O     0.43994   0.16667   0.81613   0.00000  Uiso   1.00
O876   O     0.56006   0.16666   0.68387   0.00000  Uiso   1.00
O877   O     0.51639   0.16666   0.81612   0.00000  Uiso   1.00
O878   O     0.48361   0.16667   0.68388   0.00000  Uiso   1.00
Zn879  Zn    0.44896   0.16667   0.75000   0.00000  Uiso   1.00
Zn880  Zn    0.55104   0.16666   0.75000   0.00000  Uiso   1.00
C881   C     0.83306   0.24660   0.75013   0.00000  Uiso   1.00
C882   C     0.80920   0.31196   0.72580   0.00000  Uiso   1.00
C883   C     0.83388   0.04257   0.74965   0.00000  Uiso   1.00
C884   C     0.83287   0.29077   0.75024   0.00000  Uiso   1.00
C885   C     0.98891   0.13937   0.72136   0.00000  Uiso   1.00
C886   C     0.67778   0.19400   0.77860   0.00000  Uiso   1.00
C887   C     0.70322   0.13991   0.72154   0.00000  Uiso   1.00
C888   C     0.96347   0.19345   0.77843   0.00000  Uiso   1.00
C889   C     0.80267   0.16604   0.83806   0.00000  Uiso   1.00
C890   C     0.86398   0.16620   0.66190   0.00000  Uiso   1.00
C891   C     0.78334   0.16288   0.88895   0.00000  Uiso   1.00
C892   C     0.83363   0.08673   0.74982   0.00000  Uiso   1.00
C893   C     0.88260   0.15993   0.61121   0.00000  Uiso   1.00
C894   C     0.71941   0.17331   0.96565   0.00000  Uiso   1.00
C895   C     0.93958   0.12751   0.53955   0.00000  Uiso   1.00
C896   C     0.73468   0.17305   0.91708   0.00000  Uiso   1.00
C897   C     0.92810   0.14077   0.58578   0.00000  Uiso   1.00
C898   C     0.81564   0.15063   0.90944   0.00000  Uiso   1.00
C899   C     0.84968   0.16675   0.58991   0.00000  Uiso   1.00
C900   C     0.80128   0.15052   0.95797   0.00000  Uiso   1.00
C901   C     0.85828   0.15000   0.54561   0.00000  Uiso   1.00
C902   C     0.75264   0.16322   0.98625   0.00000  Uiso   1.00
C903   C     0.77236   0.16183   0.55455   0.00000  Uiso   1.00
C904   C     0.90490   0.13187   0.51933   0.00000  Uiso   1.00
C905   C     0.83519   0.14146   0.97874   0.00000  Uiso   1.00
C906   C     0.82185   0.15149   0.52675   0.00000  Uiso   1.00
C907   C     0.98078   0.10810   0.68840   0.00000  Uiso   1.00
C908   C     0.98259   0.06306   0.70441   0.00000  Uiso   1.00
C909   C     0.97065   0.03165   0.67310   0.00000  Uiso   1.00
C910   C     0.68599   0.22546   0.81135   0.00000  Uiso   1.00
C911   C     0.68452   0.27036   0.79482   0.00000  Uiso   1.00
C912   C     0.69635   0.30205   0.82594   0.00000  Uiso   1.00
C913   C     0.88204   0.12321   0.95320   0.00000  Uiso   1.00
C914   C     0.73824   0.16697   0.53455   0.00000  Uiso   1.00
C915   C     0.91596   0.11798   0.97353   0.00000  Uiso   1.00
C916   C     0.85726   0.31180   0.77420   0.00000  Uiso   1.00
C917   C     0.80954   0.02154   0.72564   0.00000  Uiso   1.00
C918   C     0.85762   0.02138   0.77403   0.00000  Uiso   1.00
H919   H     0.70090   0.17556   0.55682   0.00000  Uiso   1.00
H920   H     0.89297   0.11124   0.91783   0.00000  Uiso   1.00
H921   H     0.87537   0.29509   0.79335   0.00000  Uiso   1.00
H922   H     0.79143   0.03825   0.70649   0.00000  Uiso   1.00
H923   H     0.87556   0.03796   0.79336   0.00000  Uiso   1.00
H924   H     0.79129   0.29538   0.70644   0.00000  Uiso   1.00
H925   H     0.73160   0.11883   0.69868   0.00000  Uiso   1.00
H926   H     0.93512   0.21459   0.80121   0.00000  Uiso   1.00
H927   H     0.93367   0.03830   0.67362   0.00000  Uiso   1.00
H928   H     0.99792   0.03322   0.63652   0.00000  Uiso   1.00
H929   H     0.97151   0.33284   0.68596   0.00000  Uiso   1.00
H930   H     0.95124   0.10357   0.95306   0.00000  Uiso   1.00
H931   H     0.68624   0.05528   0.70337   0.00000  Uiso   1.00
H932   H     0.95598   0.05998   0.74104   0.00000  Uiso   1.00
H933   H     0.94588   0.11372   0.68521   0.00000  Uiso   1.00
H934   H     0.67614   0.11175   0.65273   0.00000  Uiso   1.00
H935   H     0.66873   0.30098   0.86240   0.00000  Uiso   1.00
H936   H     0.73310   0.29528   0.82592   0.00000  Uiso   1.00
H937   H     0.69598   0.00072   0.81253   0.00000  Uiso   1.00
H938   H     0.71131   0.27311   0.75822   0.00000  Uiso   1.00
H939   H     0.98101   0.27816   0.79554   0.00000  Uiso   1.00
H940   H     0.99048   0.22214   0.84699   0.00000  Uiso   1.00
H941   H     0.81666   0.18461   0.60920   0.00000  Uiso   1.00
H942   H     0.72073   0.21974   0.81484   0.00000  Uiso   1.00
H943   H     0.85295   0.14362   0.88669   0.00000  Uiso   1.00
H944   H     0.95387   0.13482   0.60197   0.00000  Uiso   1.00
H945   H     0.70914   0.18229   0.90162   0.00000  Uiso   1.00
H946   H     0.68220   0.18301   0.98704   0.00000  Uiso   1.00
H947   H     0.97489   0.11269   0.52013   0.00000  Uiso   1.00
H948   H     0.75869   0.16518   0.59218   0.00000  Uiso   1.00
N949   N     0.71426   0.16668   0.75001   0.00000  Uiso   1.00
N950   N     0.95241   0.16666   0.74999   0.00000  Uiso   1.00
O951   O     0.79512   0.22775   0.75001   0.00000  Uiso   1.00
O952   O     0.87154   0.10558   0.74999   0.00000  Uiso   1.00
O953   O     0.87157   0.22774   0.75000   0.00000  Uiso   1.00
O954   O     0.79510   0.10559   0.75000   0.00000  Uiso   1.00
O955   O     0.77328   0.16667   0.81613   0.00000  Uiso   1.00
O956   O     0.89339   0.16666   0.68387   0.00000  Uiso   1.00
O957   O     0.84972   0.16666   0.81612   0.00000  Uiso   1.00
O958   O     0.81695   0.16667   0.68388   0.00000  Uiso   1.00
Zn959  Zn    0.78229   0.16667   0.75000   0.00000  Uiso   1.00
Zn960  Zn    0.88438   0.16666   0.75000   0.00000  Uiso   1.00
C961   C     0.16640   0.57993   0.75013   0.00000  Uiso   1.00
C962   C     0.14253   0.64530   0.72580   0.00000  Uiso   1.00
C963   C     0.16721   0.37591   0.74965   0.00000  Uiso   1.00
C964   C     0.16621   0.62410   0.75024   0.00000  Uiso   1.00
C965   C     0.32225   0.47270   0.72136   0.00000  Uiso   1.00
C966   C     0.01111   0.52733   0.77860   0.00000  Uiso   1.00
C967   C     0.03655   0.47324   0.72154   0.00000  Uiso   1.00
C968   C     0.29680   0.52679   0.77843   0.00000  Uiso   1.00
C969   C     0.13601   0.49937   0.83806   0.00000  Uiso   1.00
C970   C     0.19732   0.49953   0.66190   0.00000  Uiso   1.00
C971   C     0.11667   0.49622   0.88895   0.00000  Uiso   1.00
C972   C     0.16696   0.42007   0.74982   0.00000  Uiso   1.00
C973   C     0.21594   0.49326   0.61121   0.00000  Uiso   1.00
C974   C     0.05274   0.50664   0.96565   0.00000  Uiso   1.00
C975   C     0.27292   0.46084   0.53955   0.00000  Uiso   1.00
C976   C     0.06801   0.50638   0.91708   0.00000  Uiso   1.00
C977   C     0.26144   0.47411   0.58578   0.00000  Uiso   1.00
C978   C     0.14897   0.48397   0.90944   0.00000  Uiso   1.00
C979   C     0.18302   0.50008   0.58991   0.00000  Uiso   1.00
C980   C     0.13462   0.48385   0.95797   0.00000  Uiso   1.00
C981   C     0.19162   0.48333   0.54561   0.00000  Uiso   1.00
C982   C     0.08597   0.49656   0.98625   0.00000  Uiso   1.00
C983   C     0.10570   0.49517   0.55455   0.00000  Uiso   1.00
C984   C     0.23824   0.46520   0.51933   0.00000  Uiso   1.00
C985   C     0.16853   0.47479   0.97874   0.00000  Uiso   1.00
C986   C     0.15519   0.48482   0.52675   0.00000  Uiso   1.00
C987   C     0.31411   0.44143   0.68840   0.00000  Uiso   1.00
C988   C     0.31593   0.39640   0.70441   0.00000  Uiso   1.00
C989   C     0.30399   0.36499   0.67310   0.00000  Uiso   1.00
C990   C     0.01932   0.55879   0.81135   0.00000  Uiso   1.00
C991   C     0.01785   0.60369   0.79482   0.00000  Uiso   1.00
C992   C     0.02968   0.63538   0.82594   0.00000  Uiso   1.00
C993   C     0.21537   0.45654   0.95320   0.00000  Uiso   1.00
C994   C     0.07158   0.50030   0.53455   0.00000  Uiso   1.00
C995   C     0.24929   0.45132   0.97353   0.00000  Uiso   1.00
C996   C     0.19059   0.64513   0.77420   0.00000  Uiso   1.00
C997   C     0.14287   0.35488   0.72564   0.00000  Uiso   1.00
C998   C     0.19095   0.35471   0.77403   0.00000  Uiso   1.00
H999   H     0.03423   0.50889   0.55682   0.00000  Uiso   1.00
H1000  H     0.22630   0.44457   0.91783   0.00000  Uiso   1.00
H1001  H     0.20871   0.62843   0.79335   0.00000  Uiso   1.00
H1002  H     0.12476   0.37159   0.70649   0.00000  Uiso   1.00
H1003  H     0.20890   0.37129   0.79336   0.00000  Uiso   1.00
H1004  H     0.12462   0.62871   0.70644   0.00000  Uiso   1.00
H1005  H     0.06493   0.45216   0.69868   0.00000  Uiso   1.00
H1006  H     0.26845   0.54792   0.80121   0.00000  Uiso   1.00
H1007  H     0.26700   0.37163   0.67362   0.00000  Uiso   1.00
H1008  H     0.33125   0.36655   0.63652   0.00000  Uiso   1.00
H1009  H     0.30484   0.66617   0.68596   0.00000  Uiso   1.00
H1010  H     0.28458   0.43690   0.95306   0.00000  Uiso   1.00
H1011  H     0.01957   0.38861   0.70337   0.00000  Uiso   1.00
H1012  H     0.28932   0.39331   0.74104   0.00000  Uiso   1.00
H1013  H     0.27922   0.44705   0.68521   0.00000  Uiso   1.00
H1014  H     0.00947   0.44508   0.65273   0.00000  Uiso   1.00
H1015  H     0.00206   0.63431   0.86240   0.00000  Uiso   1.00
H1016  H     0.06643   0.62862   0.82592   0.00000  Uiso   1.00
H1017  H     0.02931   0.33405   0.81253   0.00000  Uiso   1.00
H1018  H     0.04464   0.60645   0.75822   0.00000  Uiso   1.00
H1019  H     0.31434   0.61149   0.79554   0.00000  Uiso   1.00
H1020  H     0.32381   0.55548   0.84699   0.00000  Uiso   1.00
H1021  H     0.15000   0.51794   0.60920   0.00000  Uiso   1.00
H1022  H     0.05407   0.55307   0.81484   0.00000  Uiso   1.00
H1023  H     0.18629   0.47695   0.88669   0.00000  Uiso   1.00
H1024  H     0.28720   0.46815   0.60197   0.00000  Uiso   1.00
H1025  H     0.04247   0.51562   0.90162   0.00000  Uiso   1.00
H1026  H     0.01554   0.51634   0.98704   0.00000  Uiso   1.00
H1027  H     0.30822   0.44603   0.52013   0.00000  Uiso   1.00
H1028  H     0.09203   0.49851   0.59218   0.00000  Uiso   1.00
N1029  N     0.04759   0.50001   0.75001   0.00000  Uiso   1.00
N1030  N     0.28574   0.49999   0.74999   0.00000  Uiso   1.00
O1031  O     0.12846   0.56108   0.75001   0.00000  Uiso   1.00
O1032  O     0.20488   0.43892   0.74999   0.00000  Uiso   1.00
O1033  O     0.20490   0.56107   0.75000   0.00000  Uiso   1.00
O1034  O     0.12843   0.43893   0.75000   0.00000  Uiso   1.00
O1035  O     0.10661   0.50001   0.81613   0.00000  Uiso   1.00
O1036  O     0.22672   0.49999   0.68387   0.00000  Uiso   1.00
O1037  O     0.18305   0.50000   0.81612   0.00000  Uiso   1.00
O1038  O     0.15028   0.50000   0.68388   0.00000  Uiso   1.00
Zn1039 Zn    0.11562   0.50001   0.75000   0.00000  Uiso   1.00
Zn1040 Zn    0.21771   0.49999   0.75000   0.00000  Uiso   1.00
C1041  C     0.49973   0.57993   0.75013   0.00000  Uiso   1.00
C1042  C     0.47586   0.64530   0.72580   0.00000  Uiso   1.00
C1043  C     0.50054   0.37591   0.74965   0.00000  Uiso   1.00
C1044  C     0.49954   0.62410   0.75024   0.00000  Uiso   1.00
C1045  C     0.65558   0.47270   0.72136   0.00000  Uiso   1.00
C1046  C     0.34444   0.52733   0.77860   0.00000  Uiso   1.00
C1047  C     0.36989   0.47324   0.72154   0.00000  Uiso   1.00
C1048  C     0.63013   0.52679   0.77843   0.00000  Uiso   1.00
C1049  C     0.46934   0.49937   0.83806   0.00000  Uiso   1.00
C1050  C     0.53065   0.49953   0.66190   0.00000  Uiso   1.00
C1051  C     0.45001   0.49622   0.88895   0.00000  Uiso   1.00
C1052  C     0.50029   0.42007   0.74982   0.00000  Uiso   1.00
C1053  C     0.54927   0.49326   0.61121   0.00000  Uiso   1.00
C1054  C     0.38607   0.50664   0.96565   0.00000  Uiso   1.00
C1055  C     0.60625   0.46084   0.53955   0.00000  Uiso   1.00
C1056  C     0.40135   0.50638   0.91708   0.00000  Uiso   1.00
C1057  C     0.59477   0.47411   0.58578   0.00000  Uiso   1.00
C1058  C     0.48230   0.48397   0.90944   0.00000  Uiso   1.00
C1059  C     0.51635   0.50008   0.58991   0.00000  Uiso   1.00
C1060  C     0.46795   0.48385   0.95797   0.00000  Uiso   1.00
C1061  C     0.52495   0.48333   0.54561   0.00000  Uiso   1.00
C1062  C     0.41930   0.49656   0.98625   0.00000  Uiso   1.00
C1063  C     0.43903   0.49517   0.55455   0.00000  Uiso   1.00
C1064  C     0.57157   0.46520   0.51933   0.00000  Uiso   1.00
C1065  C     0.50186   0.47479   0.97874   0.00000  Uiso   1.00
C1066  C     0.48852   0.48482   0.52675   0.00000  Uiso   1.00
C1067  C     0.64744   0.44143   0.68840   0.00000  Uiso   1.00
C1068  C     0.64926   0.39640   0.70441   0.00000  Uiso   1.00
C1069  C     0.63732   0.36499   0.67310   0.00000  Uiso   1.00
C1070  C     0.35266   0.55879   0.81135   0.00000  Uiso   1.00
C1071  C     0.35118   0.60369   0.79482   0.00000  Uiso   1.00
C1072  C     0.36301   0.63538   0.82594   0.00000  Uiso   1.00
C1073  C     0.54870   0.45654   0.95320   0.00000  Uiso   1.00
C1074  C     0.40491   0.50030   0.53455   0.00000  Uiso   1.00
C1075  C     0.58262   0.45132   0.97353   0.00000  Uiso   1.00
C1076  C     0.52393   0.64513   0.77420   0.00000  Uiso   1.00
C1077  C     0.47620   0.35488   0.72564   0.00000  Uiso   1.00
C1078  C     0.52428   0.35471   0.77403   0.00000  Uiso   1.00
H1079  H     0.36756   0.50889   0.55682   0.00000  Uiso   1.00
H1080  H     0.55964   0.44457   0.91783   0.00000  Uiso   1.00
H1081  H     0.54204   0.62843   0.79335   0.00000  Uiso   1.00
H1082  H     0.45810   0.37159   0.70649   0.00000  Uiso   1.00
H1083  H     0.54223   0.37129   0.79336   0.00000  Uiso   1.00
H1084  H     0.45795   0.62871   0.70644   0.00000  Uiso   1.00
H1085  H     0.39826   0.45216   0.69868   0.00000  Uiso   1.00
H1086  H     0.60178   0.54792   0.80121   0.00000  Uiso   1.00
H1087  H     0.60034   0.37163   0.67362   0.00000  Uiso   1.00
H1088  H     0.66458   0.36655   0.63652   0.00000  Uiso   1.00
H1089  H     0.63818   0.66617   0.68596   0.00000  Uiso   1.00
H1090  H     0.61791   0.43690   0.95306   0.00000  Uiso   1.00
H1091  H     0.35290   0.38861   0.70337   0.00000  Uiso   1.00
H1092  H     0.62265   0.39331   0.74104   0.00000  Uiso   1.00
H1093  H     0.61255   0.44705   0.68521   0.00000  Uiso   1.00
H1094  H     0.34280   0.44508   0.65273   0.00000  Uiso   1.00
H1095  H     0.33539   0.63431   0.86240   0.00000  Uiso   1.00
H1096  H     0.39977   0.62862   0.82592   0.00000  Uiso   1.00
H1097  H     0.36264   0.33405   0.81253   0.00000  Uiso   1.00
H1098  H     0.37798   0.60645   0.75822   0.00000  Uiso   1.00
H1099  H     0.64767   0.61149   0.79554   0.00000  Uiso   1.00
H1100  H     0.65714   0.55548   0.84699   0.00000  Uiso   1.00
H1101  H     0.48333   0.51794   0.60920   0.00000  Uiso   1.00
H1102  H     0.38740   0.55307   0.81484   0.00000  Uiso   1.00
H1103  H     0.51962   0.47695   0.88669   0.00000  Uiso   1.00
H1104  H     0.62053   0.46815   0.60197   0.00000  Uiso   1.00
H1105  H     0.37580   0.51562   0.90162   0.00000  Uiso   1.00
H1106  H     0.34887   0.51634   0.98704   0.00000  Uiso   1.00
H1107  H     0.64156   0.44603   0.52013   0.00000  Uiso   1.00
H1108  H     0.42536   0.49851   0.59218   0.00000  Uiso   1.00
N1109  N     0.38093   0.50001   0.75001   0.00000  Uiso   1.00
N1110  N     0.61907   0.49999   0.74999   0.00000  Uiso   1.00
O1111  O     0.46179   0.56108   0.75001   0.00000  Uiso   1.00
O1112  O     0.53821   0.43892   0.74999   0.00000  Uiso   1.00
O1113  O     0.53823   0.56107   0.75000   0.00000  Uiso   1.00
O1114  O     0.46177   0.43893   0.75000   0.00000  Uiso   1.00
O1115  O     0.43994   0.50001   0.81613   0.00000  Uiso   1.00
O1116  O     0.56006   0.49999   0.68387   0.00000  Uiso   1.00
O1117  O     0.51639   0.50000   0.81612   0.00000  Uiso   1.00
O1118  O     0.48361   0.50000   0.68388   0.00000  Uiso   1.00
Zn1119 Zn    0.44896   0.50001   0.75000   0.00000  Uiso   1.00
Zn1120 Zn    0.55104   0.49999   0.75000   0.00000  Uiso   1.00
C1121  C     0.83306   0.57993   0.75013   0.00000  Uiso   1.00
C1122  C     0.80920   0.64530   0.72580   0.00000  Uiso   1.00
C1123  C     0.83388   0.37591   0.74965   0.00000  Uiso   1.00
C1124  C     0.83287   0.62410   0.75024   0.00000  Uiso   1.00
C1125  C     0.98891   0.47270   0.72136   0.00000  Uiso   1.00
C1126  C     0.67778   0.52733   0.77860   0.00000  Uiso   1.00
C1127  C     0.70322   0.47324   0.72154   0.00000  Uiso   1.00
C1128  C     0.96347   0.52679   0.77843   0.00000  Uiso   1.00
C1129  C     0.80267   0.49937   0.83806   0.00000  Uiso   1.00
C1130  C     0.86398   0.49953   0.66190   0.00000  Uiso   1.00
C1131  C     0.78334   0.49622   0.88895   0.00000  Uiso   1.00
C1132  C     0.83363   0.42007   0.74982   0.00000  Uiso   1.00
C1133  C     0.88260   0.49326   0.61121   0.00000  Uiso   1.00
C1134  C     0.71941   0.50664   0.96565   0.00000  Uiso   1.00
C1135  C     0.93958   0.46084   0.53955   0.00000  Uiso   1.00
C1136  C     0.73468   0.50638   0.91708   0.00000  Uiso   1.00
C1137  C     0.92810   0.47411   0.58578   0.00000  Uiso   1.00
C1138  C     0.81564   0.48397   0.90944   0.00000  Uiso   1.00
C1139  C     0.84968   0.50008   0.58991   0.00000  Uiso   1.00
C1140  C     0.80128   0.48385   0.95797   0.00000  Uiso   1.00
C1141  C     0.85828   0.48333   0.54561   0.00000  Uiso   1.00
C1142  C     0.75264   0.49656   0.98625   0.00000  Uiso   1.00
C1143  C     0.77236   0.49517   0.55455   0.00000  Uiso   1.00
C1144  C     0.90490   0.46520   0.51933   0.00000  Uiso   1.00
C1145  C     0.83519   0.47479   0.97874   0.00000  Uiso   1.00
C1146  C     0.82185   0.48482   0.52675   0.00000  Uiso   1.00
C1147  C     0.98078   0.44143   0.68840   0.00000  Uiso   1.00
C1148  C     0.98259   0.39640   0.70441   0.00000  Uiso   1.00
C1149  C     0.97065   0.36499   0.67310   0.00000  Uiso   1.00
C1150  C     0.68599   0.55879   0.81135   0.00000  Uiso   1.00
C1151  C     0.68452   0.60369   0.79482   0.00000  Uiso   1.00
C1152  C     0.69635   0.63538   0.82594   0.00000  Uiso   1.00
C1153  C     0.88204   0.45654   0.95320   0.00000  Uiso   1.00
C1154  C     0.73824   0.50030   0.53455   0.00000  Uiso   1.00
C1155  C     0.91596   0.45132   0.97353   0.00000  Uiso   1.00
C1156  C     0.85726   0.64513   0.77420   0.00000  Uiso   1.00
C1157  C     0.80954   0.35488   0.72564   0.00000  Uiso   1.00
C1158  C     0.85762   0.35471   0.77403   0.00000  Uiso   1.00
H1159  H     0.70090   0.50889   0.55682   0.00000  Uiso   1.00
H1160  H     0.89297   0.44457   0.91783   0.00000  Uiso   1.00
H1161  H     0.87537   0.62843   0.79335   0.00000  Uiso   1.00
H1162  H     0.79143   0.37159   0.70649   0.00000  Uiso   1.00
H1163  H     0.87556   0.37129   0.79336   0.00000  Uiso   1.00
H1164  H     0.79129   0.62871   0.70644   0.00000  Uiso   1.00
H1165  H     0.73160   0.45216   0.69868   0.00000  Uiso   1.00
H1166  H     0.93512   0.54792   0.80121   0.00000  Uiso   1.00
H1167  H     0.93367   0.37163   0.67362   0.00000  Uiso   1.00
H1168  H     0.99792   0.36655   0.63652   0.00000  Uiso   1.00
H1169  H     0.97151   0.66617   0.68596   0.00000  Uiso   1.00
H1170  H     0.95124   0.43690   0.95306   0.00000  Uiso   1.00
H1171  H     0.68624   0.38861   0.70337   0.00000  Uiso   1.00
H1172  H     0.95598   0.39331   0.74104   0.00000  Uiso   1.00
H1173  H     0.94588   0.44705   0.68521   0.00000  Uiso   1.00
H1174  H     0.67614   0.44508   0.65273   0.00000  Uiso   1.00
H1175  H     0.66873   0.63431   0.86240   0.00000  Uiso   1.00
H1176  H     0.73310   0.62862   0.82592   0.00000  Uiso   1.00
H1177  H     0.69598   0.33405   0.81253   0.00000  Uiso   1.00
H1178  H     0.71131   0.60645   0.75822   0.00000  Uiso   1.00
H1179  H     0.98101   0.61149   0.79554   0.00000  Uiso   1.00
H1180  H     0.99048   0.55548   0.84699   0.00000  Uiso   1.00
H1181  H     0.81666   0.51794   0.60920   0.00000  Uiso   1.00
H1182  H     0.72073   0.55307   0.81484   0.00000  Uiso   1.00
H1183  H     0.85295   0.47695   0.88669   0.00000  Uiso   1.00
H1184  H     0.95387   0.46815   0.60197   0.00000  Uiso   1.00
H1185  H     0.70914   0.51562   0.90162   0.00000  Uiso   1.00
H1186  H     0.68220   0.51634   0.98704   0.00000  Uiso   1.00
H1187  H     0.97489   0.44603   0.52013   0.00000  Uiso   1.00
H1188  H     0.75869   0.49851   0.59218   0.00000  Uiso   1.00
N1189  N     0.71426   0.50001   0.75001   0.00000  Uiso   1.00
N1190  N     0.95241   0.49999   0.74999   0.00000  Uiso   1.00
O1191  O     0.79512   0.56108   0.75001   0.00000  Uiso   1.00
O1192  O     0.87154   0.43892   0.74999   0.00000  Uiso   1.00
O1193  O     0.87157   0.56107   0.75000   0.00000  Uiso   1.00
O1194  O     0.79510   0.43893   0.75000   0.00000  Uiso   1.00
O1195  O     0.77328   0.50001   0.81613   0.00000  Uiso   1.00
O1196  O     0.89339   0.49999   0.68387   0.00000  Uiso   1.00
O1197  O     0.84972   0.50000   0.81612   0.00000  Uiso   1.00
O1198  O     0.81695   0.50000   0.68388   0.00000  Uiso   1.00
Zn1199 Zn    0.78229   0.50001   0.75000   0.00000  Uiso   1.00
Zn1200 Zn    0.88438   0.49999   0.75000   0.00000  Uiso   1.00
C1201  C     0.16640   0.91327   0.75013   0.00000  Uiso   1.00
C1202  C     0.14253   0.97863   0.72580   0.00000  Uiso   1.00
C1203  C     0.16721   0.70924   0.74965   0.00000  Uiso   1.00
C1204  C     0.16621   0.95743   0.75024   0.00000  Uiso   1.00
C1205  C     0.32225   0.80603   0.72136   0.00000  Uiso   1.00
C1206  C     0.01111   0.86067   0.77860   0.00000  Uiso   1.00
C1207  C     0.03655   0.80657   0.72154   0.00000  Uiso   1.00
C1208  C     0.29680   0.86012   0.77843   0.00000  Uiso   1.00
C1209  C     0.13601   0.83270   0.83806   0.00000  Uiso   1.00
C1210  C     0.19732   0.83287   0.66190   0.00000  Uiso   1.00
C1211  C     0.11667   0.82955   0.88895   0.00000  Uiso   1.00
C1212  C     0.16696   0.75340   0.74982   0.00000  Uiso   1.00
C1213  C     0.21594   0.82659   0.61121   0.00000  Uiso   1.00
C1214  C     0.05274   0.83998   0.96565   0.00000  Uiso   1.00
C1215  C     0.27292   0.79417   0.53955   0.00000  Uiso   1.00
C1216  C     0.06801   0.83972   0.91708   0.00000  Uiso   1.00
C1217  C     0.26144   0.80744   0.58578   0.00000  Uiso   1.00
C1218  C     0.14897   0.81730   0.90944   0.00000  Uiso   1.00
C1219  C     0.18302   0.83341   0.58991   0.00000  Uiso   1.00
C1220  C     0.13462   0.81718   0.95797   0.00000  Uiso   1.00
C1221  C     0.19162   0.81666   0.54561   0.00000  Uiso   1.00
C1222  C     0.08597   0.82989   0.98625   0.00000  Uiso   1.00
C1223  C     0.10570   0.82850   0.55455   0.00000  Uiso   1.00
C1224  C     0.23824   0.79854   0.51933   0.00000  Uiso   1.00
C1225  C     0.16853   0.80813   0.97874   0.00000  Uiso   1.00
C1226  C     0.15519   0.81816   0.52675   0.00000  Uiso   1.00
C1227  C     0.31411   0.77476   0.68840   0.00000  Uiso   1.00
C1228  C     0.31593   0.72973   0.70441   0.00000  Uiso   1.00
C1229  C     0.30399   0.69832   0.67310   0.00000  Uiso   1.00
C1230  C     0.01932   0.89212   0.81135   0.00000  Uiso   1.00
C1231  C     0.01785   0.93703   0.79482   0.00000  Uiso   1.00
C1232  C     0.02968   0.96872   0.82594   0.00000  Uiso   1.00
C1233  C     0.21537   0.78988   0.95320   0.00000  Uiso   1.00
C1234  C     0.07158   0.83363   0.53455   0.00000  Uiso   1.00
C1235  C     0.24929   0.78465   0.97353   0.00000  Uiso   1.00
C1236  C     0.19059   0.97847   0.77420   0.00000  Uiso   1.00
C1237  C     0.14287   0.68821   0.72564   0.00000  Uiso   1.00
C1238  C     0.19095   0.68804   0.77403   0.00000  Uiso   1.00
H1239  H     0.03423   0.84223   0.55682   0.00000  Uiso   1.00
H1240  H     0.22630   0.77791   0.91783   0.00000  Uiso   1.00
H1241  H     0.20871   0.96176   0.79335   0.00000  Uiso   1.00
H1242  H     0.12476   0.70492   0.70649   0.00000  Uiso   1.00
H1243  H     0.20890   0.70463   0.79336   0.00000  Uiso   1.00
H1244  H     0.12462   0.96205   0.70644   0.00000  Uiso   1.00
H1245  H     0.06493   0.78550   0.69868   0.00000  Uiso   1.00
H1246  H     0.26845   0.88126   0.80121   0.00000  Uiso   1.00
H1247  H     0.26700   0.70497   0.67362   0.00000  Uiso   1.00
H1248  H     0.33125   0.69988   0.63652   0.00000  Uiso   1.00
H1249  H     0.30484   0.99950   0.68596   0.00000  Uiso   1.00
H1250  H     0.28458   0.77024   0.95306   0.00000  Uiso   1.00
H1251  H     0.01957   0.72195   0.70337   0.00000  Uiso   1.00
H1252  H     0.28932   0.72665   0.74104   0.00000  Uiso   1.00
H1253  H     0.27922   0.78039   0.68521   0.00000  Uiso   1.00
H1254  H     0.00947   0.77841   0.65273   0.00000  Uiso   1.00
H1255  H     0.00206   0.96765   0.86240   0.00000  Uiso   1.00
H1256  H     0.06643   0.96195   0.82592   0.00000  Uiso   1.00
H1257  H     0.02931   0.66739   0.81253   0.00000  Uiso   1.00
H1258  H     0.04464   0.93978   0.75822   0.00000  Uiso   1.00
H1259  H     0.31434   0.94483   0.79554   0.00000  Uiso   1.00
H1260  H     0.32381   0.88881   0.84699   0.00000  Uiso   1.00
H1261  H     0.15000   0.85128   0.60920   0.00000  Uiso   1.00
H1262  H     0.05407   0.88640   0.81484   0.00000  Uiso   1.00
H1263  H     0.18629   0.81029   0.88669   0.00000  Uiso   1.00
H1264  H     0.28720   0.80148   0.60197   0.00000  Uiso   1.00
H1265  H     0.04247   0.84895   0.90162   0.00000  Uiso   1.00
H1266  H     0.01554   0.84968   0.98704   0.00000  Uiso   1.00
H1267  H     0.30822   0.77936   0.52013   0.00000  Uiso   1.00
H1268  H     0.09203   0.83185   0.59218   0.00000  Uiso   1.00
N1269  N     0.04759   0.83334   0.75001   0.00000  Uiso   1.00
N1270  N     0.28574   0.83332   0.74999   0.00000  Uiso   1.00
O1271  O     0.12846   0.89442   0.75001   0.00000  Uiso   1.00
O1272  O     0.20488   0.77225   0.74999   0.00000  Uiso   1.00
O1273  O     0.20490   0.89441   0.75000   0.00000  Uiso   1.00
O1274  O     0.12843   0.77226   0.75000   0.00000  Uiso   1.00
O1275  O     0.10661   0.83334   0.81613   0.00000  Uiso   1.00
O1276  O     0.22672   0.83333   0.68387   0.00000  Uiso   1.00
O1277  O     0.18305   0.83333   0.81612   0.00000  Uiso   1.00
O1278  O     0.15028   0.83334   0.68388   0.00000  Uiso   1.00
Zn1279 Zn    0.11562   0.83334   0.75000   0.00000  Uiso   1.00
Zn1280 Zn    0.21771   0.83333   0.75000   0.00000  Uiso   1.00
C1281  C     0.49973   0.91327   0.75013   0.00000  Uiso   1.00
C1282  C     0.47586   0.97863   0.72580   0.00000  Uiso   1.00
C1283  C     0.50054   0.70924   0.74965   0.00000  Uiso   1.00
C1284  C     0.49954   0.95743   0.75024   0.00000  Uiso   1.00
C1285  C     0.65558   0.80603   0.72136   0.00000  Uiso   1.00
C1286  C     0.34444   0.86067   0.77860   0.00000  Uiso   1.00
C1287  C     0.36989   0.80657   0.72154   0.00000  Uiso   1.00
C1288  C     0.63013   0.86012   0.77843   0.00000  Uiso   1.00
C1289  C     0.46934   0.83270   0.83806   0.00000  Uiso   1.00
C1290  C     0.53065   0.83287   0.66190   0.00000  Uiso   1.00
C1291  C     0.45001   0.82955   0.88895   0.00000  Uiso   1.00
C1292  C     0.50029   0.75340   0.74982   0.00000  Uiso   1.00
C1293  C     0.54927   0.82659   0.61121   0.00000  Uiso   1.00
C1294  C     0.38607   0.83998   0.96565   0.00000  Uiso   1.00
C1295  C     0.60625   0.79417   0.53955   0.00000  Uiso   1.00
C1296  C     0.40135   0.83972   0.91708   0.00000  Uiso   1.00
C1297  C     0.59477   0.80744   0.58578   0.00000  Uiso   1.00
C1298  C     0.48230   0.81730   0.90944   0.00000  Uiso   1.00
C1299  C     0.51635   0.83341   0.58991   0.00000  Uiso   1.00
C1300  C     0.46795   0.81718   0.95797   0.00000  Uiso   1.00
C1301  C     0.52495   0.81666   0.54561   0.00000  Uiso   1.00
C1302  C     0.41930   0.82989   0.98625   0.00000  Uiso   1.00
C1303  C     0.43903   0.82850   0.55455   0.00000  Uiso   1.00
C1304  C     0.57157   0.79854   0.51933   0.00000  Uiso   1.00
C1305  C     0.50186   0.80813   0.97874   0.00000  Uiso   1.00
C1306  C     0.48852   0.81816   0.52675   0.00000  Uiso   1.00
C1307  C     0.64744   0.77476   0.68840   0.00000  Uiso   1.00
C1308  C     0.64926   0.72973   0.70441   0.00000  Uiso   1.00
C1309  C     0.63732   0.69832   0.67310   0.00000  Uiso   1.00
C1310  C     0.35266   0.89212   0.81135   0.00000  Uiso   1.00
C1311  C     0.35118   0.93703   0.79482   0.00000  Uiso   1.00
C1312  C     0.36301   0.96872   0.82594   0.00000  Uiso   1.00
C1313  C     0.54870   0.78988   0.95320   0.00000  Uiso   1.00
C1314  C     0.40491   0.83363   0.53455   0.00000  Uiso   1.00
C1315  C     0.58262   0.78465   0.97353   0.00000  Uiso   1.00
C1316  C     0.52393   0.97847   0.77420   0.00000  Uiso   1.00
C1317  C     0.47620   0.68821   0.72564   0.00000  Uiso   1.00
C1318  C     0.52428   0.68804   0.77403   0.00000  Uiso   1.00
H1319  H     0.36756   0.84223   0.55682   0.00000  Uiso   1.00
H1320  H     0.55964   0.77791   0.91783   0.00000  Uiso   1.00
H1321  H     0.54204   0.96176   0.79335   0.00000  Uiso   1.00
H1322  H     0.45810   0.70492   0.70649   0.00000  Uiso   1.00
H1323  H     0.54223   0.70463   0.79336   0.00000  Uiso   1.00
H1324  H     0.45795   0.96205   0.70644   0.00000  Uiso   1.00
H1325  H     0.39826   0.78550   0.69868   0.00000  Uiso   1.00
H1326  H     0.60178   0.88126   0.80121   0.00000  Uiso   1.00
H1327  H     0.60034   0.70497   0.67362   0.00000  Uiso   1.00
H1328  H     0.66458   0.69988   0.63652   0.00000  Uiso   1.00
H1329  H     0.63818   0.99950   0.68596   0.00000  Uiso   1.00
H1330  H     0.61791   0.77024   0.95306   0.00000  Uiso   1.00
H1331  H     0.35290   0.72195   0.70337   0.00000  Uiso   1.00
H1332  H     0.62265   0.72665   0.74104   0.00000  Uiso   1.00
H1333  H     0.61255   0.78039   0.68521   0.00000  Uiso   1.00
H1334  H     0.34280   0.77841   0.65273   0.00000  Uiso   1.00
H1335  H     0.33539   0.96765   0.86240   0.00000  Uiso   1.00
H1336  H     0.39977   0.96195   0.82592   0.00000  Uiso   1.00
H1337  H     0.36264   0.66739   0.81253   0.00000  Uiso   1.00
H1338  H     0.37798   0.93978   0.75822   0.00000  Uiso   1.00
H1339  H     0.64767   0.94483   0.79554   0.00000  Uiso   1.00
H1340  H     0.65714   0.88881   0.84699   0.00000  Uiso   1.00
H1341  H     0.48333   0.85128   0.60920   0.00000  Uiso   1.00
H1342  H     0.38740   0.88640   0.81484   0.00000  Uiso   1.00
H1343  H     0.51962   0.81029   0.88669   0.00000  Uiso   1.00
H1344  H     0.62053   0.80148   0.60197   0.00000  Uiso   1.00
H1345  H     0.37580   0.84895   0.90162   0.00000  Uiso   1.00
H1346  H     0.34887   0.84968   0.98704   0.00000  Uiso   1.00
H1347  H     0.64156   0.77936   0.52013   0.00000  Uiso   1.00
H1348  H     0.42536   0.83185   0.59218   0.00000  Uiso   1.00
N1349  N     0.38093   0.83334   0.75001   0.00000  Uiso   1.00
N1350  N     0.61907   0.83332   0.74999   0.00000  Uiso   1.00
O1351  O     0.46179   0.89442   0.75001   0.00000  Uiso   1.00
O1352  O     0.53821   0.77225   0.74999   0.00000  Uiso   1.00
O1353  O     0.53823   0.89441   0.75000   0.00000  Uiso   1.00
O1354  O     0.46177   0.77226   0.75000   0.00000  Uiso   1.00
O1355  O     0.43994   0.83334   0.81613   0.00000  Uiso   1.00
O1356  O     0.56006   0.83333   0.68387   0.00000  Uiso   1.00
O1357  O     0.51639   0.83333   0.81612   0.00000  Uiso   1.00
O1358  O     0.48361   0.83334   0.68388   0.00000  Uiso   1.00
Zn1359 Zn    0.44896   0.83334   0.75000   0.00000  Uiso   1.00
Zn1360 Zn    0.55104   0.83333   0.75000   0.00000  Uiso   1.00
C1361  C     0.83306   0.91327   0.75013   0.00000  Uiso   1.00
C1362  C     0.80920   0.97863   0.72580   0.00000  Uiso   1.00
C1363  C     0.83388   0.70924   0.74965   0.00000  Uiso   1.00
C1364  C     0.83287   0.95743   0.75024   0.00000  Uiso   1.00
C1365  C     0.98891   0.80603   0.72136   0.00000  Uiso   1.00
C1366  C     0.67778   0.86067   0.77860   0.00000  Uiso   1.00
C1367  C     0.70322   0.80657   0.72154   0.00000  Uiso   1.00
C1368  C     0.96347   0.86012   0.77843   0.00000  Uiso   1.00
C1369  C     0.80267   0.83270   0.83806   0.00000  Uiso   1.00
C1370  C     0.86398   0.83287   0.66190   0.00000  Uiso   1.00
C1371  C     0.78334   0.82955   0.88895   0.00000  Uiso   1.00
C1372  C     0.83363   0.75340   0.74982   0.00000  Uiso   1.00
C1373  C     0.88260   0.82659   0.61121   0.00000  Uiso   1.00
C1374  C     0.71941   0.83998   0.96565   0.00000  Uiso   1.00
C1375  C     0.93958   0.79417   0.53955   0.00000  Uiso   1.00
C1376  C     0.73468   0.83972   0.91708   0.00000  Uiso   1.00
C1377  C     0.92810   0.80744   0.58578   0.00000  Uiso   1.00
C1378  C     0.81564   0.81730   0.90944   0.00000  Uiso   1.00
C1379  C     0.84968   0.83341   0.58991   0.00000  Uiso   1.00
C1380  C     0.80128   0.81718   0.95797   0.00000  Uiso   1.00
C1381  C     0.85828   0.81666   0.54561   0.00000  Uiso   1.00
C1382  C     0.75264   0.82989   0.98625   0.00000  Uiso   1.00
C1383  C     0.77236   0.82850   0.55455   0.00000  Uiso   1.00
C1384  C     0.90490   0.79854   0.51933   0.00000  Uiso   1.00
C1385  C     0.83519   0.80813   0.97874   0.00000  Uiso   1.00
C1386  C     0.82185   0.81816   0.52675   0.00000  Uiso   1.00
C1387  C     0.98078   0.77476   0.68840   0.00000  Uiso   1.00
C1388  C     0.98259   0.72973   0.70441   0.00000  Uiso   1.00
C1389  C     0.97065   0.69832   0.67310   0.00000  Uiso   1.00
C1390  C     0.68599   0.89212   0.81135   0.00000  Uiso   1.00
C1391  C     0.68452   0.93703   0.79482   0.00000  Uiso   1.00
C1392  C     0.69635   0.96872   0.82594   0.00000  Uiso   1.00
C1393  C     0.88204   0.78988   0.95320   0.00000  Uiso   1.00
C1394  C     0.73824   0.83363   0.53455   0.00000  Uiso   1.00
C1395  C     0.91596   0.78465   0.97353   0.00000  Uiso   1.00
C1396  C     0.85726   0.97847   0.77420   0.00000  Uiso   1.00
C1397  C     0.80954   0.68821   0.72564   0.00000  Uiso   1.00
C1398  C     0.85762   0.68804   0.77403   0.00000  Uiso   1.00
H1399  H     0.70090   0.84223   0.55682   0.00000  Uiso   1.00
H1400  H     0.89297   0.77791   0.91783   0.00000  Uiso   1.00
H1401  H     0.87537   0.96176   0.79335   0.00000  Uiso   1.00
H1402  H     0.79143   0.70492   0.70649   0.00000  Uiso   1.00
H1403  H     0.87556   0.70463   0.79336   0.00000  Uiso   1.00
H1404  H     0.79129   0.96205   0.70644   0.00000  Uiso   1.00
H1405  H     0.73160   0.78550   0.69868   0.00000  Uiso   1.00
H1406  H     0.93512   0.88126   0.80121   0.00000  Uiso   1.00
H1407  H     0.93367   0.70497   0.67362   0.00000  Uiso   1.00
H1408  H     0.99792   0.69988   0.63652   0.00000  Uiso   1.00
H1409  H     0.97151   0.99950   0.68596   0.00000  Uiso   1.00
H1410  H     0.95124   0.77024   0.95306   0.00000  Uiso   1.00
H1411  H     0.68624   0.72195   0.70337   0.00000  Uiso   1.00
H1412  H     0.95598   0.72665   0.74104   0.00000  Uiso   1.00
H1413  H     0.94588   0.78039   0.68521   0.00000  Uiso   1.00
H1414  H     0.67614   0.77841   0.65273   0.00000  Uiso   1.00
H1415  H     0.66873   0.96765   0.86240   0.00000  Uiso   1.00
H1416  H     0.73310   0.96195   0.82592   0.00000  Uiso   1.00
H1417  H     0.69598   0.66739   0.81253   0.00000  Uiso   1.00
H1418  H     0.71131   0.93978   0.75822   0.00000  Uiso   1.00
H1419  H     0.98101   0.94483   0.79554   0.00000  Uiso   1.00
H1420  H     0.99048   0.88881   0.84699   0.00000  Uiso   1.00
H1421  H     0.81666   0.85128   0.60920   0.00000  Uiso   1.00
H1422  H     0.72073   0.88640   0.81484   0.00000  Uiso   1.00
H1423  H     0.85295   0.81029   0.88669   0.00000  Uiso   1.00
H1424  H     0.95387   0.80148   0.60197   0.00000  Uiso   1.00
H1425  H     0.70914   0.84895   0.90162   0.00000  Uiso   1.00
H1426  H     0.68220   0.84968   0.98704   0.00000  Uiso   1.00
H1427  H     0.97489   0.77936   0.52013   0.00000  Uiso   1.00
H1428  H     0.75869   0.83185   0.59218   0.00000  Uiso   1.00
N1429  N     0.71426   0.83334   0.75001   0.00000  Uiso   1.00
N1430  N     0.95241   0.83332   0.74999   0.00000  Uiso   1.00
O1431  O     0.79512   0.89442   0.75001   0.00000  Uiso   1.00
O1432  O     0.87154   0.77225   0.74999   0.00000  Uiso   1.00
O1433  O     0.87157   0.89441   0.75000   0.00000  Uiso   1.00
O1434  O     0.79510   0.77226   0.75000   0.00000  Uiso   1.00
O1435  O     0.77328   0.83334   0.81613   0.00000  Uiso   1.00
O1436  O     0.89339   0.83333   0.68387   0.00000  Uiso   1.00
O1437  O     0.84972   0.83333   0.81612   0.00000  Uiso   1.00
O1438  O     0.81695   0.83334   0.68388   0.00000  Uiso   1.00
Zn1439 Zn    0.78229   0.83334   0.75000   0.00000  Uiso   1.00
Zn1440 Zn    0.88438   0.83333   0.75000   0.00000  Uiso   1.00
loop_
_geom_bond_atom_site_label_1
_geom_bond_atom_site_label_2
_geom_bond_distance
_geom_bond_site_symmetry_2
_ccdc_geom_bond_type
C1     O71     1.289   .     A
C1     C4      1.411   .     S
C1     O73     1.284   .     A
C2     H44     1.083   .     S
C2     C4      1.394   .     A
C2     C277    1.372   .     S
C3     C12     1.411   .     S
C3     C38     1.394   .     A
C3     C37     1.397   .     A
C4     C36     1.397   .     A
C5     C27     1.508   .     S
C5     N70     1.388   .     A
C5     C87     1.419   .     S
C6     N69     1.388   .     A
C6     C30     1.508   .     S
C6     C168    1.419   1_455 S
C7     H45     1.083   .     S
C7     N69     1.354   .     A
C7     C165    1.419   1_455 S
C8     N70     1.354   .     A
C8     H46     1.083   .     S
C8     C86     1.419   .     S
C9     O77     1.297   .     A
C9     C11     1.460   .     S
C9     O75     1.300   .     A
C10    O78     1.296   .     A
C10    O76     1.301   .     A
C10    C13     1.459   .     S
C11    C18     1.396   .     A
C11    C16     1.399   .     A
C12    O74     1.284   .     A
C12    O72     1.288   .     A
C13    C19     1.393   .     A
C13    C17     1.400   .     A
C14    H66     1.083   .     S
C14    C16     1.394   .     A
C14    C22     1.405   .     A
C15    H67     1.084   .     S
C15    C24     1.406   .     A
C15    C17     1.396   .     A
C16    H65     1.083   .     S
C17    H64     1.083   .     S
C18    H63     1.076   .     S
C18    C20     1.396   .     A
C19    C21     1.394   .     A
C19    H61     1.079   .     S
C20    C25     1.420   .     A
C20    C22     1.419   .     A
C21    C26     1.418   .     A
C21    C24     1.416   .     A
C22    C754    1.391   .     S
C23    C26     1.417   .     A
C23    H68     1.079   .     S
C23    C34     1.388   .     A
C24    C755    1.392   1_554 S
C25    C33     1.419   .     A
C25    C746    1.414   .     S
C26    C745    1.414   1_554 S
C27    H53     1.092   .     S
C27    C28     1.535   .     S
C27    H134    1.113   .     S
C28    C29     1.526   .     S
C28    H52     1.110   .     S
C28    H131    1.111   .     S
C29    H47     1.111   .     S
C29    H48     1.111   .     S
C29    H529    1.110   1_545 S
C30    C31     1.536   .     S
C30    H62     1.093   .     S
C30    H220    1.112   1_455 S
C31    H58     1.110   .     S
C31    C32     1.526   .     S
C31    H219    1.111   1_455 S
C32    H55     1.111   .     S
C32    H56     1.111   .     S
C32    H297    1.111   .     S
C33    H40     1.078   .     S
C33    C35     1.391   .     A
C34    H39     1.084   .     S
C34    C742    1.391   1_554 S
C35    H50     1.084   .     S
C35    C744    1.392   .     S
C36    H41     1.084   .     S
C36    C278    1.372   .     S
C37    H42     1.084   .     S
C37    C482    1.372   1_545 S
C38    H43     1.083   .     S
C38    C516    1.372   1_545 S
H49    C269    1.110   .     S
H51    C188    1.111   1_455 S
H54    C187    1.113   1_455 S
H57    C512    1.111   1_545 S
H59    C111    1.111   .     S
H60    C110    1.112   .     S
N69    Zn79    2.023   .     S
N70    Zn80    2.023   .     S
O71    Zn79    1.995   .     S
O72    Zn80    1.995   .     S
O73    Zn80    1.983   .     S
O74    Zn79    1.983   .     S
O75    Zn79    1.962   .     S
O76    Zn80    1.962   .     S
O77    Zn80    1.903   .     S
O78    Zn79    1.903   .     S
C81    O151    1.289   .     A
C81    C84     1.411   .     S
C81    O153    1.284   .     A
C82    H124    1.083   .     S
C82    C84     1.394   .     A
C82    C357    1.372   .     S
C83    C92     1.411   .     S
C83    C118    1.394   .     A
C83    C117    1.397   .     A
C84    C116    1.397   .     A
C85    C107    1.508   .     S
C85    N150    1.388   .     A
C85    C167    1.419   .     S
C86    N149    1.388   .     A
C86    C110    1.508   .     S
C87    H125    1.083   .     S
C87    N149    1.354   .     A
C88    N150    1.354   .     A
C88    H126    1.083   .     S
C88    C166    1.419   .     S
C89    O157    1.297   .     A
C89    C91     1.460   .     S
C89    O155    1.300   .     A
C90    O158    1.296   .     A
C90    O156    1.301   .     A
C90    C93     1.459   .     S
C91    C98     1.396   .     A
C91    C96     1.399   .     A
C92    O154    1.284   .     A
C92    O152    1.288   .     A
C93    C99     1.393   .     A
C93    C97     1.400   .     A
C94    H146    1.083   .     S
C94    C96     1.394   .     A
C94    C102    1.405   .     A
C95    H147    1.084   .     S
C95    C104    1.406   .     A
C95    C97     1.396   .     A
C96    H145    1.083   .     S
C97    H144    1.083   .     S
C98    H143    1.076   .     S
C98    C100    1.396   .     A
C99    C101    1.394   .     A
C99    H141    1.079   .     S
C100   C105    1.420   .     A
C100   C102    1.419   .     A
C101   C106    1.418   .     A
C101   C104    1.416   .     A
C102   C834    1.391   .     S
C103   C106    1.417   .     A
C103   H148    1.079   .     S
C103   C114    1.388   .     A
C104   C835    1.392   1_554 S
C105   C113    1.419   .     A
C105   C826    1.414   .     S
C106   C825    1.414   1_554 S
C107   H133    1.092   .     S
C107   C108    1.535   .     S
C107   H214    1.113   .     S
C108   C109    1.526   .     S
C108   H132    1.110   .     S
C108   H211    1.111   .     S
C109   H127    1.111   .     S
C109   H128    1.111   .     S
C109   H609    1.110   1_545 S
C110   C111    1.536   .     S
C110   H142    1.093   .     S
C111   H138    1.110   .     S
C111   C112    1.526   .     S
C112   H135    1.111   .     S
C112   H136    1.111   .     S
C112   H377    1.111   .     S
C113   H120    1.078   .     S
C113   C115    1.391   .     A
C114   H119    1.084   .     S
C114   C822    1.391   1_554 S
C115   H130    1.084   .     S
C115   C824    1.392   .     S
C116   H121    1.084   .     S
C116   C358    1.372   .     S
C117   H122    1.084   .     S
C117   C562    1.372   1_545 S
C118   H123    1.083   .     S
C118   C596    1.372   1_545 S
H129   C349    1.110   .     S
H137   C592    1.111   1_545 S
H139   C191    1.111   .     S
H140   C190    1.112   .     S
N149   Zn159   2.023   .     S
N150   Zn160   2.023   .     S
O151   Zn159   1.995   .     S
O152   Zn160   1.995   .     S
O153   Zn160   1.983   .     S
O154   Zn159   1.983   .     S
O155   Zn159   1.962   .     S
O156   Zn160   1.962   .     S
O157   Zn160   1.903   .     S
O158   Zn159   1.903   .     S
C161   O231    1.289   .     A
C161   C164    1.411   .     S
C161   O233    1.284   .     A
C162   H204    1.083   .     S
C162   C164    1.394   .     A
C162   C437    1.372   .     S
C163   C172    1.411   .     S
C163   C198    1.394   .     A
C163   C197    1.397   .     A
C164   C196    1.397   .     A
C165   C187    1.508   .     S
C165   N230    1.388   .     A
C165   C7      1.419   1_655 S
C166   N229    1.388   .     A
C166   C190    1.508   .     S
C167   H205    1.083   .     S
C167   N229    1.354   .     A
C168   N230    1.354   .     A
C168   H206    1.083   .     S
C168   C6      1.419   1_655 S
C169   O237    1.297   .     A
C169   C171    1.460   .     S
C169   O235    1.300   .     A
C170   O238    1.296   .     A
C170   O236    1.301   .     A
C170   C173    1.459   .     S
C171   C178    1.396   .     A
C171   C176    1.399   .     A
C172   O234    1.284   .     A
C172   O232    1.288   .     A
C173   C179    1.393   .     A
C173   C177    1.400   .     A
C174   H226    1.083   .     S
C174   C176    1.394   .     A
C174   C182    1.405   .     A
C175   H227    1.084   .     S
C175   C184    1.406   .     A
C175   C177    1.396   .     A
C176   H225    1.083   .     S
C177   H224    1.083   .     S
C178   H223    1.076   .     S
C178   C180    1.396   .     A
C179   C181    1.394   .     A
C179   H221    1.079   .     S
C180   C185    1.420   .     A
C180   C182    1.419   .     A
C181   C186    1.418   .     A
C181   C184    1.416   .     A
C182   C914    1.391   .     S
C183   C186    1.417   .     A
C183   H228    1.079   .     S
C183   C194    1.388   .     A
C184   C915    1.392   1_554 S
C185   C193    1.419   .     A
C185   C906    1.414   .     S
C186   C905    1.414   1_554 S
C187   H213    1.092   .     S
C187   C188    1.535   .     S
C187   H54     1.113   1_655 S
C188   C189    1.526   .     S
C188   H212    1.110   .     S
C188   H51     1.111   1_655 S
C189   H207    1.111   .     S
C189   H208    1.111   .     S
C189   H689    1.110   1_545 S
C190   C191    1.536   .     S
C190   H222    1.093   .     S
C191   H218    1.110   .     S
C191   C192    1.526   .     S
C192   H215    1.111   .     S
C192   H216    1.111   .     S
C192   H457    1.111   .     S
C193   H200    1.078   .     S
C193   C195    1.391   .     A
C194   H199    1.084   .     S
C194   C902    1.391   1_554 S
C195   H210    1.084   .     S
C195   C904    1.392   .     S
C196   H201    1.084   .     S
C196   C438    1.372   .     S
C197   H202    1.084   .     S
C197   C642    1.372   1_545 S
C198   H203    1.083   .     S
C198   C676    1.372   1_545 S
H209   C429    1.110   .     S
H217   C672    1.111   1_545 S
H219   C31     1.111   1_655 S
H220   C30     1.112   1_655 S
N229   Zn239   2.023   .     S
N230   Zn240   2.023   .     S
O231   Zn239   1.995   .     S
O232   Zn240   1.995   .     S
O233   Zn240   1.983   .     S
O234   Zn239   1.983   .     S
O235   Zn239   1.962   .     S
O236   Zn240   1.962   .     S
O237   Zn240   1.903   .     S
O238   Zn239   1.903   .     S
C241   O311    1.289   .     A
C241   C244    1.411   .     S
C241   O313    1.284   .     A
C242   H284    1.083   .     S
C242   C244    1.394   .     A
C242   C517    1.372   .     S
C243   C252    1.411   .     S
C243   C278    1.394   .     A
C243   C277    1.397   .     A
C244   C276    1.397   .     A
C245   C267    1.508   .     S
C245   N310    1.388   .     A
C245   C327    1.419   .     S
C246   N309    1.388   .     A
C246   C270    1.508   .     S
C246   C408    1.419   1_455 S
C247   H285    1.083   .     S
C247   N309    1.354   .     A
C247   C405    1.419   1_455 S
C248   N310    1.354   .     A
C248   H286    1.083   .     S
C248   C326    1.419   .     S
C249   O317    1.297   .     A
C249   C251    1.460   .     S
C249   O315    1.300   .     A
C250   O318    1.296   .     A
C250   O316    1.301   .     A
C250   C253    1.459   .     S
C251   C258    1.396   .     A
C251   C256    1.399   .     A
C252   O314    1.284   .     A
C252   O312    1.288   .     A
C253   C259    1.393   .     A
C253   C257    1.400   .     A
C254   H306    1.083   .     S
C254   C256    1.394   .     A
C254   C262    1.405   .     A
C255   H307    1.084   .     S
C255   C264    1.406   .     A
C255   C257    1.396   .     A
C256   H305    1.083   .     S
C257   H304    1.083   .     S
C258   H303    1.076   .     S
C258   C260    1.396   .     A
C259   C261    1.394   .     A
C259   H301    1.079   .     S
C260   C265    1.420   .     A
C260   C262    1.419   .     A
C261   C266    1.418   .     A
C261   C264    1.416   .     A
C262   C994    1.391   .     S
C263   C266    1.417   .     A
C263   H308    1.079   .     S
C263   C274    1.388   .     A
C264   C995    1.392   1_554 S
C265   C273    1.419   .     A
C265   C986    1.414   .     S
C266   C985    1.414   1_554 S
C267   H293    1.092   .     S
C267   C268    1.535   .     S
C267   H374    1.113   .     S
C268   C269    1.526   .     S
C268   H292    1.110   .     S
C268   H371    1.111   .     S
C269   H287    1.111   .     S
C269   H288    1.111   .     S
C270   C271    1.536   .     S
C270   H302    1.093   .     S
C270   H460    1.112   1_455 S
C271   H298    1.110   .     S
C271   C272    1.526   .     S
C271   H459    1.111   1_455 S
C272   H295    1.111   .     S
C272   H296    1.111   .     S
C272   H537    1.111   .     S
C273   H280    1.078   .     S
C273   C275    1.391   .     A
C274   H279    1.084   .     S
C274   C982    1.391   1_554 S
C275   H290    1.084   .     S
C275   C984    1.392   .     S
C276   H281    1.084   .     S
C276   C518    1.372   .     S
C277   H282    1.084   .     S
C278   H283    1.083   .     S
H289   C509    1.110   .     S
H291   C428    1.111   1_455 S
H294   C427    1.113   1_455 S
H299   C351    1.111   .     S
H300   C350    1.112   .     S
N309   Zn319   2.023   .     S
N310   Zn320   2.023   .     S
O311   Zn319   1.995   .     S
O312   Zn320   1.995   .     S
O313   Zn320   1.983   .     S
O314   Zn319   1.983   .     S
O315   Zn319   1.962   .     S
O316   Zn320   1.962   .     S
O317   Zn320   1.903   .     S
O318   Zn319   1.903   .     S
C321   O391    1.289   .     A
C321   C324    1.411   .     S
C321   O393    1.284   .     A
C322   H364    1.083   .     S
C322   C324    1.394   .     A
C322   C597    1.372   .     S
C323   C332    1.411   .     S
C323   C358    1.394   .     A
C323   C357    1.397   .     A
C324   C356    1.397   .     A
C325   C347    1.508   .     S
C325   N390    1.388   .     A
C325   C407    1.419   .     S
C326   N389    1.388   .     A
C326   C350    1.508   .     S
C327   H365    1.083   .     S
C327   N389    1.354   .     A
C328   N390    1.354   .     A
C328   H366    1.083   .     S
C328   C406    1.419   .     S
C329   O397    1.297   .     A
C329   C331    1.460   .     S
C329   O395    1.300   .     A
C330   O398    1.296   .     A
C330   O396    1.301   .     A
C330   C333    1.459   .     S
C331   C338    1.396   .     A
C331   C336    1.399   .     A
C332   O394    1.284   .     A
C332   O392    1.288   .     A
C333   C339    1.393   .     A
C333   C337    1.400   .     A
C334   H386    1.083   .     S
C334   C336    1.394   .     A
C334   C342    1.405   .     A
C335   H387    1.084   .     S
C335   C344    1.406   .     A
C335   C337    1.396   .     A
C336   H385    1.083   .     S
C337   H384    1.083   .     S
C338   H383    1.076   .     S
C338   C340    1.396   .     A
C339   C341    1.394   .     A
C339   H381    1.079   .     S
C340   C345    1.420   .     A
C340   C342    1.419   .     A
C341   C346    1.418   .     A
C341   C344    1.416   .     A
C342   C1074   1.391   .     S
C343   C346    1.417   .     A
C343   H388    1.079   .     S
C343   C354    1.388   .     A
C344   C1075   1.392   1_554 S
C345   C353    1.419   .     A
C345   C1066   1.414   .     S
C346   C1065   1.414   1_554 S
C347   H373    1.092   .     S
C347   C348    1.535   .     S
C347   H454    1.113   .     S
C348   C349    1.526   .     S
C348   H372    1.110   .     S
C348   H451    1.111   .     S
C349   H367    1.111   .     S
C349   H368    1.111   .     S
C350   C351    1.536   .     S
C350   H382    1.093   .     S
C351   H378    1.110   .     S
C351   C352    1.526   .     S
C352   H375    1.111   .     S
C352   H376    1.111   .     S
C352   H617    1.111   .     S
C353   H360    1.078   .     S
C353   C355    1.391   .     A
C354   H359    1.084   .     S
C354   C1062   1.391   1_554 S
C355   H370    1.084   .     S
C355   C1064   1.392   .     S
C356   H361    1.084   .     S
C356   C598    1.372   .     S
C357   H362    1.084   .     S
C358   H363    1.083   .     S
H369   C589    1.110   .     S
H379   C431    1.111   .     S
H380   C430    1.112   .     S
N389   Zn399   2.023   .     S
N390   Zn400   2.023   .     S
O391   Zn399   1.995   .     S
O392   Zn400   1.995   .     S
O393   Zn400   1.983   .     S
O394   Zn399   1.983   .     S
O395   Zn399   1.962   .     S
O396   Zn400   1.962   .     S
O397   Zn400   1.903   .     S
O398   Zn399   1.903   .     S
C401   O471    1.289   .     A
C401   C404    1.411   .     S
C401   O473    1.284   .     A
C402   H444    1.083   .     S
C402   C404    1.394   .     A
C402   C677    1.372   .     S
C403   C412    1.411   .     S
C403   C438    1.394   .     A
C403   C437    1.397   .     A
C404   C436    1.397   .     A
C405   C427    1.508   .     S
C405   N470    1.388   .     A
C405   C247    1.419   1_655 S
C406   N469    1.388   .     A
C406   C430    1.508   .     S
C407   H445    1.083   .     S
C407   N469    1.354   .     A
C408   N470    1.354   .     A
C408   H446    1.083   .     S
C408   C246    1.419   1_655 S
C409   O477    1.297   .     A
C409   C411    1.460   .     S
C409   O475    1.300   .     A
C410   O478    1.296   .     A
C410   O476    1.301   .     A
C410   C413    1.459   .     S
C411   C418    1.396   .     A
C411   C416    1.399   .     A
C412   O474    1.284   .     A
C412   O472    1.288   .     A
C413   C419    1.393   .     A
C413   C417    1.400   .     A
C414   H466    1.083   .     S
C414   C416    1.394   .     A
C414   C422    1.405   .     A
C415   H467    1.084   .     S
C415   C424    1.406   .     A
C415   C417    1.396   .     A
C416   H465    1.083   .     S
C417   H464    1.083   .     S
C418   H463    1.076   .     S
C418   C420    1.396   .     A
C419   C421    1.394   .     A
C419   H461    1.079   .     S
C420   C425    1.420   .     A
C420   C422    1.419   .     A
C421   C426    1.418   .     A
C421   C424    1.416   .     A
C422   C1154   1.391   .     S
C423   C426    1.417   .     A
C423   H468    1.079   .     S
C423   C434    1.388   .     A
C424   C1155   1.392   1_554 S
C425   C433    1.419   .     A
C425   C1146   1.414   .     S
C426   C1145   1.414   1_554 S
C427   H453    1.092   .     S
C427   C428    1.535   .     S
C427   H294    1.113   1_655 S
C428   C429    1.526   .     S
C428   H452    1.110   .     S
C428   H291    1.111   1_655 S
C429   H447    1.111   .     S
C429   H448    1.111   .     S
C430   C431    1.536   .     S
C430   H462    1.093   .     S
C431   H458    1.110   .     S
C431   C432    1.526   .     S
C432   H455    1.111   .     S
C432   H456    1.111   .     S
C432   H697    1.111   .     S
C433   H440    1.078   .     S
C433   C435    1.391   .     A
C434   H439    1.084   .     S
C434   C1142   1.391   1_554 S
C435   H450    1.084   .     S
C435   C1144   1.392   .     S
C436   H441    1.084   .     S
C436   C678    1.372   .     S
C437   H442    1.084   .     S
C438   H443    1.083   .     S
H449   C669    1.110   .     S
H459   C271    1.111   1_655 S
H460   C270    1.112   1_655 S
N469   Zn479   2.023   .     S
N470   Zn480   2.023   .     S
O471   Zn479   1.995   .     S
O472   Zn480   1.995   .     S
O473   Zn480   1.983   .     S
O474   Zn479   1.983   .     S
O475   Zn479   1.962   .     S
O476   Zn480   1.962   .     S
O477   Zn480   1.903   .     S
O478   Zn479   1.903   .     S
C481   O551    1.289   .     A
C481   C484    1.411   .     S
C481   O553    1.284   .     A
C482   H524    1.083   .     S
C482   C484    1.394   .     A
C482   C37     1.372   1_565 S
C483   C492    1.411   .     S
C483   C518    1.394   .     A
C483   C517    1.397   .     A
C484   C516    1.397   .     A
C485   C507    1.508   .     S
C485   N550    1.388   .     A
C485   C567    1.419   .     S
C486   N549    1.388   .     A
C486   C510    1.508   .     S
C486   C648    1.419   1_455 S
C487   H525    1.083   .     S
C487   N549    1.354   .     A
C487   C645    1.419   1_455 S
C488   N550    1.354   .     A
C488   H526    1.083   .     S
C488   C566    1.419   .     S
C489   O557    1.297   .     A
C489   C491    1.460   .     S
C489   O555    1.300   .     A
C490   O558    1.296   .     A
C490   O556    1.301   .     A
C490   C493    1.459   .     S
C491   C498    1.396   .     A
C491   C496    1.399   .     A
C492   O554    1.284   .     A
C492   O552    1.288   .     A
C493   C499    1.393   .     A
C493   C497    1.400   .     A
C494   H546    1.083   .     S
C494   C496    1.394   .     A
C494   C502    1.405   .     A
C495   H547    1.084   .     S
C495   C504    1.406   .     A
C495   C497    1.396   .     A
C496   H545    1.083   .     S
C497   H544    1.083   .     S
C498   H543    1.076   .     S
C498   C500    1.396   .     A
C499   C501    1.394   .     A
C499   H541    1.079   .     S
C500   C505    1.420   .     A
C500   C502    1.419   .     A
C501   C506    1.418   .     A
C501   C504    1.416   .     A
C502   C1234   1.391   .     S
C503   C506    1.417   .     A
C503   H548    1.079   .     S
C503   C514    1.388   .     A
C504   C1235   1.392   1_554 S
C505   C513    1.419   .     A
C505   C1226   1.414   .     S
C506   C1225   1.414   1_554 S
C507   H533    1.092   .     S
C507   C508    1.535   .     S
C507   H614    1.113   .     S
C508   C509    1.526   .     S
C508   H532    1.110   .     S
C508   H611    1.111   .     S
C509   H527    1.111   .     S
C509   H528    1.111   .     S
C510   C511    1.536   .     S
C510   H542    1.093   .     S
C510   H700    1.112   1_455 S
C511   H538    1.110   .     S
C511   C512    1.526   .     S
C511   H699    1.111   1_455 S
C512   H535    1.111   .     S
C512   H536    1.111   .     S
C512   H57     1.111   1_565 S
C513   H520    1.078   .     S
C513   C515    1.391   .     A
C514   H519    1.084   .     S
C514   C1222   1.391   1_554 S
C515   H530    1.084   .     S
C515   C1224   1.392   .     S
C516   H521    1.084   .     S
C516   C38     1.372   1_565 S
C517   H522    1.084   .     S
C518   H523    1.083   .     S
H529   C29     1.110   1_565 S
H531   C668    1.111   1_455 S
H534   C667    1.113   1_455 S
H539   C591    1.111   .     S
H540   C590    1.112   .     S
N549   Zn559   2.023   .     S
N550   Zn560   2.023   .     S
O551   Zn559   1.995   .     S
O552   Zn560   1.995   .     S
O553   Zn560   1.983   .     S
O554   Zn559   1.983   .     S
O555   Zn559   1.962   .     S
O556   Zn560   1.962   .     S
O557   Zn560   1.903   .     S
O558   Zn559   1.903   .     S
C561   O631    1.289   .     A
C561   C564    1.411   .     S
C561   O633    1.284   .     A
C562   H604    1.083   .     S
C562   C564    1.394   .     A
C562   C117    1.372   1_565 S
C563   C572    1.411   .     S
C563   C598    1.394   .     A
C563   C597    1.397   .     A
C564   C596    1.397   .     A
C565   C587    1.508   .     S
C565   N630    1.388   .     A
C565   C647    1.419   .     S
C566   N629    1.388   .     A
C566   C590    1.508   .     S
C567   H605    1.083   .     S
C567   N629    1.354   .     A
C568   N630    1.354   .     A
C568   H606    1.083   .     S
C568   C646    1.419   .     S
C569   O637    1.297   .     A
C569   C571    1.460   .     S
C569   O635    1.300   .     A
C570   O638    1.296   .     A
C570   O636    1.301   .     A
C570   C573    1.459   .     S
C571   C578    1.396   .     A
C571   C576    1.399   .     A
C572   O634    1.284   .     A
C572   O632    1.288   .     A
C573   C579    1.393   .     A
C573   C577    1.400   .     A
C574   H626    1.083   .     S
C574   C576    1.394   .     A
C574   C582    1.405   .     A
C575   H627    1.084   .     S
C575   C584    1.406   .     A
C575   C577    1.396   .     A
C576   H625    1.083   .     S
C577   H624    1.083   .     S
C578   H623    1.076   .     S
C578   C580    1.396   .     A
C579   C581    1.394   .     A
C579   H621    1.079   .     S
C580   C585    1.420   .     A
C580   C582    1.419   .     A
C581   C586    1.418   .     A
C581   C584    1.416   .     A
C582   C1314   1.391   .     S
C583   C586    1.417   .     A
C583   H628    1.079   .     S
C583   C594    1.388   .     A
C584   C1315   1.392   1_554 S
C585   C593    1.419   .     A
C585   C1306   1.414   .     S
C586   C1305   1.414   1_554 S
C587   H613    1.092   .     S
C587   C588    1.535   .     S
C587   H694    1.113   .     S
C588   C589    1.526   .     S
C588   H612    1.110   .     S
C588   H691    1.111   .     S
C589   H607    1.111   .     S
C589   H608    1.111   .     S
C590   C591    1.536   .     S
C590   H622    1.093   .     S
C591   H618    1.110   .     S
C591   C592    1.526   .     S
C592   H615    1.111   .     S
C592   H616    1.111   .     S
C592   H137    1.111   1_565 S
C593   H600    1.078   .     S
C593   C595    1.391   .     A
C594   H599    1.084   .     S
C594   C1302   1.391   1_554 S
C595   H610    1.084   .     S
C595   C1304   1.392   .     S
C596   H601    1.084   .     S
C596   C118    1.372   1_565 S
C597   H602    1.084   .     S
C598   H603    1.083   .     S
H609   C109    1.110   1_565 S
H619   C671    1.111   .     S
H620   C670    1.112   .     S
N629   Zn639   2.023   .     S
N630   Zn640   2.023   .     S
O631   Zn639   1.995   .     S
O632   Zn640   1.995   .     S
O633   Zn640   1.983   .     S
O634   Zn639   1.983   .     S
O635   Zn639   1.962   .     S
O636   Zn640   1.962   .     S
O637   Zn640   1.903   .     S
O638   Zn639   1.903   .     S
C641   O711    1.289   .     A
C641   C644    1.411   .     S
C641   O713    1.284   .     A
C642   H684    1.083   .     S
C642   C644    1.394   .     A
C642   C197    1.372   1_565 S
C643   C652    1.411   .     S
C643   C678    1.394   .     A
C643   C677    1.397   .     A
C644   C676    1.397   .     A
C645   C667    1.508   .     S
C645   N710    1.388   .     A
C645   C487    1.419   1_655 S
C646   N709    1.388   .     A
C646   C670    1.508   .     S
C647   H685    1.083   .     S
C647   N709    1.354   .     A
C648   N710    1.354   .     A
C648   H686    1.083   .     S
C648   C486    1.419   1_655 S
C649   O717    1.297   .     A
C649   C651    1.460   .     S
C649   O715    1.300   .     A
C650   O718    1.296   .     A
C650   O716    1.301   .     A
C650   C653    1.459   .     S
C651   C658    1.396   .     A
C651   C656    1.399   .     A
C652   O714    1.284   .     A
C652   O712    1.288   .     A
C653   C659    1.393   .     A
C653   C657    1.400   .     A
C654   H706    1.083   .     S
C654   C656    1.394   .     A
C654   C662    1.405   .     A
C655   H707    1.084   .     S
C655   C664    1.406   .     A
C655   C657    1.396   .     A
C656   H705    1.083   .     S
C657   H704    1.083   .     S
C658   H703    1.076   .     S
C658   C660    1.396   .     A
C659   C661    1.394   .     A
C659   H701    1.079   .     S
C660   C665    1.420   .     A
C660   C662    1.419   .     A
C661   C666    1.418   .     A
C661   C664    1.416   .     A
C662   C1394   1.391   .     S
C663   C666    1.417   .     A
C663   H708    1.079   .     S
C663   C674    1.388   .     A
C664   C1395   1.392   1_554 S
C665   C673    1.419   .     A
C665   C1386   1.414   .     S
C666   C1385   1.414   1_554 S
C667   H693    1.092   .     S
C667   C668    1.535   .     S
C667   H534    1.113   1_655 S
C668   C669    1.526   .     S
C668   H692    1.110   .     S
C668   H531    1.111   1_655 S
C669   H687    1.111   .     S
C669   H688    1.111   .     S
C670   C671    1.536   .     S
C670   H702    1.093   .     S
C671   H698    1.110   .     S
C671   C672    1.526   .     S
C672   H695    1.111   .     S
C672   H696    1.111   .     S
C672   H217    1.111   1_565 S
C673   H680    1.078   .     S
C673   C675    1.391   .     A
C674   H679    1.084   .     S
C674   C1382   1.391   1_554 S
C675   H690    1.084   .     S
C675   C1384   1.392   .     S
C676   H681    1.084   .     S
C676   C198    1.372   1_565 S
C677   H682    1.084   .     S
C678   H683    1.083   .     S
H689   C189    1.110   1_565 S
H699   C511    1.111   1_655 S
H700   C510    1.112   1_655 S
N709   Zn719   2.023   .     S
N710   Zn720   2.023   .     S
O711   Zn719   1.995   .     S
O712   Zn720   1.995   .     S
O713   Zn720   1.983   .     S
O714   Zn719   1.983   .     S
O715   Zn719   1.962   .     S
O716   Zn720   1.962   .     S
O717   Zn720   1.903   .     S
O718   Zn719   1.903   .     S
C721   O791    1.289   .     A
C721   C724    1.411   .     S
C721   O793    1.284   .     A
C722   H764    1.083   .     S
C722   C724    1.394   .     A
C722   C997    1.372   .     S
C723   C732    1.411   .     S
C723   C758    1.394   .     A
C723   C757    1.397   .     A
C724   C756    1.397   .     A
C725   C747    1.508   .     S
C725   N790    1.388   .     A
C725   C807    1.419   .     S
C726   N789    1.388   .     A
C726   C750    1.508   .     S
C726   C888    1.419   1_455 S
C727   H765    1.083   .     S
C727   N789    1.354   .     A
C727   C885    1.419   1_455 S
C728   N790    1.354   .     A
C728   H766    1.083   .     S
C728   C806    1.419   .     S
C729   O797    1.297   .     A
C729   C731    1.460   .     S
C729   O795    1.300   .     A
C730   O798    1.296   .     A
C730   O796    1.301   .     A
C730   C733    1.459   .     S
C731   C738    1.396   .     A
C731   C736    1.399   .     A
C732   O794    1.284   .     A
C732   O792    1.288   .     A
C733   C739    1.393   .     A
C733   C737    1.400   .     A
C734   H786    1.083   .     S
C734   C736    1.394   .     A
C734   C742    1.405   .     A
C735   H787    1.084   .     S
C735   C744    1.406   .     A
C735   C737    1.396   .     A
C736   H785    1.083   .     S
C737   H784    1.083   .     S
C738   H783    1.076   .     S
C738   C740    1.396   .     A
C739   C741    1.394   .     A
C739   H781    1.079   .     S
C740   C745    1.420   .     A
C740   C742    1.419   .     A
C741   C746    1.418   .     A
C741   C744    1.416   .     A
C742   C34     1.391   1_556 S
C743   C746    1.417   .     A
C743   H788    1.079   .     S
C743   C754    1.388   .     A
C745   C753    1.419   .     A
C745   C26     1.414   1_556 S
C747   H773    1.092   .     S
C747   C748    1.535   .     S
C747   H854    1.113   .     S
C748   C749    1.526   .     S
C748   H772    1.110   .     S
C748   H851    1.111   .     S
C749   H767    1.111   .     S
C749   H768    1.111   .     S
C749   H1249   1.110   1_545 S
C750   C751    1.536   .     S
C750   H782    1.093   .     S
C750   H940    1.112   1_455 S
C751   H778    1.110   .     S
C751   C752    1.526   .     S
C751   H939    1.111   1_455 S
C752   H775    1.111   .     S
C752   H776    1.111   .     S
C752   H1017   1.111   .     S
C753   H760    1.078   .     S
C753   C755    1.391   .     A
C754   H759    1.084   .     S
C755   H770    1.084   .     S
C755   C24     1.392   1_556 S
C756   H761    1.084   .     S
C756   C998    1.372   .     S
C757   H762    1.084   .     S
C757   C1202   1.372   1_545 S
C758   H763    1.083   .     S
C758   C1236   1.372   1_545 S
H769   C989    1.110   .     S
H771   C908    1.111   1_455 S
H774   C907    1.113   1_455 S
H777   C1232   1.111   1_545 S
H779   C831    1.111   .     S
H780   C830    1.112   .     S
N789   Zn799   2.023   .     S
N790   Zn800   2.023   .     S
O791   Zn799   1.995   .     S
O792   Zn800   1.995   .     S
O793   Zn800   1.983   .     S
O794   Zn799   1.983   .     S
O795   Zn799   1.962   .     S
O796   Zn800   1.962   .     S
O797   Zn800   1.903   .     S
O798   Zn799   1.903   .     S
C801   O871    1.289   .     A
C801   C804    1.411   .     S
C801   O873    1.284   .     A
C802   H844    1.083   .     S
C802   C804    1.394   .     A
C802   C1077   1.372   .     S
C803   C812    1.411   .     S
C803   C838    1.394   .     A
C803   C837    1.397   .     A
C804   C836    1.397   .     A
C805   C827    1.508   .     S
C805   N870    1.388   .     A
C805   C887    1.419   .     S
C806   N869    1.388   .     A
C806   C830    1.508   .     S
C807   H845    1.083   .     S
C807   N869    1.354   .     A
C808   N870    1.354   .     A
C808   H846    1.083   .     S
C808   C886    1.419   .     S
C809   O877    1.297   .     A
C809   C811    1.460   .     S
C809   O875    1.300   .     A
C810   O878    1.296   .     A
C810   O876    1.301   .     A
C810   C813    1.459   .     S
C811   C818    1.396   .     A
C811   C816    1.399   .     A
C812   O874    1.284   .     A
C812   O872    1.288   .     A
C813   C819    1.393   .     A
C813   C817    1.400   .     A
C814   H866    1.083   .     S
C814   C816    1.394   .     A
C814   C822    1.405   .     A
C815   H867    1.084   .     S
C815   C824    1.406   .     A
C815   C817    1.396   .     A
C816   H865    1.083   .     S
C817   H864    1.083   .     S
C818   H863    1.076   .     S
C818   C820    1.396   .     A
C819   C821    1.394   .     A
C819   H861    1.079   .     S
C820   C825    1.420   .     A
C820   C822    1.419   .     A
C821   C826    1.418   .     A
C821   C824    1.416   .     A
C822   C114    1.391   1_556 S
C823   C826    1.417   .     A
C823   H868    1.079   .     S
C823   C834    1.388   .     A
C825   C833    1.419   .     A
C825   C106    1.414   1_556 S
C827   H853    1.092   .     S
C827   C828    1.535   .     S
C827   H934    1.113   .     S
C828   C829    1.526   .     S
C828   H852    1.110   .     S
C828   H931    1.111   .     S
C829   H847    1.111   .     S
C829   H848    1.111   .     S
C829   H1329   1.110   1_545 S
C830   C831    1.536   .     S
C830   H862    1.093   .     S
C831   H858    1.110   .     S
C831   C832    1.526   .     S
C832   H855    1.111   .     S
C832   H856    1.111   .     S
C832   H1097   1.111   .     S
C833   H840    1.078   .     S
C833   C835    1.391   .     A
C834   H839    1.084   .     S
C835   H850    1.084   .     S
C835   C104    1.392   1_556 S
C836   H841    1.084   .     S
C836   C1078   1.372   .     S
C837   H842    1.084   .     S
C837   C1282   1.372   1_545 S
C838   H843    1.083   .     S
C838   C1316   1.372   1_545 S
H849   C1069   1.110   .     S
H857   C1312   1.111   1_545 S
H859   C911    1.111   .     S
H860   C910    1.112   .     S
N869   Zn879   2.023   .     S
N870   Zn880   2.023   .     S
O871   Zn879   1.995   .     S
O872   Zn880   1.995   .     S
O873   Zn880   1.983   .     S
O874   Zn879   1.983   .     S
O875   Zn879   1.962   .     S
O876   Zn880   1.962   .     S
O877   Zn880   1.903   .     S
O878   Zn879   1.903   .     S
C881   O951    1.289   .     A
C881   C884    1.411   .     S
C881   O953    1.284   .     A
C882   H924    1.083   .     S
C882   C884    1.394   .     A
C882   C1157   1.372   .     S
C883   C892    1.411   .     S
C883   C918    1.394   .     A
C883   C917    1.397   .     A
C884   C916    1.397   .     A
C885   C907    1.508   .     S
C885   N950    1.388   .     A
C885   C727    1.419   1_655 S
C886   N949    1.388   .     A
C886   C910    1.508   .     S
C887   H925    1.083   .     S
C887   N949    1.354   .     A
C888   N950    1.354   .     A
C888   H926    1.083   .     S
C888   C726    1.419   1_655 S
C889   O957    1.297   .     A
C889   C891    1.460   .     S
C889   O955    1.300   .     A
C890   O958    1.296   .     A
C890   O956    1.301   .     A
C890   C893    1.459   .     S
C891   C898    1.396   .     A
C891   C896    1.399   .     A
C892   O954    1.284   .     A
C892   O952    1.288   .     A
C893   C899    1.393   .     A
C893   C897    1.400   .     A
C894   H946    1.083   .     S
C894   C896    1.394   .     A
C894   C902    1.405   .     A
C895   H947    1.084   .     S
C895   C904    1.406   .     A
C895   C897    1.396   .     A
C896   H945    1.083   .     S
C897   H944    1.083   .     S
C898   H943    1.076   .     S
C898   C900    1.396   .     A
C899   C901    1.394   .     A
C899   H941    1.079   .     S
C900   C905    1.420   .     A
C900   C902    1.419   .     A
C901   C906    1.418   .     A
C901   C904    1.416   .     A
C902   C194    1.391   1_556 S
C903   C906    1.417   .     A
C903   H948    1.079   .     S
C903   C914    1.388   .     A
C905   C913    1.419   .     A
C905   C186    1.414   1_556 S
C907   H933    1.092   .     S
C907   C908    1.535   .     S
C907   H774    1.113   1_655 S
C908   C909    1.526   .     S
C908   H932    1.110   .     S
C908   H771    1.111   1_655 S
C909   H927    1.111   .     S
C909   H928    1.111   .     S
C909   H1409   1.110   1_545 S
C910   C911    1.536   .     S
C910   H942    1.093   .     S
C911   H938    1.110   .     S
C911   C912    1.526   .     S
C912   H935    1.111   .     S
C912   H936    1.111   .     S
C912   H1177   1.111   .     S
C913   H920    1.078   .     S
C913   C915    1.391   .     A
C914   H919    1.084   .     S
C915   H930    1.084   .     S
C915   C184    1.392   1_556 S
C916   H921    1.084   .     S
C916   C1158   1.372   .     S
C917   H922    1.084   .     S
C917   C1362   1.372   1_545 S
C918   H923    1.083   .     S
C918   C1396   1.372   1_545 S
H929   C1149   1.110   .     S
H937   C1392   1.111   1_545 S
H939   C751    1.111   1_655 S
H940   C750    1.112   1_655 S
N949   Zn959   2.023   .     S
N950   Zn960   2.023   .     S
O951   Zn959   1.995   .     S
O952   Zn960   1.995   .     S
O953   Zn960   1.983   .     S
O954   Zn959   1.983   .     S
O955   Zn959   1.962   .     S
O956   Zn960   1.962   .     S
O957   Zn960   1.903   .     S
O958   Zn959   1.903   .     S
C961   O1031   1.289   .     A
C961   C964    1.411   .     S
C961   O1033   1.284   .     A
C962   H1004   1.083   .     S
C962   C964    1.394   .     A
C962   C1237   1.372   .     S
C963   C972    1.411   .     S
C963   C998    1.394   .     A
C963   C997    1.397   .     A
C964   C996    1.397   .     A
C965   C987    1.508   .     S
C965   N1030   1.388   .     A
C965   C1047   1.419   .     S
C966   N1029   1.388   .     A
C966   C990    1.508   .     S
C966   C1128   1.419   1_455 S
C967   H1005   1.083   .     S
C967   N1029   1.354   .     A
C967   C1125   1.419   1_455 S
C968   N1030   1.354   .     A
C968   H1006   1.083   .     S
C968   C1046   1.419   .     S
C969   O1037   1.297   .     A
C969   C971    1.460   .     S
C969   O1035   1.300   .     A
C970   O1038   1.296   .     A
C970   O1036   1.301   .     A
C970   C973    1.459   .     S
C971   C978    1.396   .     A
C971   C976    1.399   .     A
C972   O1034   1.284   .     A
C972   O1032   1.288   .     A
C973   C979    1.393   .     A
C973   C977    1.400   .     A
C974   H1026   1.083   .     S
C974   C976    1.394   .     A
C974   C982    1.405   .     A
C975   H1027   1.084   .     S
C975   C984    1.406   .     A
C975   C977    1.396   .     A
C976   H1025   1.083   .     S
C977   H1024   1.083   .     S
C978   H1023   1.076   .     S
C978   C980    1.396   .     A
C979   C981    1.394   .     A
C979   H1021   1.079   .     S
C980   C985    1.420   .     A
C980   C982    1.419   .     A
C981   C986    1.418   .     A
C981   C984    1.416   .     A
C982   C274    1.391   1_556 S
C983   C986    1.417   .     A
C983   H1028   1.079   .     S
C983   C994    1.388   .     A
C985   C993    1.419   .     A
C985   C266    1.414   1_556 S
C987   H1013   1.092   .     S
C987   C988    1.535   .     S
C987   H1094   1.113   .     S
C988   C989    1.526   .     S
C988   H1012   1.110   .     S
C988   H1091   1.111   .     S
C989   H1007   1.111   .     S
C989   H1008   1.111   .     S
C990   C991    1.536   .     S
C990   H1022   1.093   .     S
C990   H1180   1.112   1_455 S
C991   H1018   1.110   .     S
C991   C992    1.526   .     S
C991   H1179   1.111   1_455 S
C992   H1015   1.111   .     S
C992   H1016   1.111   .     S
C992   H1257   1.111   .     S
C993   H1000   1.078   .     S
C993   C995    1.391   .     A
C994   H999    1.084   .     S
C995   H1010   1.084   .     S
C995   C264    1.392   1_556 S
C996   H1001   1.084   .     S
C996   C1238   1.372   .     S
C997   H1002   1.084   .     S
C998   H1003   1.083   .     S
H1009  C1229   1.110   .     S
H1011  C1148   1.111   1_455 S
H1014  C1147   1.113   1_455 S
H1019  C1071   1.111   .     S
H1020  C1070   1.112   .     S
N1029  Zn1039  2.023   .     S
N1030  Zn1040  2.023   .     S
O1031  Zn1039  1.995   .     S
O1032  Zn1040  1.995   .     S
O1033  Zn1040  1.983   .     S
O1034  Zn1039  1.983   .     S
O1035  Zn1039  1.962   .     S
O1036  Zn1040  1.962   .     S
O1037  Zn1040  1.903   .     S
O1038  Zn1039  1.903   .     S
C1041  O1111   1.289   .     A
C1041  C1044   1.411   .     S
C1041  O1113   1.284   .     A
C1042  H1084   1.083   .     S
C1042  C1044   1.394   .     A
C1042  C1317   1.372   .     S
C1043  C1052   1.411   .     S
C1043  C1078   1.394   .     A
C1043  C1077   1.397   .     A
C1044  C1076   1.397   .     A
C1045  C1067   1.508   .     S
C1045  N1110   1.388   .     A
C1045  C1127   1.419   .     S
C1046  N1109   1.388   .     A
C1046  C1070   1.508   .     S
C1047  H1085   1.083   .     S
C1047  N1109   1.354   .     A
C1048  N1110   1.354   .     A
C1048  H1086   1.083   .     S
C1048  C1126   1.419   .     S
C1049  O1117   1.297   .     A
C1049  C1051   1.460   .     S
C1049  O1115   1.300   .     A
C1050  O1118   1.296   .     A
C1050  O1116   1.301   .     A
C1050  C1053   1.459   .     S
C1051  C1058   1.396   .     A
C1051  C1056   1.399   .     A
C1052  O1114   1.284   .     A
C1052  O1112   1.288   .     A
C1053  C1059   1.393   .     A
C1053  C1057   1.400   .     A
C1054  H1106   1.083   .     S
C1054  C1056   1.394   .     A
C1054  C1062   1.405   .     A
C1055  H1107   1.084   .     S
C1055  C1064   1.406   .     A
C1055  C1057   1.396   .     A
C1056  H1105   1.083   .     S
C1057  H1104   1.083   .     S
C1058  H1103   1.076   .     S
C1058  C1060   1.396   .     A
C1059  C1061   1.394   .     A
C1059  H1101   1.079   .     S
C1060  C1065   1.420   .     A
C1060  C1062   1.419   .     A
C1061  C1066   1.418   .     A
C1061  C1064   1.416   .     A
C1062  C354    1.391   1_556 S
C1063  C1066   1.417   .     A
C1063  H1108   1.079   .     S
C1063  C1074   1.388   .     A
C1065  C1073   1.419   .     A
C1065  C346    1.414   1_556 S
C1067  H1093   1.092   .     S
C1067  C1068   1.535   .     S
C1067  H1174   1.113   .     S
C1068  C1069   1.526   .     S
C1068  H1092   1.110   .     S
C1068  H1171   1.111   .     S
C1069  H1087   1.111   .     S
C1069  H1088   1.111   .     S
C1070  C1071   1.536   .     S
C1070  H1102   1.093   .     S
C1071  H1098   1.110   .     S
C1071  C1072   1.526   .     S
C1072  H1095   1.111   .     S
C1072  H1096   1.111   .     S
C1072  H1337   1.111   .     S
C1073  H1080   1.078   .     S
C1073  C1075   1.391   .     A
C1074  H1079   1.084   .     S
C1075  H1090   1.084   .     S
C1075  C344    1.392   1_556 S
C1076  H1081   1.084   .     S
C1076  C1318   1.372   .     S
C1077  H1082   1.084   .     S
C1078  H1083   1.083   .     S
H1089  C1309   1.110   .     S
H1099  C1151   1.111   .     S
H1100  C1150   1.112   .     S
N1109  Zn1119  2.023   .     S
N1110  Zn1120  2.023   .     S
O1111  Zn1119  1.995   .     S
O1112  Zn1120  1.995   .     S
O1113  Zn1120  1.983   .     S
O1114  Zn1119  1.983   .     S
O1115  Zn1119  1.962   .     S
O1116  Zn1120  1.962   .     S
O1117  Zn1120  1.903   .     S
O1118  Zn1119  1.903   .     S
C1121  O1191   1.289   .     A
C1121  C1124   1.411   .     S
C1121  O1193   1.284   .     A
C1122  H1164   1.083   .     S
C1122  C1124   1.394   .     A
C1122  C1397   1.372   .     S
C1123  C1132   1.411   .     S
C1123  C1158   1.394   .     A
C1123  C1157   1.397   .     A
C1124  C1156   1.397   .     A
C1125  C1147   1.508   .     S
C1125  N1190   1.388   .     A
C1125  C967    1.419   1_655 S
C1126  N1189   1.388   .     A
C1126  C1150   1.508   .     S
C1127  H1165   1.083   .     S
C1127  N1189   1.354   .     A
C1128  N1190   1.354   .     A
C1128  H1166   1.083   .     S
C1128  C966    1.419   1_655 S
C1129  O1197   1.297   .     A
C1129  C1131   1.460   .     S
C1129  O1195   1.300   .     A
C1130  O1198   1.296   .     A
C1130  O1196   1.301   .     A
C1130  C1133   1.459   .     S
C1131  C1138   1.396   .     A
C1131  C1136   1.399   .     A
C1132  O1194   1.284   .     A
C1132  O1192   1.288   .     A
C1133  C1139   1.393   .     A
C1133  C1137   1.400   .     A
C1134  H1186   1.083   .     S
C1134  C1136   1.394   .     A
C1134  C1142   1.405   .     A
C1135  H1187   1.084   .     S
C1135  C1144   1.406   .     A
C1135  C1137   1.396   .     A
C1136  H1185   1.083   .     S
C1137  H1184   1.083   .     S
C1138  H1183   1.076   .     S
C1138  C1140   1.396   .     A
C1139  C1141   1.394   .     A
C1139  H1181   1.079   .     S
C1140  C1145   1.420   .     A
C1140  C1142   1.419   .     A
C1141  C1146   1.418   .     A
C1141  C1144   1.416   .     A
C1142  C434    1.391   1_556 S
C1143  C1146   1.417   .     A
C1143  H1188   1.079   .     S
C1143  C1154   1.388   .     A
C1145  C1153   1.419   .     A
C1145  C426    1.414   1_556 S
C1147  H1173   1.092   .     S
C1147  C1148   1.535   .     S
C1147  H1014   1.113   1_655 S
C1148  C1149   1.526   .     S
C1148  H1172   1.110   .     S
C1148  H1011   1.111   1_655 S
C1149  H1167   1.111   .     S
C1149  H1168   1.111   .     S
C1150  C1151   1.536   .     S
C1150  H1182   1.093   .     S
C1151  H1178   1.110   .     S
C1151  C1152   1.526   .     S
C1152  H1175   1.111   .     S
C1152  H1176   1.111   .     S
C1152  H1417   1.111   .     S
C1153  H1160   1.078   .     S
C1153  C1155   1.391   .     A
C1154  H1159   1.084   .     S
C1155  H1170   1.084   .     S
C1155  C424    1.392   1_556 S
C1156  H1161   1.084   .     S
C1156  C1398   1.372   .     S
C1157  H1162   1.084   .     S
C1158  H1163   1.083   .     S
H1169  C1389   1.110   .     S
H1179  C991    1.111   1_655 S
H1180  C990    1.112   1_655 S
N1189  Zn1199  2.023   .     S
N1190  Zn1200  2.023   .     S
O1191  Zn1199  1.995   .     S
O1192  Zn1200  1.995   .     S
O1193  Zn1200  1.983   .     S
O1194  Zn1199  1.983   .     S
O1195  Zn1199  1.962   .     S
O1196  Zn1200  1.962   .     S
O1197  Zn1200  1.903   .     S
O1198  Zn1199  1.903   .     S
C1201  O1271   1.289   .     A
C1201  C1204   1.411   .     S
C1201  O1273   1.284   .     A
C1202  H1244   1.083   .     S
C1202  C1204   1.394   .     A
C1202  C757    1.372   1_565 S
C1203  C1212   1.411   .     S
C1203  C1238   1.394   .     A
C1203  C1237   1.397   .     A
C1204  C1236   1.397   .     A
C1205  C1227   1.508   .     S
C1205  N1270   1.388   .     A
C1205  C1287   1.419   .     S
C1206  N1269   1.388   .     A
C1206  C1230   1.508   .     S
C1206  C1368   1.419   1_455 S
C1207  H1245   1.083   .     S
C1207  N1269   1.354   .     A
C1207  C1365   1.419   1_455 S
C1208  N1270   1.354   .     A
C1208  H1246   1.083   .     S
C1208  C1286   1.419   .     S
C1209  O1277   1.297   .     A
C1209  C1211   1.460   .     S
C1209  O1275   1.300   .     A
C1210  O1278   1.296   .     A
C1210  O1276   1.301   .     A
C1210  C1213   1.459   .     S
C1211  C1218   1.396   .     A
C1211  C1216   1.399   .     A
C1212  O1274   1.284   .     A
C1212  O1272   1.288   .     A
C1213  C1219   1.393   .     A
C1213  C1217   1.400   .     A
C1214  H1266   1.083   .     S
C1214  C1216   1.394   .     A
C1214  C1222   1.405   .     A
C1215  H1267   1.084   .     S
C1215  C1224   1.406   .     A
C1215  C1217   1.396   .     A
C1216  H1265   1.083   .     S
C1217  H1264   1.083   .     S
C1218  H1263   1.076   .     S
C1218  C1220   1.396   .     A
C1219  C1221   1.394   .     A
C1219  H1261   1.079   .     S
C1220  C1225   1.420   .     A
C1220  C1222   1.419   .     A
C1221  C1226   1.418   .     A
C1221  C1224   1.416   .     A
C1222  C514    1.391   1_556 S
C1223  C1226   1.417   .     A
C1223  H1268   1.079   .     S
C1223  C1234   1.388   .     A
C1225  C1233   1.419   .     A
C1225  C506    1.414   1_556 S
C1227  H1253   1.092   .     S
C1227  C1228   1.535   .     S
C1227  H1334   1.113   .     S
C1228  C1229   1.526   .     S
C1228  H1252   1.110   .     S
C1228  H1331   1.111   .     S
C1229  H1247   1.111   .     S
C1229  H1248   1.111   .     S
C1230  C1231   1.536   .     S
C1230  H1262   1.093   .     S
C1230  H1420   1.112   1_455 S
C1231  H1258   1.110   .     S
C1231  C1232   1.526   .     S
C1231  H1419   1.111   1_455 S
C1232  H1255   1.111   .     S
C1232  H1256   1.111   .     S
C1232  H777    1.111   1_565 S
C1233  H1240   1.078   .     S
C1233  C1235   1.391   .     A
C1234  H1239   1.084   .     S
C1235  H1250   1.084   .     S
C1235  C504    1.392   1_556 S
C1236  H1241   1.084   .     S
C1236  C758    1.372   1_565 S
C1237  H1242   1.084   .     S
C1238  H1243   1.083   .     S
H1249  C749    1.110   1_565 S
H1251  C1388   1.111   1_455 S
H1254  C1387   1.113   1_455 S
H1259  C1311   1.111   .     S
H1260  C1310   1.112   .     S
N1269  Zn1279  2.023   .     S
N1270  Zn1280  2.023   .     S
O1271  Zn1279  1.995   .     S
O1272  Zn1280  1.995   .     S
O1273  Zn1280  1.983   .     S
O1274  Zn1279  1.983   .     S
O1275  Zn1279  1.962   .     S
O1276  Zn1280  1.962   .     S
O1277  Zn1280  1.903   .     S
O1278  Zn1279  1.903   .     S
C1281  O1351   1.289   .     A
C1281  C1284   1.411   .     S
C1281  O1353   1.284   .     A
C1282  H1324   1.083   .     S
C1282  C1284   1.394   .     A
C1282  C837    1.372   1_565 S
C1283  C1292   1.411   .     S
C1283  C1318   1.394   .     A
C1283  C1317   1.397   .     A
C1284  C1316   1.397   .     A
C1285  C1307   1.508   .     S
C1285  N1350   1.388   .     A
C1285  C1367   1.419   .     S
C1286  N1349   1.388   .     A
C1286  C1310   1.508   .     S
C1287  H1325   1.083   .     S
C1287  N1349   1.354   .     A
C1288  N1350   1.354   .     A
C1288  H1326   1.083   .     S
C1288  C1366   1.419   .     S
C1289  O1357   1.297   .     A
C1289  C1291   1.460   .     S
C1289  O1355   1.300   .     A
C1290  O1358   1.296   .     A
C1290  O1356   1.301   .     A
C1290  C1293   1.459   .     S
C1291  C1298   1.396   .     A
C1291  C1296   1.399   .     A
C1292  O1354   1.284   .     A
C1292  O1352   1.288   .     A
C1293  C1299   1.393   .     A
C1293  C1297   1.400   .     A
C1294  H1346   1.083   .     S
C1294  C1296   1.394   .     A
C1294  C1302   1.405   .     A
C1295  H1347   1.084   .     S
C1295  C1304   1.406   .     A
C1295  C1297   1.396   .     A
C1296  H1345   1.083   .     S
C1297  H1344   1.083   .     S
C1298  H1343   1.076   .     S
C1298  C1300   1.396   .     A
C1299  C1301   1.394   .     A
C1299  H1341   1.079   .     S
C1300  C1305   1.420   .     A
C1300  C1302   1.419   .     A
C1301  C1306   1.418   .     A
C1301  C1304   1.416   .     A
C1302  C594    1.391   1_556 S
C1303  C1306   1.417   .     A
C1303  H1348   1.079   .     S
C1303  C1314   1.388   .     A
C1305  C1313   1.419   .     A
C1305  C586    1.414   1_556 S
C1307  H1333   1.092   .     S
C1307  C1308   1.535   .     S
C1307  H1414   1.113   .     S
C1308  C1309   1.526   .     S
C1308  H1332   1.110   .     S
C1308  H1411   1.111   .     S
C1309  H1327   1.111   .     S
C1309  H1328   1.111   .     S
C1310  C1311   1.536   .     S
C1310  H1342   1.093   .     S
C1311  H1338   1.110   .     S
C1311  C1312   1.526   .     S
C1312  H1335   1.111   .     S
C1312  H1336   1.111   .     S
C1312  H857    1.111   1_565 S
C1313  H1320   1.078   .     S
C1313  C1315   1.391   .     A
C1314  H1319   1.084   .     S
C1315  H1330   1.084   .     S
C1315  C584    1.392   1_556 S
C1316  H1321   1.084   .     S
C1316  C838    1.372   1_565 S
C1317  H1322   1.084   .     S
C1318  H1323   1.083   .     S
H1329  C829    1.110   1_565 S
H1339  C1391   1.111   .     S
H1340  C1390   1.112   .     S
N1349  Zn1359  2.023   .     S
N1350  Zn1360  2.023   .     S
O1351  Zn1359  1.995   .     S
O1352  Zn1360  1.995   .     S
O1353  Zn1360  1.983   .     S
O1354  Zn1359  1.983   .     S
O1355  Zn1359  1.962   .     S
O1356  Zn1360  1.962   .     S
O1357  Zn1360  1.903   .     S
O1358  Zn1359  1.903   .     S
C1361  O1431   1.289   .     A
C1361  C1364   1.411   .     S
C1361  O1433   1.284   .     A
C1362  H1404   1.083   .     S
C1362  C1364   1.394   .     A
C1362  C917    1.372   1_565 S
C1363  C1372   1.411   .     S
C1363  C1398   1.394   .     A
C1363  C1397   1.397   .     A
C1364  C1396   1.397   .     A
C1365  C1387   1.508   .     S
C1365  N1430   1.388   .     A
C1365  C1207   1.419   1_655 S
C1366  N1429   1.388   .     A
C1366  C1390   1.508   .     S
C1367  H1405   1.083   .     S
C1367  N1429   1.354   .     A
C1368  N1430   1.354   .     A
C1368  H1406   1.083   .     S
C1368  C1206   1.419   1_655 S
C1369  O1437   1.297   .     A
C1369  C1371   1.460   .     S
C1369  O1435   1.300   .     A
C1370  O1438   1.296   .     A
C1370  O1436   1.301   .     A
C1370  C1373   1.459   .     S
C1371  C1378   1.396   .     A
C1371  C1376   1.399   .     A
C1372  O1434   1.284   .     A
C1372  O1432   1.288   .     A
C1373  C1379   1.393   .     A
C1373  C1377   1.400   .     A
C1374  H1426   1.083   .     S
C1374  C1376   1.394   .     A
C1374  C1382   1.405   .     A
C1375  H1427   1.084   .     S
C1375  C1384   1.406   .     A
C1375  C1377   1.396   .     A
C1376  H1425   1.083   .     S
C1377  H1424   1.083   .     S
C1378  H1423   1.076   .     S
C1378  C1380   1.396   .     A
C1379  C1381   1.394   .     A
C1379  H1421   1.079   .     S
C1380  C1385   1.420   .     A
C1380  C1382   1.419   .     A
C1381  C1386   1.418   .     A
C1381  C1384   1.416   .     A
C1382  C674    1.391   1_556 S
C1383  C1386   1.417   .     A
C1383  H1428   1.079   .     S
C1383  C1394   1.388   .     A
C1385  C1393   1.419   .     A
C1385  C666    1.414   1_556 S
C1387  H1413   1.092   .     S
C1387  C1388   1.535   .     S
C1387  H1254   1.113   1_655 S
C1388  C1389   1.526   .     S
C1388  H1412   1.110   .     S
C1388  H1251   1.111   1_655 S
C1389  H1407   1.111   .     S
C1389  H1408   1.111   .     S
C1390  C1391   1.536   .     S
C1390  H1422   1.093   .     S
C1391  H1418   1.110   .     S
C1391  C1392   1.526   .     S
C1392  H1415   1.111   .     S
C1392  H1416   1.111   .     S
C1392  H937    1.111   1_565 S
C1393  H1400   1.078   .     S
C1393  C1395   1.391   .     A
C1394  H1399   1.084   .     S
C1395  H1410   1.084   .     S
C1395  C664    1.392   1_556 S
C1396  H1401   1.084   .     S
C1396  C918    1.372   1_565 S
C1397  H1402   1.084   .     S
C1398  H1403   1.083   .     S
H1409  C909    1.110   1_565 S
H1419  C1231   1.111   1_655 S
H1420  C1230   1.112   1_655 S
N1429  Zn1439  2.023   .     S
N1430  Zn1440  2.023   .     S
O1431  Zn1439  1.995   .     S
O1432  Zn1440  1.995   .     S
O1433  Zn1440  1.983   .     S
O1434  Zn1439  1.983   .     S
O1435  Zn1439  1.962   .     S
O1436  Zn1440  1.962   .     S
O1437  Zn1440  1.903   .     S
O1438  Zn1439  1.903   .     S
