data_str_m3_o1_o17_pcu_sym.46
_audit_creation_date              2020-01-03
_audit_creation_method            'Materials Studio'
_symmetry_space_group_name_H-M    'P1'
_symmetry_Int_Tables_number       1
_symmetry_cell_setting            triclinic
loop_
_symmetry_equiv_pos_as_xyz
  x,y,z
_cell_length_a                    32.4848
_cell_length_b                    29.7789
_cell_length_c                    29.7204
_cell_angle_alpha                 90.0558
_cell_angle_beta                  92.6713
_cell_angle_gamma                 88.5406
loop_
_atom_site_label
_atom_site_type_symbol
_atom_site_fract_x
_atom_site_fract_y
_atom_site_fract_z
_atom_site_U_iso_or_equiv
_atom_site_adp_type
_atom_site_occupancy
C1     C     0.08672   0.16739   0.25336   0.00000  Uiso   1.00
C2     C     0.04193   0.16890   0.25606   0.00000  Uiso   1.00
C3     C     0.18705   0.02357   0.28399   0.00000  Uiso   1.00
C4     C     0.14633   0.30990   0.21600   0.00000  Uiso   1.00
C5     C     0.14598   0.02459   0.21643   0.00000  Uiso   1.00
C6     C     0.18686   0.30879   0.28398   0.00000  Uiso   1.00
C7     C     0.16542   0.16665   0.16356   0.00000  Uiso   1.00
C8     C     0.16812   0.16651   0.33648   0.00000  Uiso   1.00
C9     C     0.20707   0.17261   0.40958   0.00000  Uiso   1.00
C10    C     0.12898   0.15697   0.09011   0.00000  Uiso   1.00
C11    C     0.17027   0.16486   0.38455   0.00000  Uiso   1.00
C12    C     0.24634   0.16607   0.24550   0.00000  Uiso   1.00
C13    C     0.16520   0.16568   0.11568   0.00000  Uiso   1.00
C14    C     0.13591   0.14880   0.40431   0.00000  Uiso   1.00
C15    C     0.20308   0.16817   0.09651   0.00000  Uiso   1.00
C16    C     0.13520   0.14403   0.45071   0.00000  Uiso   1.00
C17    C     0.20605   0.16324   0.05029   0.00000  Uiso   1.00
C18    C     0.17112   0.15401   0.47704   0.00000  Uiso   1.00
C19    C     0.16991   0.15386   0.02388   0.00000  Uiso   1.00
C20    C     0.20832   0.16397   0.45643   0.00000  Uiso   1.00
C21    C     0.13220   0.14578   0.04431   0.00000  Uiso   1.00
C22    C     0.10037   0.12700   0.47106   0.00000  Uiso   1.00
C23    C     0.09935   0.12645   0.01840   0.00000  Uiso   1.00
C24    C     0.24448   0.16563   0.03019   0.00000  Uiso   1.00
C25    C     0.24271   0.19201   0.38723   0.00000  Uiso   1.00
C26    C     0.08818   0.16696   0.10927   0.00000  Uiso   1.00
C27    C     0.06664   0.10692   0.44304   0.00000  Uiso   1.00
C28    C     0.28346   0.16878   0.05835   0.00000  Uiso   1.00
C29    C     0.06670   0.10148   0.04071   0.00000  Uiso   1.00
C30    C     0.28408   0.14716   0.46234   0.00000  Uiso   1.00
C31    C     0.04334   0.08960   0.28675   0.00000  Uiso   1.00
C32    C     0.28724   0.24529   0.21296   0.00000  Uiso   1.00
C33    C     0.29552   0.08058   0.23942   0.00000  Uiso   1.00
C34    C     0.24567   0.16285   0.48301   0.00000  Uiso   1.00
C35    C     0.03746   0.25393   0.24365   0.00000  Uiso   1.00
C36    C     0.21054   0.04819   0.31957   0.00000  Uiso   1.00
C37    C     0.12434   0.28572   0.17900   0.00000  Uiso   1.00
C38    C     0.12216   0.04986   0.18115   0.00000  Uiso   1.00
C39    C     0.21015   0.28317   0.31941   0.00000  Uiso   1.00
C40    C     0.02180   0.12800   0.26275   0.00000  Uiso   1.00
C41    C     0.31048   0.20572   0.23248   0.00000  Uiso   1.00
C42    C     0.31371   0.12502   0.24903   0.00000  Uiso   1.00
C43    C     0.01909   0.20864   0.24350   0.00000  Uiso   1.00
C44    C     0.29071   0.16496   0.23963   0.00000  Uiso   1.00
H45    H     0.10961   0.14087   0.38245   0.00000  Uiso   1.00
H46    H     0.26332   0.30703   0.22347   0.00000  Uiso   1.00
H47    H     0.26292   0.04315   0.19428   0.00000  Uiso   1.00
H48    H     0.04557   0.31154   0.20988   0.00000  Uiso   1.00
H49    H     0.22967   0.07563   0.31086   0.00000  Uiso   1.00
H50    H     0.10797   0.25562   0.18586   0.00000  Uiso   1.00
H51    H     0.13666   0.05909   0.15047   0.00000  Uiso   1.00
H52    H     0.23647   0.26229   0.31110   0.00000  Uiso   1.00
H53    H     0.22998   0.17468   0.11825   0.00000  Uiso   1.00
H54    H     0.28688   0.23846   0.38897   0.00000  Uiso   1.00
H55    H     0.04967   0.15813   0.15943   0.00000  Uiso   1.00
H56    H     0.03619   0.05096   0.42511   0.00000  Uiso   1.00
H57    H     0.27650   0.10886   0.08843   0.00000  Uiso   1.00
H58    H     0.05300   0.05759   0.08914   0.00000  Uiso   1.00
H59    H     0.30949   0.10199   0.42016   0.00000  Uiso   1.00
H60    H     0.06235   0.02474   0.28607   0.00000  Uiso   1.00
N61    N     0.16667   0.28573   0.25000   0.00000  Uiso   1.00
N62    N     0.16667   0.04760   0.25000   0.00000  Uiso   1.00
O63    O     0.10559   0.20487   0.24999   0.00000  Uiso   1.00
O64    O     0.26306   0.22839   0.40703   0.00000  Uiso   1.00
O65    O     0.06268   0.19040   0.08799   0.00000  Uiso   1.00
O66    O     0.07880   0.14979   0.15112   0.00000  Uiso   1.00
O67    O     0.04579   0.13043   0.41662   0.00000  Uiso   1.00
O68    O     0.05922   0.06106   0.44667   0.00000  Uiso   1.00
O69    O     0.30489   0.20156   0.05485   0.00000  Uiso   1.00
O70    O     0.29580   0.13509   0.08921   0.00000  Uiso   1.00
O71    O     0.03054   0.10613   0.02796   0.00000  Uiso   1.00
O72    O     0.07770   0.07246   0.07648   0.00000  Uiso   1.00
O73    O     0.31620   0.16713   0.46890   0.00000  Uiso   1.00
O74    O     0.22774   0.12846   0.25000   0.00000  Uiso   1.00
O75    O     0.28249   0.10947   0.43424   0.00000  Uiso   1.00
O76    O     0.06025   0.09575   0.32376   0.00000  Uiso   1.00
O77    O     0.04567   0.04725   0.26670   0.00000  Uiso   1.00
O78    O     0.27000   0.24260   0.17562   0.00000  Uiso   1.00
O79    O     0.28337   0.28449   0.23838   0.00000  Uiso   1.00
O80    O     0.29627   0.05123   0.26819   0.00000  Uiso   1.00
O81    O     0.27619   0.07342   0.19708   0.00000  Uiso   1.00
O82    O     0.05446   0.26825   0.27814   0.00000  Uiso   1.00
O83    O     0.03349   0.28080   0.20505   0.00000  Uiso   1.00
O84    O     0.20764   0.03932   0.35934   0.00000  Uiso   1.00
O85    O     0.22774   0.20487   0.25000   0.00000  Uiso   1.00
O86    O     0.12471   0.29877   0.14009   0.00000  Uiso   1.00
O87    O     0.08561   0.05842   0.18513   0.00000  Uiso   1.00
O88    O     0.19929   0.28427   0.35816   0.00000  Uiso   1.00
O89    O     0.10559   0.12846   0.24999   0.00000  Uiso   1.00
O90    O     0.16666   0.20489   0.18392   0.00000  Uiso   1.00
O91    O     0.16667   0.12844   0.31607   0.00000  Uiso   1.00
O92    O     0.16667   0.20489   0.31607   0.00000  Uiso   1.00
O93    O     0.16666   0.12844   0.18392   0.00000  Uiso   1.00
O94    O     0.25452   0.17594   0.35208   0.00000  Uiso   1.00
Zn95   Zn    0.16667   0.21771   0.25000   0.00000  Uiso   1.00
Zn96   Zn    0.16667   0.11563   0.25000   0.00000  Uiso   1.00
C97    C     0.42005   0.16739   0.25336   0.00000  Uiso   1.00
C98    C     0.37527   0.16890   0.25606   0.00000  Uiso   1.00
C99    C     0.52038   0.02357   0.28399   0.00000  Uiso   1.00
C100   C     0.47967   0.30990   0.21600   0.00000  Uiso   1.00
C101   C     0.47931   0.02459   0.21643   0.00000  Uiso   1.00
C102   C     0.52020   0.30879   0.28398   0.00000  Uiso   1.00
C103   C     0.49875   0.16665   0.16356   0.00000  Uiso   1.00
C104   C     0.50145   0.16651   0.33648   0.00000  Uiso   1.00
C105   C     0.54040   0.17261   0.40958   0.00000  Uiso   1.00
C106   C     0.46231   0.15697   0.09011   0.00000  Uiso   1.00
C107   C     0.50360   0.16486   0.38455   0.00000  Uiso   1.00
C108   C     0.57967   0.16607   0.24550   0.00000  Uiso   1.00
C109   C     0.49853   0.16568   0.11568   0.00000  Uiso   1.00
C110   C     0.46925   0.14880   0.40431   0.00000  Uiso   1.00
C111   C     0.53641   0.16817   0.09651   0.00000  Uiso   1.00
C112   C     0.46853   0.14403   0.45071   0.00000  Uiso   1.00
C113   C     0.53939   0.16324   0.05029   0.00000  Uiso   1.00
C114   C     0.50445   0.15401   0.47704   0.00000  Uiso   1.00
C115   C     0.50325   0.15386   0.02388   0.00000  Uiso   1.00
C116   C     0.54165   0.16397   0.45643   0.00000  Uiso   1.00
C117   C     0.46553   0.14578   0.04431   0.00000  Uiso   1.00
C118   C     0.43371   0.12700   0.47106   0.00000  Uiso   1.00
C119   C     0.43268   0.12645   0.01840   0.00000  Uiso   1.00
C120   C     0.57781   0.16563   0.03019   0.00000  Uiso   1.00
C121   C     0.57604   0.19201   0.38723   0.00000  Uiso   1.00
C122   C     0.42151   0.16696   0.10927   0.00000  Uiso   1.00
C123   C     0.39997   0.10692   0.44304   0.00000  Uiso   1.00
C124   C     0.61679   0.16878   0.05835   0.00000  Uiso   1.00
C125   C     0.40003   0.10148   0.04071   0.00000  Uiso   1.00
C126   C     0.61741   0.14716   0.46234   0.00000  Uiso   1.00
C127   C     0.37668   0.08960   0.28675   0.00000  Uiso   1.00
C128   C     0.62057   0.24529   0.21296   0.00000  Uiso   1.00
C129   C     0.62885   0.08058   0.23942   0.00000  Uiso   1.00
C130   C     0.57900   0.16285   0.48301   0.00000  Uiso   1.00
C131   C     0.37079   0.25393   0.24365   0.00000  Uiso   1.00
C132   C     0.54387   0.04819   0.31957   0.00000  Uiso   1.00
C133   C     0.45767   0.28572   0.17900   0.00000  Uiso   1.00
C134   C     0.45550   0.04986   0.18115   0.00000  Uiso   1.00
C135   C     0.54349   0.28317   0.31941   0.00000  Uiso   1.00
C136   C     0.35513   0.12800   0.26275   0.00000  Uiso   1.00
C137   C     0.64382   0.20572   0.23248   0.00000  Uiso   1.00
C138   C     0.64705   0.12502   0.24903   0.00000  Uiso   1.00
C139   C     0.35243   0.20864   0.24350   0.00000  Uiso   1.00
C140   C     0.62404   0.16496   0.23963   0.00000  Uiso   1.00
H141   H     0.44294   0.14087   0.38245   0.00000  Uiso   1.00
H142   H     0.59666   0.30703   0.22347   0.00000  Uiso   1.00
H143   H     0.59625   0.04315   0.19428   0.00000  Uiso   1.00
H144   H     0.37890   0.31154   0.20988   0.00000  Uiso   1.00
H145   H     0.56300   0.07563   0.31086   0.00000  Uiso   1.00
H146   H     0.44131   0.25562   0.18586   0.00000  Uiso   1.00
H147   H     0.46999   0.05909   0.15047   0.00000  Uiso   1.00
H148   H     0.56981   0.26229   0.31110   0.00000  Uiso   1.00
H149   H     0.56331   0.17468   0.11825   0.00000  Uiso   1.00
H150   H     0.62022   0.23846   0.38897   0.00000  Uiso   1.00
H151   H     0.38300   0.15813   0.15943   0.00000  Uiso   1.00
H152   H     0.36952   0.05096   0.42511   0.00000  Uiso   1.00
H153   H     0.60983   0.10886   0.08843   0.00000  Uiso   1.00
H154   H     0.38634   0.05759   0.08914   0.00000  Uiso   1.00
H155   H     0.64282   0.10199   0.42016   0.00000  Uiso   1.00
H156   H     0.39568   0.02474   0.28607   0.00000  Uiso   1.00
N157   N     0.50000   0.28573   0.25000   0.00000  Uiso   1.00
N158   N     0.50000   0.04760   0.25000   0.00000  Uiso   1.00
O159   O     0.43892   0.20487   0.24999   0.00000  Uiso   1.00
O160   O     0.59639   0.22839   0.40703   0.00000  Uiso   1.00
O161   O     0.39601   0.19040   0.08799   0.00000  Uiso   1.00
O162   O     0.41213   0.14979   0.15112   0.00000  Uiso   1.00
O163   O     0.37913   0.13043   0.41662   0.00000  Uiso   1.00
O164   O     0.39256   0.06106   0.44667   0.00000  Uiso   1.00
O165   O     0.63822   0.20156   0.05485   0.00000  Uiso   1.00
O166   O     0.62913   0.13509   0.08921   0.00000  Uiso   1.00
O167   O     0.36387   0.10613   0.02796   0.00000  Uiso   1.00
O168   O     0.41103   0.07246   0.07648   0.00000  Uiso   1.00
O169   O     0.64953   0.16713   0.46890   0.00000  Uiso   1.00
O170   O     0.56108   0.12846   0.25000   0.00000  Uiso   1.00
O171   O     0.61582   0.10947   0.43424   0.00000  Uiso   1.00
O172   O     0.39358   0.09575   0.32376   0.00000  Uiso   1.00
O173   O     0.37900   0.04725   0.26670   0.00000  Uiso   1.00
O174   O     0.60333   0.24260   0.17562   0.00000  Uiso   1.00
O175   O     0.61670   0.28449   0.23838   0.00000  Uiso   1.00
O176   O     0.62960   0.05123   0.26819   0.00000  Uiso   1.00
O177   O     0.60952   0.07342   0.19708   0.00000  Uiso   1.00
O178   O     0.38779   0.26825   0.27814   0.00000  Uiso   1.00
O179   O     0.36682   0.28080   0.20505   0.00000  Uiso   1.00
O180   O     0.54097   0.03932   0.35934   0.00000  Uiso   1.00
O181   O     0.56108   0.20487   0.25000   0.00000  Uiso   1.00
O182   O     0.45804   0.29877   0.14009   0.00000  Uiso   1.00
O183   O     0.41895   0.05842   0.18513   0.00000  Uiso   1.00
O184   O     0.53262   0.28427   0.35816   0.00000  Uiso   1.00
O185   O     0.43892   0.12846   0.24999   0.00000  Uiso   1.00
O186   O     0.49999   0.20489   0.18392   0.00000  Uiso   1.00
O187   O     0.50001   0.12844   0.31607   0.00000  Uiso   1.00
O188   O     0.50001   0.20489   0.31607   0.00000  Uiso   1.00
O189   O     0.49999   0.12844   0.18392   0.00000  Uiso   1.00
O190   O     0.58786   0.17594   0.35208   0.00000  Uiso   1.00
Zn191  Zn    0.50000   0.21771   0.25000   0.00000  Uiso   1.00
Zn192  Zn    0.50000   0.11563   0.25000   0.00000  Uiso   1.00
C193   C     0.75338   0.16739   0.25336   0.00000  Uiso   1.00
C194   C     0.70860   0.16890   0.25606   0.00000  Uiso   1.00
C195   C     0.85372   0.02357   0.28399   0.00000  Uiso   1.00
C196   C     0.81300   0.30990   0.21600   0.00000  Uiso   1.00
C197   C     0.81265   0.02459   0.21643   0.00000  Uiso   1.00
C198   C     0.85353   0.30879   0.28398   0.00000  Uiso   1.00
C199   C     0.83209   0.16665   0.16356   0.00000  Uiso   1.00
C200   C     0.83479   0.16651   0.33648   0.00000  Uiso   1.00
C201   C     0.87373   0.17261   0.40958   0.00000  Uiso   1.00
C202   C     0.79564   0.15697   0.09011   0.00000  Uiso   1.00
C203   C     0.83693   0.16486   0.38455   0.00000  Uiso   1.00
C204   C     0.91300   0.16607   0.24550   0.00000  Uiso   1.00
C205   C     0.83187   0.16568   0.11568   0.00000  Uiso   1.00
C206   C     0.80258   0.14880   0.40431   0.00000  Uiso   1.00
C207   C     0.86974   0.16817   0.09651   0.00000  Uiso   1.00
C208   C     0.80186   0.14403   0.45071   0.00000  Uiso   1.00
C209   C     0.87272   0.16324   0.05029   0.00000  Uiso   1.00
C210   C     0.83779   0.15401   0.47704   0.00000  Uiso   1.00
C211   C     0.83658   0.15386   0.02388   0.00000  Uiso   1.00
C212   C     0.87498   0.16397   0.45643   0.00000  Uiso   1.00
C213   C     0.79886   0.14578   0.04431   0.00000  Uiso   1.00
C214   C     0.76704   0.12700   0.47106   0.00000  Uiso   1.00
C215   C     0.76601   0.12645   0.01840   0.00000  Uiso   1.00
C216   C     0.91114   0.16563   0.03019   0.00000  Uiso   1.00
C217   C     0.90938   0.19201   0.38723   0.00000  Uiso   1.00
C218   C     0.75484   0.16696   0.10927   0.00000  Uiso   1.00
C219   C     0.73330   0.10692   0.44304   0.00000  Uiso   1.00
C220   C     0.95013   0.16878   0.05835   0.00000  Uiso   1.00
C221   C     0.73337   0.10148   0.04071   0.00000  Uiso   1.00
C222   C     0.95074   0.14716   0.46234   0.00000  Uiso   1.00
C223   C     0.71001   0.08960   0.28675   0.00000  Uiso   1.00
C224   C     0.95390   0.24529   0.21296   0.00000  Uiso   1.00
C225   C     0.96219   0.08058   0.23942   0.00000  Uiso   1.00
C226   C     0.91233   0.16285   0.48301   0.00000  Uiso   1.00
C227   C     0.70412   0.25393   0.24365   0.00000  Uiso   1.00
C228   C     0.87721   0.04819   0.31957   0.00000  Uiso   1.00
C229   C     0.79100   0.28572   0.17900   0.00000  Uiso   1.00
C230   C     0.78883   0.04986   0.18115   0.00000  Uiso   1.00
C231   C     0.87682   0.28317   0.31941   0.00000  Uiso   1.00
C232   C     0.68846   0.12800   0.26275   0.00000  Uiso   1.00
C233   C     0.97715   0.20572   0.23248   0.00000  Uiso   1.00
C234   C     0.98038   0.12502   0.24903   0.00000  Uiso   1.00
C235   C     0.68576   0.20864   0.24350   0.00000  Uiso   1.00
C236   C     0.95737   0.16496   0.23963   0.00000  Uiso   1.00
H237   H     0.77628   0.14087   0.38245   0.00000  Uiso   1.00
H238   H     0.92999   0.30703   0.22347   0.00000  Uiso   1.00
H239   H     0.92958   0.04315   0.19428   0.00000  Uiso   1.00
H240   H     0.71224   0.31154   0.20988   0.00000  Uiso   1.00
H241   H     0.89634   0.07563   0.31086   0.00000  Uiso   1.00
H242   H     0.77464   0.25562   0.18586   0.00000  Uiso   1.00
H243   H     0.80333   0.05909   0.15047   0.00000  Uiso   1.00
H244   H     0.90314   0.26229   0.31110   0.00000  Uiso   1.00
H245   H     0.89665   0.17468   0.11825   0.00000  Uiso   1.00
H246   H     0.95355   0.23846   0.38897   0.00000  Uiso   1.00
H247   H     0.71634   0.15813   0.15943   0.00000  Uiso   1.00
H248   H     0.70286   0.05096   0.42511   0.00000  Uiso   1.00
H249   H     0.94317   0.10886   0.08843   0.00000  Uiso   1.00
H250   H     0.71967   0.05759   0.08914   0.00000  Uiso   1.00
H251   H     0.97616   0.10199   0.42016   0.00000  Uiso   1.00
H252   H     0.72902   0.02474   0.28607   0.00000  Uiso   1.00
N253   N     0.83333   0.28573   0.25000   0.00000  Uiso   1.00
N254   N     0.83333   0.04760   0.25000   0.00000  Uiso   1.00
O255   O     0.77226   0.20487   0.24999   0.00000  Uiso   1.00
O256   O     0.92972   0.22839   0.40703   0.00000  Uiso   1.00
O257   O     0.72934   0.19040   0.08799   0.00000  Uiso   1.00
O258   O     0.74547   0.14979   0.15112   0.00000  Uiso   1.00
O259   O     0.71246   0.13043   0.41662   0.00000  Uiso   1.00
O260   O     0.72589   0.06106   0.44667   0.00000  Uiso   1.00
O261   O     0.97155   0.20156   0.05485   0.00000  Uiso   1.00
O262   O     0.96246   0.13509   0.08921   0.00000  Uiso   1.00
O263   O     0.69720   0.10613   0.02796   0.00000  Uiso   1.00
O264   O     0.74436   0.07246   0.07648   0.00000  Uiso   1.00
O265   O     0.98286   0.16713   0.46890   0.00000  Uiso   1.00
O266   O     0.89441   0.12846   0.25000   0.00000  Uiso   1.00
O267   O     0.94915   0.10947   0.43424   0.00000  Uiso   1.00
O268   O     0.72692   0.09575   0.32376   0.00000  Uiso   1.00
O269   O     0.71234   0.04725   0.26670   0.00000  Uiso   1.00
O270   O     0.93666   0.24260   0.17562   0.00000  Uiso   1.00
O271   O     0.95004   0.28449   0.23838   0.00000  Uiso   1.00
O272   O     0.96294   0.05123   0.26819   0.00000  Uiso   1.00
O273   O     0.94285   0.07342   0.19708   0.00000  Uiso   1.00
O274   O     0.72112   0.26825   0.27814   0.00000  Uiso   1.00
O275   O     0.70016   0.28080   0.20505   0.00000  Uiso   1.00
O276   O     0.87431   0.03932   0.35934   0.00000  Uiso   1.00
O277   O     0.89441   0.20487   0.25000   0.00000  Uiso   1.00
O278   O     0.79137   0.29877   0.14009   0.00000  Uiso   1.00
O279   O     0.75228   0.05842   0.18513   0.00000  Uiso   1.00
O280   O     0.86595   0.28427   0.35816   0.00000  Uiso   1.00
O281   O     0.77226   0.12846   0.24999   0.00000  Uiso   1.00
O282   O     0.83333   0.20489   0.18392   0.00000  Uiso   1.00
O283   O     0.83334   0.12844   0.31607   0.00000  Uiso   1.00
O284   O     0.83334   0.20489   0.31607   0.00000  Uiso   1.00
O285   O     0.83333   0.12844   0.18392   0.00000  Uiso   1.00
O286   O     0.92119   0.17594   0.35208   0.00000  Uiso   1.00
Zn287  Zn    0.83333   0.21771   0.25000   0.00000  Uiso   1.00
Zn288  Zn    0.83333   0.11563   0.25000   0.00000  Uiso   1.00
C289   C     0.08672   0.50072   0.25336   0.00000  Uiso   1.00
C290   C     0.04193   0.50224   0.25606   0.00000  Uiso   1.00
C291   C     0.18705   0.35690   0.28399   0.00000  Uiso   1.00
C292   C     0.14633   0.64323   0.21600   0.00000  Uiso   1.00
C293   C     0.14598   0.35792   0.21643   0.00000  Uiso   1.00
C294   C     0.18686   0.64212   0.28398   0.00000  Uiso   1.00
C295   C     0.16542   0.49998   0.16356   0.00000  Uiso   1.00
C296   C     0.16812   0.49984   0.33648   0.00000  Uiso   1.00
C297   C     0.20707   0.50595   0.40958   0.00000  Uiso   1.00
C298   C     0.12898   0.49030   0.09011   0.00000  Uiso   1.00
C299   C     0.17027   0.49819   0.38455   0.00000  Uiso   1.00
C300   C     0.24634   0.49940   0.24550   0.00000  Uiso   1.00
C301   C     0.16520   0.49901   0.11568   0.00000  Uiso   1.00
C302   C     0.13591   0.48213   0.40431   0.00000  Uiso   1.00
C303   C     0.20308   0.50151   0.09651   0.00000  Uiso   1.00
C304   C     0.13520   0.47736   0.45071   0.00000  Uiso   1.00
C305   C     0.20605   0.49658   0.05029   0.00000  Uiso   1.00
C306   C     0.17112   0.48734   0.47704   0.00000  Uiso   1.00
C307   C     0.16991   0.48720   0.02388   0.00000  Uiso   1.00
C308   C     0.20832   0.49730   0.45643   0.00000  Uiso   1.00
C309   C     0.13220   0.47912   0.04431   0.00000  Uiso   1.00
C310   C     0.10037   0.46033   0.47106   0.00000  Uiso   1.00
C311   C     0.09935   0.45979   0.01840   0.00000  Uiso   1.00
C312   C     0.24448   0.49896   0.03019   0.00000  Uiso   1.00
C313   C     0.24271   0.52535   0.38723   0.00000  Uiso   1.00
C314   C     0.08818   0.50029   0.10927   0.00000  Uiso   1.00
C315   C     0.06664   0.44025   0.44304   0.00000  Uiso   1.00
C316   C     0.28346   0.50211   0.05835   0.00000  Uiso   1.00
C317   C     0.06670   0.43481   0.04071   0.00000  Uiso   1.00
C318   C     0.28408   0.48049   0.46234   0.00000  Uiso   1.00
C319   C     0.04334   0.42294   0.28675   0.00000  Uiso   1.00
C320   C     0.28724   0.57862   0.21296   0.00000  Uiso   1.00
C321   C     0.29552   0.41391   0.23942   0.00000  Uiso   1.00
C322   C     0.24567   0.49618   0.48301   0.00000  Uiso   1.00
C323   C     0.03746   0.58726   0.24365   0.00000  Uiso   1.00
C324   C     0.21054   0.38152   0.31957   0.00000  Uiso   1.00
C325   C     0.12434   0.61905   0.17900   0.00000  Uiso   1.00
C326   C     0.12216   0.38319   0.18115   0.00000  Uiso   1.00
C327   C     0.21015   0.61650   0.31941   0.00000  Uiso   1.00
C328   C     0.02180   0.46134   0.26275   0.00000  Uiso   1.00
C329   C     0.31048   0.53905   0.23248   0.00000  Uiso   1.00
C330   C     0.31371   0.45835   0.24903   0.00000  Uiso   1.00
C331   C     0.01909   0.54197   0.24350   0.00000  Uiso   1.00
C332   C     0.29071   0.49830   0.23963   0.00000  Uiso   1.00
H333   H     0.10961   0.47420   0.38245   0.00000  Uiso   1.00
H334   H     0.26332   0.64037   0.22347   0.00000  Uiso   1.00
H335   H     0.26292   0.37648   0.19428   0.00000  Uiso   1.00
H336   H     0.04557   0.64488   0.20988   0.00000  Uiso   1.00
H337   H     0.22967   0.40897   0.31086   0.00000  Uiso   1.00
H338   H     0.10797   0.58895   0.18586   0.00000  Uiso   1.00
H339   H     0.13666   0.39243   0.15047   0.00000  Uiso   1.00
H340   H     0.23647   0.59563   0.31110   0.00000  Uiso   1.00
H341   H     0.22998   0.50801   0.11825   0.00000  Uiso   1.00
H342   H     0.28688   0.57179   0.38897   0.00000  Uiso   1.00
H343   H     0.04967   0.49146   0.15943   0.00000  Uiso   1.00
H344   H     0.03619   0.38430   0.42511   0.00000  Uiso   1.00
H345   H     0.27650   0.44220   0.08843   0.00000  Uiso   1.00
H346   H     0.05300   0.39092   0.08914   0.00000  Uiso   1.00
H347   H     0.30949   0.43532   0.42016   0.00000  Uiso   1.00
H348   H     0.06235   0.35807   0.28607   0.00000  Uiso   1.00
N349   N     0.16667   0.61907   0.25000   0.00000  Uiso   1.00
N350   N     0.16667   0.38093   0.25000   0.00000  Uiso   1.00
O351   O     0.10559   0.53821   0.24999   0.00000  Uiso   1.00
O352   O     0.26306   0.56173   0.40703   0.00000  Uiso   1.00
O353   O     0.06268   0.52374   0.08799   0.00000  Uiso   1.00
O354   O     0.07880   0.48313   0.15112   0.00000  Uiso   1.00
O355   O     0.04579   0.46376   0.41662   0.00000  Uiso   1.00
O356   O     0.05922   0.39439   0.44667   0.00000  Uiso   1.00
O357   O     0.30489   0.53489   0.05485   0.00000  Uiso   1.00
O358   O     0.29580   0.46842   0.08921   0.00000  Uiso   1.00
O359   O     0.03054   0.43946   0.02796   0.00000  Uiso   1.00
O360   O     0.07770   0.40580   0.07648   0.00000  Uiso   1.00
O361   O     0.31620   0.50046   0.46890   0.00000  Uiso   1.00
O362   O     0.22774   0.46179   0.25000   0.00000  Uiso   1.00
O363   O     0.28249   0.44280   0.43424   0.00000  Uiso   1.00
O364   O     0.06025   0.42908   0.32376   0.00000  Uiso   1.00
O365   O     0.04567   0.38058   0.26670   0.00000  Uiso   1.00
O366   O     0.27000   0.57593   0.17562   0.00000  Uiso   1.00
O367   O     0.28337   0.61783   0.23838   0.00000  Uiso   1.00
O368   O     0.29627   0.38456   0.26819   0.00000  Uiso   1.00
O369   O     0.27619   0.40676   0.19708   0.00000  Uiso   1.00
O370   O     0.05446   0.60159   0.27814   0.00000  Uiso   1.00
O371   O     0.03349   0.61414   0.20505   0.00000  Uiso   1.00
O372   O     0.20764   0.37265   0.35934   0.00000  Uiso   1.00
O373   O     0.22774   0.53821   0.25000   0.00000  Uiso   1.00
O374   O     0.12471   0.63210   0.14009   0.00000  Uiso   1.00
O375   O     0.08561   0.39175   0.18513   0.00000  Uiso   1.00
O376   O     0.19929   0.61760   0.35816   0.00000  Uiso   1.00
O377   O     0.10559   0.46179   0.24999   0.00000  Uiso   1.00
O378   O     0.16666   0.53823   0.18392   0.00000  Uiso   1.00
O379   O     0.16667   0.46177   0.31607   0.00000  Uiso   1.00
O380   O     0.16667   0.53823   0.31607   0.00000  Uiso   1.00
O381   O     0.16666   0.46177   0.18392   0.00000  Uiso   1.00
O382   O     0.25452   0.50928   0.35208   0.00000  Uiso   1.00
Zn383  Zn    0.16667   0.55104   0.25000   0.00000  Uiso   1.00
Zn384  Zn    0.16667   0.44896   0.25000   0.00000  Uiso   1.00
C385   C     0.42005   0.50072   0.25336   0.00000  Uiso   1.00
C386   C     0.37527   0.50224   0.25606   0.00000  Uiso   1.00
C387   C     0.52038   0.35690   0.28399   0.00000  Uiso   1.00
C388   C     0.47967   0.64323   0.21600   0.00000  Uiso   1.00
C389   C     0.47931   0.35792   0.21643   0.00000  Uiso   1.00
C390   C     0.52020   0.64212   0.28398   0.00000  Uiso   1.00
C391   C     0.49875   0.49998   0.16356   0.00000  Uiso   1.00
C392   C     0.50145   0.49984   0.33648   0.00000  Uiso   1.00
C393   C     0.54040   0.50595   0.40958   0.00000  Uiso   1.00
C394   C     0.46231   0.49030   0.09011   0.00000  Uiso   1.00
C395   C     0.50360   0.49819   0.38455   0.00000  Uiso   1.00
C396   C     0.57967   0.49940   0.24550   0.00000  Uiso   1.00
C397   C     0.49853   0.49901   0.11568   0.00000  Uiso   1.00
C398   C     0.46925   0.48213   0.40431   0.00000  Uiso   1.00
C399   C     0.53641   0.50151   0.09651   0.00000  Uiso   1.00
C400   C     0.46853   0.47736   0.45071   0.00000  Uiso   1.00
C401   C     0.53939   0.49658   0.05029   0.00000  Uiso   1.00
C402   C     0.50445   0.48734   0.47704   0.00000  Uiso   1.00
C403   C     0.50325   0.48720   0.02388   0.00000  Uiso   1.00
C404   C     0.54165   0.49730   0.45643   0.00000  Uiso   1.00
C405   C     0.46553   0.47912   0.04431   0.00000  Uiso   1.00
C406   C     0.43371   0.46033   0.47106   0.00000  Uiso   1.00
C407   C     0.43268   0.45979   0.01840   0.00000  Uiso   1.00
C408   C     0.57781   0.49896   0.03019   0.00000  Uiso   1.00
C409   C     0.57604   0.52535   0.38723   0.00000  Uiso   1.00
C410   C     0.42151   0.50029   0.10927   0.00000  Uiso   1.00
C411   C     0.39997   0.44025   0.44304   0.00000  Uiso   1.00
C412   C     0.61679   0.50211   0.05835   0.00000  Uiso   1.00
C413   C     0.40003   0.43481   0.04071   0.00000  Uiso   1.00
C414   C     0.61741   0.48049   0.46234   0.00000  Uiso   1.00
C415   C     0.37668   0.42294   0.28675   0.00000  Uiso   1.00
C416   C     0.62057   0.57862   0.21296   0.00000  Uiso   1.00
C417   C     0.62885   0.41391   0.23942   0.00000  Uiso   1.00
C418   C     0.57900   0.49618   0.48301   0.00000  Uiso   1.00
C419   C     0.37079   0.58726   0.24365   0.00000  Uiso   1.00
C420   C     0.54387   0.38152   0.31957   0.00000  Uiso   1.00
C421   C     0.45767   0.61905   0.17900   0.00000  Uiso   1.00
C422   C     0.45550   0.38319   0.18115   0.00000  Uiso   1.00
C423   C     0.54349   0.61650   0.31941   0.00000  Uiso   1.00
C424   C     0.35513   0.46134   0.26275   0.00000  Uiso   1.00
C425   C     0.64382   0.53905   0.23248   0.00000  Uiso   1.00
C426   C     0.64705   0.45835   0.24903   0.00000  Uiso   1.00
C427   C     0.35243   0.54197   0.24350   0.00000  Uiso   1.00
C428   C     0.62404   0.49830   0.23963   0.00000  Uiso   1.00
H429   H     0.44294   0.47420   0.38245   0.00000  Uiso   1.00
H430   H     0.59666   0.64037   0.22347   0.00000  Uiso   1.00
H431   H     0.59625   0.37648   0.19428   0.00000  Uiso   1.00
H432   H     0.37890   0.64488   0.20988   0.00000  Uiso   1.00
H433   H     0.56300   0.40897   0.31086   0.00000  Uiso   1.00
H434   H     0.44131   0.58895   0.18586   0.00000  Uiso   1.00
H435   H     0.46999   0.39243   0.15047   0.00000  Uiso   1.00
H436   H     0.56981   0.59563   0.31110   0.00000  Uiso   1.00
H437   H     0.56331   0.50801   0.11825   0.00000  Uiso   1.00
H438   H     0.62022   0.57179   0.38897   0.00000  Uiso   1.00
H439   H     0.38300   0.49146   0.15943   0.00000  Uiso   1.00
H440   H     0.36952   0.38430   0.42511   0.00000  Uiso   1.00
H441   H     0.60983   0.44220   0.08843   0.00000  Uiso   1.00
H442   H     0.38634   0.39092   0.08914   0.00000  Uiso   1.00
H443   H     0.64282   0.43532   0.42016   0.00000  Uiso   1.00
H444   H     0.39568   0.35807   0.28607   0.00000  Uiso   1.00
N445   N     0.50000   0.61907   0.25000   0.00000  Uiso   1.00
N446   N     0.50000   0.38093   0.25000   0.00000  Uiso   1.00
O447   O     0.43892   0.53821   0.24999   0.00000  Uiso   1.00
O448   O     0.59639   0.56173   0.40703   0.00000  Uiso   1.00
O449   O     0.39601   0.52374   0.08799   0.00000  Uiso   1.00
O450   O     0.41213   0.48313   0.15112   0.00000  Uiso   1.00
O451   O     0.37913   0.46376   0.41662   0.00000  Uiso   1.00
O452   O     0.39256   0.39439   0.44667   0.00000  Uiso   1.00
O453   O     0.63822   0.53489   0.05485   0.00000  Uiso   1.00
O454   O     0.62913   0.46842   0.08921   0.00000  Uiso   1.00
O455   O     0.36387   0.43946   0.02796   0.00000  Uiso   1.00
O456   O     0.41103   0.40580   0.07648   0.00000  Uiso   1.00
O457   O     0.64953   0.50046   0.46890   0.00000  Uiso   1.00
O458   O     0.56108   0.46179   0.25000   0.00000  Uiso   1.00
O459   O     0.61582   0.44280   0.43424   0.00000  Uiso   1.00
O460   O     0.39358   0.42908   0.32376   0.00000  Uiso   1.00
O461   O     0.37900   0.38058   0.26670   0.00000  Uiso   1.00
O462   O     0.60333   0.57593   0.17562   0.00000  Uiso   1.00
O463   O     0.61670   0.61783   0.23838   0.00000  Uiso   1.00
O464   O     0.62960   0.38456   0.26819   0.00000  Uiso   1.00
O465   O     0.60952   0.40676   0.19708   0.00000  Uiso   1.00
O466   O     0.38779   0.60159   0.27814   0.00000  Uiso   1.00
O467   O     0.36682   0.61414   0.20505   0.00000  Uiso   1.00
O468   O     0.54097   0.37265   0.35934   0.00000  Uiso   1.00
O469   O     0.56108   0.53821   0.25000   0.00000  Uiso   1.00
O470   O     0.45804   0.63210   0.14009   0.00000  Uiso   1.00
O471   O     0.41895   0.39175   0.18513   0.00000  Uiso   1.00
O472   O     0.53262   0.61760   0.35816   0.00000  Uiso   1.00
O473   O     0.43892   0.46179   0.24999   0.00000  Uiso   1.00
O474   O     0.49999   0.53823   0.18392   0.00000  Uiso   1.00
O475   O     0.50001   0.46177   0.31607   0.00000  Uiso   1.00
O476   O     0.50001   0.53823   0.31607   0.00000  Uiso   1.00
O477   O     0.49999   0.46177   0.18392   0.00000  Uiso   1.00
O478   O     0.58786   0.50928   0.35208   0.00000  Uiso   1.00
Zn479  Zn    0.50000   0.55104   0.25000   0.00000  Uiso   1.00
Zn480  Zn    0.50000   0.44896   0.25000   0.00000  Uiso   1.00
C481   C     0.75338   0.50072   0.25336   0.00000  Uiso   1.00
C482   C     0.70860   0.50224   0.25606   0.00000  Uiso   1.00
C483   C     0.85372   0.35690   0.28399   0.00000  Uiso   1.00
C484   C     0.81300   0.64323   0.21600   0.00000  Uiso   1.00
C485   C     0.81265   0.35792   0.21643   0.00000  Uiso   1.00
C486   C     0.85353   0.64212   0.28398   0.00000  Uiso   1.00
C487   C     0.83209   0.49998   0.16356   0.00000  Uiso   1.00
C488   C     0.83479   0.49984   0.33648   0.00000  Uiso   1.00
C489   C     0.87373   0.50595   0.40958   0.00000  Uiso   1.00
C490   C     0.79564   0.49030   0.09011   0.00000  Uiso   1.00
C491   C     0.83693   0.49819   0.38455   0.00000  Uiso   1.00
C492   C     0.91300   0.49940   0.24550   0.00000  Uiso   1.00
C493   C     0.83187   0.49901   0.11568   0.00000  Uiso   1.00
C494   C     0.80258   0.48213   0.40431   0.00000  Uiso   1.00
C495   C     0.86974   0.50151   0.09651   0.00000  Uiso   1.00
C496   C     0.80186   0.47736   0.45071   0.00000  Uiso   1.00
C497   C     0.87272   0.49658   0.05029   0.00000  Uiso   1.00
C498   C     0.83779   0.48734   0.47704   0.00000  Uiso   1.00
C499   C     0.83658   0.48720   0.02388   0.00000  Uiso   1.00
C500   C     0.87498   0.49730   0.45643   0.00000  Uiso   1.00
C501   C     0.79886   0.47912   0.04431   0.00000  Uiso   1.00
C502   C     0.76704   0.46033   0.47106   0.00000  Uiso   1.00
C503   C     0.76601   0.45979   0.01840   0.00000  Uiso   1.00
C504   C     0.91114   0.49896   0.03019   0.00000  Uiso   1.00
C505   C     0.90938   0.52535   0.38723   0.00000  Uiso   1.00
C506   C     0.75484   0.50029   0.10927   0.00000  Uiso   1.00
C507   C     0.73330   0.44025   0.44304   0.00000  Uiso   1.00
C508   C     0.95013   0.50211   0.05835   0.00000  Uiso   1.00
C509   C     0.73337   0.43481   0.04071   0.00000  Uiso   1.00
C510   C     0.95074   0.48049   0.46234   0.00000  Uiso   1.00
C511   C     0.71001   0.42294   0.28675   0.00000  Uiso   1.00
C512   C     0.95390   0.57862   0.21296   0.00000  Uiso   1.00
C513   C     0.96219   0.41391   0.23942   0.00000  Uiso   1.00
C514   C     0.91233   0.49618   0.48301   0.00000  Uiso   1.00
C515   C     0.70412   0.58726   0.24365   0.00000  Uiso   1.00
C516   C     0.87721   0.38152   0.31957   0.00000  Uiso   1.00
C517   C     0.79100   0.61905   0.17900   0.00000  Uiso   1.00
C518   C     0.78883   0.38319   0.18115   0.00000  Uiso   1.00
C519   C     0.87682   0.61650   0.31941   0.00000  Uiso   1.00
C520   C     0.68846   0.46134   0.26275   0.00000  Uiso   1.00
C521   C     0.97715   0.53905   0.23248   0.00000  Uiso   1.00
C522   C     0.98038   0.45835   0.24903   0.00000  Uiso   1.00
C523   C     0.68576   0.54197   0.24350   0.00000  Uiso   1.00
C524   C     0.95737   0.49830   0.23963   0.00000  Uiso   1.00
H525   H     0.77628   0.47420   0.38245   0.00000  Uiso   1.00
H526   H     0.92999   0.64037   0.22347   0.00000  Uiso   1.00
H527   H     0.92958   0.37648   0.19428   0.00000  Uiso   1.00
H528   H     0.71224   0.64488   0.20988   0.00000  Uiso   1.00
H529   H     0.89634   0.40897   0.31086   0.00000  Uiso   1.00
H530   H     0.77464   0.58895   0.18586   0.00000  Uiso   1.00
H531   H     0.80333   0.39243   0.15047   0.00000  Uiso   1.00
H532   H     0.90314   0.59563   0.31110   0.00000  Uiso   1.00
H533   H     0.89665   0.50801   0.11825   0.00000  Uiso   1.00
H534   H     0.95355   0.57179   0.38897   0.00000  Uiso   1.00
H535   H     0.71634   0.49146   0.15943   0.00000  Uiso   1.00
H536   H     0.70286   0.38430   0.42511   0.00000  Uiso   1.00
H537   H     0.94317   0.44220   0.08843   0.00000  Uiso   1.00
H538   H     0.71967   0.39092   0.08914   0.00000  Uiso   1.00
H539   H     0.97616   0.43532   0.42016   0.00000  Uiso   1.00
H540   H     0.72902   0.35807   0.28607   0.00000  Uiso   1.00
N541   N     0.83333   0.61907   0.25000   0.00000  Uiso   1.00
N542   N     0.83333   0.38093   0.25000   0.00000  Uiso   1.00
O543   O     0.77226   0.53821   0.24999   0.00000  Uiso   1.00
O544   O     0.92972   0.56173   0.40703   0.00000  Uiso   1.00
O545   O     0.72934   0.52374   0.08799   0.00000  Uiso   1.00
O546   O     0.74547   0.48313   0.15112   0.00000  Uiso   1.00
O547   O     0.71246   0.46376   0.41662   0.00000  Uiso   1.00
O548   O     0.72589   0.39439   0.44667   0.00000  Uiso   1.00
O549   O     0.97155   0.53489   0.05485   0.00000  Uiso   1.00
O550   O     0.96246   0.46842   0.08921   0.00000  Uiso   1.00
O551   O     0.69720   0.43946   0.02796   0.00000  Uiso   1.00
O552   O     0.74436   0.40580   0.07648   0.00000  Uiso   1.00
O553   O     0.98286   0.50046   0.46890   0.00000  Uiso   1.00
O554   O     0.89441   0.46179   0.25000   0.00000  Uiso   1.00
O555   O     0.94915   0.44280   0.43424   0.00000  Uiso   1.00
O556   O     0.72692   0.42908   0.32376   0.00000  Uiso   1.00
O557   O     0.71234   0.38058   0.26670   0.00000  Uiso   1.00
O558   O     0.93666   0.57593   0.17562   0.00000  Uiso   1.00
O559   O     0.95004   0.61783   0.23838   0.00000  Uiso   1.00
O560   O     0.96294   0.38456   0.26819   0.00000  Uiso   1.00
O561   O     0.94285   0.40676   0.19708   0.00000  Uiso   1.00
O562   O     0.72112   0.60159   0.27814   0.00000  Uiso   1.00
O563   O     0.70016   0.61414   0.20505   0.00000  Uiso   1.00
O564   O     0.87431   0.37265   0.35934   0.00000  Uiso   1.00
O565   O     0.89441   0.53821   0.25000   0.00000  Uiso   1.00
O566   O     0.79137   0.63210   0.14009   0.00000  Uiso   1.00
O567   O     0.75228   0.39175   0.18513   0.00000  Uiso   1.00
O568   O     0.86595   0.61760   0.35816   0.00000  Uiso   1.00
O569   O     0.77226   0.46179   0.24999   0.00000  Uiso   1.00
O570   O     0.83333   0.53823   0.18392   0.00000  Uiso   1.00
O571   O     0.83334   0.46177   0.31607   0.00000  Uiso   1.00
O572   O     0.83334   0.53823   0.31607   0.00000  Uiso   1.00
O573   O     0.83333   0.46177   0.18392   0.00000  Uiso   1.00
O574   O     0.92119   0.50928   0.35208   0.00000  Uiso   1.00
Zn575  Zn    0.83333   0.55104   0.25000   0.00000  Uiso   1.00
Zn576  Zn    0.83333   0.44896   0.25000   0.00000  Uiso   1.00
C577   C     0.08672   0.83406   0.25336   0.00000  Uiso   1.00
C578   C     0.04193   0.83557   0.25606   0.00000  Uiso   1.00
C579   C     0.18705   0.69023   0.28399   0.00000  Uiso   1.00
C580   C     0.14633   0.97656   0.21600   0.00000  Uiso   1.00
C581   C     0.14598   0.69126   0.21643   0.00000  Uiso   1.00
C582   C     0.18686   0.97546   0.28398   0.00000  Uiso   1.00
C583   C     0.16542   0.83332   0.16356   0.00000  Uiso   1.00
C584   C     0.16812   0.83318   0.33648   0.00000  Uiso   1.00
C585   C     0.20707   0.83928   0.40958   0.00000  Uiso   1.00
C586   C     0.12898   0.82364   0.09011   0.00000  Uiso   1.00
C587   C     0.17027   0.83152   0.38455   0.00000  Uiso   1.00
C588   C     0.24634   0.83273   0.24550   0.00000  Uiso   1.00
C589   C     0.16520   0.83234   0.11568   0.00000  Uiso   1.00
C590   C     0.13591   0.81547   0.40431   0.00000  Uiso   1.00
C591   C     0.20308   0.83484   0.09651   0.00000  Uiso   1.00
C592   C     0.13520   0.81069   0.45071   0.00000  Uiso   1.00
C593   C     0.20605   0.82991   0.05029   0.00000  Uiso   1.00
C594   C     0.17112   0.82068   0.47704   0.00000  Uiso   1.00
C595   C     0.16991   0.82053   0.02388   0.00000  Uiso   1.00
C596   C     0.20832   0.83064   0.45643   0.00000  Uiso   1.00
C597   C     0.13220   0.81245   0.04431   0.00000  Uiso   1.00
C598   C     0.10037   0.79367   0.47106   0.00000  Uiso   1.00
C599   C     0.09935   0.79312   0.01840   0.00000  Uiso   1.00
C600   C     0.24448   0.83229   0.03019   0.00000  Uiso   1.00
C601   C     0.24271   0.85868   0.38723   0.00000  Uiso   1.00
C602   C     0.08818   0.83363   0.10927   0.00000  Uiso   1.00
C603   C     0.06664   0.77359   0.44304   0.00000  Uiso   1.00
C604   C     0.28346   0.83545   0.05835   0.00000  Uiso   1.00
C605   C     0.06670   0.76814   0.04071   0.00000  Uiso   1.00
C606   C     0.28408   0.81383   0.46234   0.00000  Uiso   1.00
C607   C     0.04334   0.75627   0.28675   0.00000  Uiso   1.00
C608   C     0.28724   0.91196   0.21296   0.00000  Uiso   1.00
C609   C     0.29552   0.74724   0.23942   0.00000  Uiso   1.00
C610   C     0.24567   0.82951   0.48301   0.00000  Uiso   1.00
C611   C     0.03746   0.92060   0.24365   0.00000  Uiso   1.00
C612   C     0.21054   0.71485   0.31957   0.00000  Uiso   1.00
C613   C     0.12434   0.95239   0.17900   0.00000  Uiso   1.00
C614   C     0.12216   0.71652   0.18115   0.00000  Uiso   1.00
C615   C     0.21015   0.94984   0.31941   0.00000  Uiso   1.00
C616   C     0.02180   0.79467   0.26275   0.00000  Uiso   1.00
C617   C     0.31048   0.87239   0.23248   0.00000  Uiso   1.00
C618   C     0.31371   0.79168   0.24903   0.00000  Uiso   1.00
C619   C     0.01909   0.87530   0.24350   0.00000  Uiso   1.00
C620   C     0.29071   0.83163   0.23963   0.00000  Uiso   1.00
H621   H     0.10961   0.80753   0.38245   0.00000  Uiso   1.00
H622   H     0.26332   0.97370   0.22347   0.00000  Uiso   1.00
H623   H     0.26292   0.70981   0.19428   0.00000  Uiso   1.00
H624   H     0.04557   0.97821   0.20988   0.00000  Uiso   1.00
H625   H     0.22967   0.74230   0.31086   0.00000  Uiso   1.00
H626   H     0.10797   0.92228   0.18586   0.00000  Uiso   1.00
H627   H     0.13666   0.72576   0.15047   0.00000  Uiso   1.00
H628   H     0.23647   0.92896   0.31110   0.00000  Uiso   1.00
H629   H     0.22998   0.84135   0.11825   0.00000  Uiso   1.00
H630   H     0.28688   0.90513   0.38897   0.00000  Uiso   1.00
H631   H     0.04967   0.82479   0.15943   0.00000  Uiso   1.00
H632   H     0.03619   0.71763   0.42511   0.00000  Uiso   1.00
H633   H     0.27650   0.77553   0.08843   0.00000  Uiso   1.00
H634   H     0.05300   0.72426   0.08914   0.00000  Uiso   1.00
H635   H     0.30949   0.76865   0.42016   0.00000  Uiso   1.00
H636   H     0.06235   0.69141   0.28607   0.00000  Uiso   1.00
N637   N     0.16667   0.95240   0.25000   0.00000  Uiso   1.00
N638   N     0.16667   0.71427   0.25000   0.00000  Uiso   1.00
O639   O     0.10559   0.87154   0.24999   0.00000  Uiso   1.00
O640   O     0.26306   0.89506   0.40703   0.00000  Uiso   1.00
O641   O     0.06268   0.85707   0.08799   0.00000  Uiso   1.00
O642   O     0.07880   0.81646   0.15112   0.00000  Uiso   1.00
O643   O     0.04579   0.79710   0.41662   0.00000  Uiso   1.00
O644   O     0.05922   0.72772   0.44667   0.00000  Uiso   1.00
O645   O     0.30489   0.86822   0.05485   0.00000  Uiso   1.00
O646   O     0.29580   0.80176   0.08921   0.00000  Uiso   1.00
O647   O     0.03054   0.77280   0.02796   0.00000  Uiso   1.00
O648   O     0.07770   0.73913   0.07648   0.00000  Uiso   1.00
O649   O     0.31620   0.83379   0.46890   0.00000  Uiso   1.00
O650   O     0.22774   0.79513   0.25000   0.00000  Uiso   1.00
O651   O     0.28249   0.77614   0.43424   0.00000  Uiso   1.00
O652   O     0.06025   0.76242   0.32376   0.00000  Uiso   1.00
O653   O     0.04567   0.71391   0.26670   0.00000  Uiso   1.00
O654   O     0.27000   0.90926   0.17562   0.00000  Uiso   1.00
O655   O     0.28337   0.95116   0.23838   0.00000  Uiso   1.00
O656   O     0.29627   0.71789   0.26819   0.00000  Uiso   1.00
O657   O     0.27619   0.74009   0.19708   0.00000  Uiso   1.00
O658   O     0.05446   0.93492   0.27814   0.00000  Uiso   1.00
O659   O     0.03349   0.94747   0.20505   0.00000  Uiso   1.00
O660   O     0.20764   0.70598   0.35934   0.00000  Uiso   1.00
O661   O     0.22774   0.87154   0.25000   0.00000  Uiso   1.00
O662   O     0.12471   0.96544   0.14009   0.00000  Uiso   1.00
O663   O     0.08561   0.72509   0.18513   0.00000  Uiso   1.00
O664   O     0.19929   0.95094   0.35816   0.00000  Uiso   1.00
O665   O     0.10559   0.79513   0.24999   0.00000  Uiso   1.00
O666   O     0.16666   0.87156   0.18392   0.00000  Uiso   1.00
O667   O     0.16667   0.79511   0.31607   0.00000  Uiso   1.00
O668   O     0.16667   0.87156   0.31607   0.00000  Uiso   1.00
O669   O     0.16666   0.79511   0.18392   0.00000  Uiso   1.00
O670   O     0.25452   0.84261   0.35208   0.00000  Uiso   1.00
Zn671  Zn    0.16667   0.88437   0.25000   0.00000  Uiso   1.00
Zn672  Zn    0.16667   0.78229   0.25000   0.00000  Uiso   1.00
C673   C     0.42005   0.83406   0.25336   0.00000  Uiso   1.00
C674   C     0.37527   0.83557   0.25606   0.00000  Uiso   1.00
C675   C     0.52038   0.69023   0.28399   0.00000  Uiso   1.00
C676   C     0.47967   0.97656   0.21600   0.00000  Uiso   1.00
C677   C     0.47931   0.69126   0.21643   0.00000  Uiso   1.00
C678   C     0.52020   0.97546   0.28398   0.00000  Uiso   1.00
C679   C     0.49875   0.83332   0.16356   0.00000  Uiso   1.00
C680   C     0.50145   0.83318   0.33648   0.00000  Uiso   1.00
C681   C     0.54040   0.83928   0.40958   0.00000  Uiso   1.00
C682   C     0.46231   0.82364   0.09011   0.00000  Uiso   1.00
C683   C     0.50360   0.83152   0.38455   0.00000  Uiso   1.00
C684   C     0.57967   0.83273   0.24550   0.00000  Uiso   1.00
C685   C     0.49853   0.83234   0.11568   0.00000  Uiso   1.00
C686   C     0.46925   0.81547   0.40431   0.00000  Uiso   1.00
C687   C     0.53641   0.83484   0.09651   0.00000  Uiso   1.00
C688   C     0.46853   0.81069   0.45071   0.00000  Uiso   1.00
C689   C     0.53939   0.82991   0.05029   0.00000  Uiso   1.00
C690   C     0.50445   0.82068   0.47704   0.00000  Uiso   1.00
C691   C     0.50325   0.82053   0.02388   0.00000  Uiso   1.00
C692   C     0.54165   0.83064   0.45643   0.00000  Uiso   1.00
C693   C     0.46553   0.81245   0.04431   0.00000  Uiso   1.00
C694   C     0.43371   0.79367   0.47106   0.00000  Uiso   1.00
C695   C     0.43268   0.79312   0.01840   0.00000  Uiso   1.00
C696   C     0.57781   0.83229   0.03019   0.00000  Uiso   1.00
C697   C     0.57604   0.85868   0.38723   0.00000  Uiso   1.00
C698   C     0.42151   0.83363   0.10927   0.00000  Uiso   1.00
C699   C     0.39997   0.77359   0.44304   0.00000  Uiso   1.00
C700   C     0.61679   0.83545   0.05835   0.00000  Uiso   1.00
C701   C     0.40003   0.76814   0.04071   0.00000  Uiso   1.00
C702   C     0.61741   0.81383   0.46234   0.00000  Uiso   1.00
C703   C     0.37668   0.75627   0.28675   0.00000  Uiso   1.00
C704   C     0.62057   0.91196   0.21296   0.00000  Uiso   1.00
C705   C     0.62885   0.74724   0.23942   0.00000  Uiso   1.00
C706   C     0.57900   0.82951   0.48301   0.00000  Uiso   1.00
C707   C     0.37079   0.92060   0.24365   0.00000  Uiso   1.00
C708   C     0.54387   0.71485   0.31957   0.00000  Uiso   1.00
C709   C     0.45767   0.95239   0.17900   0.00000  Uiso   1.00
C710   C     0.45550   0.71652   0.18115   0.00000  Uiso   1.00
C711   C     0.54349   0.94984   0.31941   0.00000  Uiso   1.00
C712   C     0.35513   0.79467   0.26275   0.00000  Uiso   1.00
C713   C     0.64382   0.87239   0.23248   0.00000  Uiso   1.00
C714   C     0.64705   0.79168   0.24903   0.00000  Uiso   1.00
C715   C     0.35243   0.87530   0.24350   0.00000  Uiso   1.00
C716   C     0.62404   0.83163   0.23963   0.00000  Uiso   1.00
H717   H     0.44294   0.80753   0.38245   0.00000  Uiso   1.00
H718   H     0.59666   0.97370   0.22347   0.00000  Uiso   1.00
H719   H     0.59625   0.70981   0.19428   0.00000  Uiso   1.00
H720   H     0.37890   0.97821   0.20988   0.00000  Uiso   1.00
H721   H     0.56300   0.74230   0.31086   0.00000  Uiso   1.00
H722   H     0.44131   0.92228   0.18586   0.00000  Uiso   1.00
H723   H     0.46999   0.72576   0.15047   0.00000  Uiso   1.00
H724   H     0.56981   0.92896   0.31110   0.00000  Uiso   1.00
H725   H     0.56331   0.84135   0.11825   0.00000  Uiso   1.00
H726   H     0.62022   0.90513   0.38897   0.00000  Uiso   1.00
H727   H     0.38300   0.82479   0.15943   0.00000  Uiso   1.00
H728   H     0.36952   0.71763   0.42511   0.00000  Uiso   1.00
H729   H     0.60983   0.77553   0.08843   0.00000  Uiso   1.00
H730   H     0.38634   0.72426   0.08914   0.00000  Uiso   1.00
H731   H     0.64282   0.76865   0.42016   0.00000  Uiso   1.00
H732   H     0.39568   0.69141   0.28607   0.00000  Uiso   1.00
N733   N     0.50000   0.95240   0.25000   0.00000  Uiso   1.00
N734   N     0.50000   0.71427   0.25000   0.00000  Uiso   1.00
O735   O     0.43892   0.87154   0.24999   0.00000  Uiso   1.00
O736   O     0.59639   0.89506   0.40703   0.00000  Uiso   1.00
O737   O     0.39601   0.85707   0.08799   0.00000  Uiso   1.00
O738   O     0.41213   0.81646   0.15112   0.00000  Uiso   1.00
O739   O     0.37913   0.79710   0.41662   0.00000  Uiso   1.00
O740   O     0.39256   0.72772   0.44667   0.00000  Uiso   1.00
O741   O     0.63822   0.86822   0.05485   0.00000  Uiso   1.00
O742   O     0.62913   0.80176   0.08921   0.00000  Uiso   1.00
O743   O     0.36387   0.77280   0.02796   0.00000  Uiso   1.00
O744   O     0.41103   0.73913   0.07648   0.00000  Uiso   1.00
O745   O     0.64953   0.83379   0.46890   0.00000  Uiso   1.00
O746   O     0.56108   0.79513   0.25000   0.00000  Uiso   1.00
O747   O     0.61582   0.77614   0.43424   0.00000  Uiso   1.00
O748   O     0.39358   0.76242   0.32376   0.00000  Uiso   1.00
O749   O     0.37900   0.71391   0.26670   0.00000  Uiso   1.00
O750   O     0.60333   0.90926   0.17562   0.00000  Uiso   1.00
O751   O     0.61670   0.95116   0.23838   0.00000  Uiso   1.00
O752   O     0.62960   0.71789   0.26819   0.00000  Uiso   1.00
O753   O     0.60952   0.74009   0.19708   0.00000  Uiso   1.00
O754   O     0.38779   0.93492   0.27814   0.00000  Uiso   1.00
O755   O     0.36682   0.94747   0.20505   0.00000  Uiso   1.00
O756   O     0.54097   0.70598   0.35934   0.00000  Uiso   1.00
O757   O     0.56108   0.87154   0.25000   0.00000  Uiso   1.00
O758   O     0.45804   0.96544   0.14009   0.00000  Uiso   1.00
O759   O     0.41895   0.72509   0.18513   0.00000  Uiso   1.00
O760   O     0.53262   0.95094   0.35816   0.00000  Uiso   1.00
O761   O     0.43892   0.79513   0.24999   0.00000  Uiso   1.00
O762   O     0.49999   0.87156   0.18392   0.00000  Uiso   1.00
O763   O     0.50001   0.79511   0.31607   0.00000  Uiso   1.00
O764   O     0.50001   0.87156   0.31607   0.00000  Uiso   1.00
O765   O     0.49999   0.79511   0.18392   0.00000  Uiso   1.00
O766   O     0.58786   0.84261   0.35208   0.00000  Uiso   1.00
Zn767  Zn    0.50000   0.88437   0.25000   0.00000  Uiso   1.00
Zn768  Zn    0.50000   0.78229   0.25000   0.00000  Uiso   1.00
C769   C     0.75338   0.83406   0.25336   0.00000  Uiso   1.00
C770   C     0.70860   0.83557   0.25606   0.00000  Uiso   1.00
C771   C     0.85372   0.69023   0.28399   0.00000  Uiso   1.00
C772   C     0.81300   0.97656   0.21600   0.00000  Uiso   1.00
C773   C     0.81265   0.69126   0.21643   0.00000  Uiso   1.00
C774   C     0.85353   0.97546   0.28398   0.00000  Uiso   1.00
C775   C     0.83209   0.83332   0.16356   0.00000  Uiso   1.00
C776   C     0.83479   0.83318   0.33648   0.00000  Uiso   1.00
C777   C     0.87373   0.83928   0.40958   0.00000  Uiso   1.00
C778   C     0.79564   0.82364   0.09011   0.00000  Uiso   1.00
C779   C     0.83693   0.83152   0.38455   0.00000  Uiso   1.00
C780   C     0.91300   0.83273   0.24550   0.00000  Uiso   1.00
C781   C     0.83187   0.83234   0.11568   0.00000  Uiso   1.00
C782   C     0.80258   0.81547   0.40431   0.00000  Uiso   1.00
C783   C     0.86974   0.83484   0.09651   0.00000  Uiso   1.00
C784   C     0.80186   0.81069   0.45071   0.00000  Uiso   1.00
C785   C     0.87272   0.82991   0.05029   0.00000  Uiso   1.00
C786   C     0.83779   0.82068   0.47704   0.00000  Uiso   1.00
C787   C     0.83658   0.82053   0.02388   0.00000  Uiso   1.00
C788   C     0.87498   0.83064   0.45643   0.00000  Uiso   1.00
C789   C     0.79886   0.81245   0.04431   0.00000  Uiso   1.00
C790   C     0.76704   0.79367   0.47106   0.00000  Uiso   1.00
C791   C     0.76601   0.79312   0.01840   0.00000  Uiso   1.00
C792   C     0.91114   0.83229   0.03019   0.00000  Uiso   1.00
C793   C     0.90938   0.85868   0.38723   0.00000  Uiso   1.00
C794   C     0.75484   0.83363   0.10927   0.00000  Uiso   1.00
C795   C     0.73330   0.77359   0.44304   0.00000  Uiso   1.00
C796   C     0.95013   0.83545   0.05835   0.00000  Uiso   1.00
C797   C     0.73337   0.76814   0.04071   0.00000  Uiso   1.00
C798   C     0.95074   0.81383   0.46234   0.00000  Uiso   1.00
C799   C     0.71001   0.75627   0.28675   0.00000  Uiso   1.00
C800   C     0.95390   0.91196   0.21296   0.00000  Uiso   1.00
C801   C     0.96219   0.74724   0.23942   0.00000  Uiso   1.00
C802   C     0.91233   0.82951   0.48301   0.00000  Uiso   1.00
C803   C     0.70412   0.92060   0.24365   0.00000  Uiso   1.00
C804   C     0.87721   0.71485   0.31957   0.00000  Uiso   1.00
C805   C     0.79100   0.95239   0.17900   0.00000  Uiso   1.00
C806   C     0.78883   0.71652   0.18115   0.00000  Uiso   1.00
C807   C     0.87682   0.94984   0.31941   0.00000  Uiso   1.00
C808   C     0.68846   0.79467   0.26275   0.00000  Uiso   1.00
C809   C     0.97715   0.87239   0.23248   0.00000  Uiso   1.00
C810   C     0.98038   0.79168   0.24903   0.00000  Uiso   1.00
C811   C     0.68576   0.87530   0.24350   0.00000  Uiso   1.00
C812   C     0.95737   0.83163   0.23963   0.00000  Uiso   1.00
H813   H     0.77628   0.80753   0.38245   0.00000  Uiso   1.00
H814   H     0.92999   0.97370   0.22347   0.00000  Uiso   1.00
H815   H     0.92958   0.70981   0.19428   0.00000  Uiso   1.00
H816   H     0.71224   0.97821   0.20988   0.00000  Uiso   1.00
H817   H     0.89634   0.74230   0.31086   0.00000  Uiso   1.00
H818   H     0.77464   0.92228   0.18586   0.00000  Uiso   1.00
H819   H     0.80333   0.72576   0.15047   0.00000  Uiso   1.00
H820   H     0.90314   0.92896   0.31110   0.00000  Uiso   1.00
H821   H     0.89665   0.84135   0.11825   0.00000  Uiso   1.00
H822   H     0.95355   0.90513   0.38897   0.00000  Uiso   1.00
H823   H     0.71634   0.82479   0.15943   0.00000  Uiso   1.00
H824   H     0.70286   0.71763   0.42511   0.00000  Uiso   1.00
H825   H     0.94317   0.77553   0.08843   0.00000  Uiso   1.00
H826   H     0.71967   0.72426   0.08914   0.00000  Uiso   1.00
H827   H     0.97616   0.76865   0.42016   0.00000  Uiso   1.00
H828   H     0.72902   0.69141   0.28607   0.00000  Uiso   1.00
N829   N     0.83333   0.95240   0.25000   0.00000  Uiso   1.00
N830   N     0.83333   0.71427   0.25000   0.00000  Uiso   1.00
O831   O     0.77226   0.87154   0.24999   0.00000  Uiso   1.00
O832   O     0.92972   0.89506   0.40703   0.00000  Uiso   1.00
O833   O     0.72934   0.85707   0.08799   0.00000  Uiso   1.00
O834   O     0.74547   0.81646   0.15112   0.00000  Uiso   1.00
O835   O     0.71246   0.79710   0.41662   0.00000  Uiso   1.00
O836   O     0.72589   0.72772   0.44667   0.00000  Uiso   1.00
O837   O     0.97155   0.86822   0.05485   0.00000  Uiso   1.00
O838   O     0.96246   0.80176   0.08921   0.00000  Uiso   1.00
O839   O     0.69720   0.77280   0.02796   0.00000  Uiso   1.00
O840   O     0.74436   0.73913   0.07648   0.00000  Uiso   1.00
O841   O     0.98286   0.83379   0.46890   0.00000  Uiso   1.00
O842   O     0.89441   0.79513   0.25000   0.00000  Uiso   1.00
O843   O     0.94915   0.77614   0.43424   0.00000  Uiso   1.00
O844   O     0.72692   0.76242   0.32376   0.00000  Uiso   1.00
O845   O     0.71234   0.71391   0.26670   0.00000  Uiso   1.00
O846   O     0.93666   0.90926   0.17562   0.00000  Uiso   1.00
O847   O     0.95004   0.95116   0.23838   0.00000  Uiso   1.00
O848   O     0.96294   0.71789   0.26819   0.00000  Uiso   1.00
O849   O     0.94285   0.74009   0.19708   0.00000  Uiso   1.00
O850   O     0.72112   0.93492   0.27814   0.00000  Uiso   1.00
O851   O     0.70016   0.94747   0.20505   0.00000  Uiso   1.00
O852   O     0.87431   0.70598   0.35934   0.00000  Uiso   1.00
O853   O     0.89441   0.87154   0.25000   0.00000  Uiso   1.00
O854   O     0.79137   0.96544   0.14009   0.00000  Uiso   1.00
O855   O     0.75228   0.72509   0.18513   0.00000  Uiso   1.00
O856   O     0.86595   0.95094   0.35816   0.00000  Uiso   1.00
O857   O     0.77226   0.79513   0.24999   0.00000  Uiso   1.00
O858   O     0.83333   0.87156   0.18392   0.00000  Uiso   1.00
O859   O     0.83334   0.79511   0.31607   0.00000  Uiso   1.00
O860   O     0.83334   0.87156   0.31607   0.00000  Uiso   1.00
O861   O     0.83333   0.79511   0.18392   0.00000  Uiso   1.00
O862   O     0.92119   0.84261   0.35208   0.00000  Uiso   1.00
Zn863  Zn    0.83333   0.88437   0.25000   0.00000  Uiso   1.00
Zn864  Zn    0.83333   0.78229   0.25000   0.00000  Uiso   1.00
C865   C     0.08672   0.16739   0.75336   0.00000  Uiso   1.00
C866   C     0.04193   0.16890   0.75606   0.00000  Uiso   1.00
C867   C     0.18705   0.02357   0.78399   0.00000  Uiso   1.00
C868   C     0.14633   0.30990   0.71600   0.00000  Uiso   1.00
C869   C     0.14598   0.02459   0.71643   0.00000  Uiso   1.00
C870   C     0.18686   0.30879   0.78398   0.00000  Uiso   1.00
C871   C     0.16542   0.16665   0.66356   0.00000  Uiso   1.00
C872   C     0.16812   0.16651   0.83648   0.00000  Uiso   1.00
C873   C     0.20707   0.17261   0.90958   0.00000  Uiso   1.00
C874   C     0.12898   0.15697   0.59011   0.00000  Uiso   1.00
C875   C     0.17027   0.16486   0.88455   0.00000  Uiso   1.00
C876   C     0.24634   0.16607   0.74550   0.00000  Uiso   1.00
C877   C     0.16520   0.16568   0.61568   0.00000  Uiso   1.00
C878   C     0.13591   0.14880   0.90431   0.00000  Uiso   1.00
C879   C     0.20308   0.16817   0.59651   0.00000  Uiso   1.00
C880   C     0.13520   0.14403   0.95071   0.00000  Uiso   1.00
C881   C     0.20605   0.16324   0.55029   0.00000  Uiso   1.00
C882   C     0.17112   0.15401   0.97704   0.00000  Uiso   1.00
C883   C     0.16991   0.15386   0.52388   0.00000  Uiso   1.00
C884   C     0.20832   0.16397   0.95643   0.00000  Uiso   1.00
C885   C     0.13220   0.14578   0.54431   0.00000  Uiso   1.00
C886   C     0.10037   0.12700   0.97106   0.00000  Uiso   1.00
C887   C     0.09935   0.12645   0.51840   0.00000  Uiso   1.00
C888   C     0.24448   0.16563   0.53019   0.00000  Uiso   1.00
C889   C     0.24271   0.19201   0.88723   0.00000  Uiso   1.00
C890   C     0.08818   0.16696   0.60927   0.00000  Uiso   1.00
C891   C     0.06664   0.10692   0.94304   0.00000  Uiso   1.00
C892   C     0.28346   0.16878   0.55835   0.00000  Uiso   1.00
C893   C     0.06670   0.10148   0.54071   0.00000  Uiso   1.00
C894   C     0.28408   0.14716   0.96234   0.00000  Uiso   1.00
C895   C     0.04334   0.08960   0.78675   0.00000  Uiso   1.00
C896   C     0.28724   0.24529   0.71296   0.00000  Uiso   1.00
C897   C     0.29552   0.08058   0.73942   0.00000  Uiso   1.00
C898   C     0.24567   0.16285   0.98301   0.00000  Uiso   1.00
C899   C     0.03746   0.25393   0.74365   0.00000  Uiso   1.00
C900   C     0.21054   0.04819   0.81957   0.00000  Uiso   1.00
C901   C     0.12434   0.28572   0.67900   0.00000  Uiso   1.00
C902   C     0.12216   0.04986   0.68115   0.00000  Uiso   1.00
C903   C     0.21015   0.28317   0.81941   0.00000  Uiso   1.00
C904   C     0.02180   0.12800   0.76275   0.00000  Uiso   1.00
C905   C     0.31048   0.20572   0.73248   0.00000  Uiso   1.00
C906   C     0.31371   0.12502   0.74903   0.00000  Uiso   1.00
C907   C     0.01909   0.20864   0.74350   0.00000  Uiso   1.00
C908   C     0.29071   0.16496   0.73963   0.00000  Uiso   1.00
H909   H     0.10961   0.14087   0.88245   0.00000  Uiso   1.00
H910   H     0.26332   0.30703   0.72347   0.00000  Uiso   1.00
H911   H     0.26292   0.04315   0.69428   0.00000  Uiso   1.00
H912   H     0.04557   0.31154   0.70988   0.00000  Uiso   1.00
H913   H     0.22967   0.07563   0.81086   0.00000  Uiso   1.00
H914   H     0.10797   0.25562   0.68586   0.00000  Uiso   1.00
H915   H     0.13666   0.05909   0.65047   0.00000  Uiso   1.00
H916   H     0.23647   0.26229   0.81110   0.00000  Uiso   1.00
H917   H     0.22998   0.17468   0.61825   0.00000  Uiso   1.00
H918   H     0.28688   0.23846   0.88897   0.00000  Uiso   1.00
H919   H     0.04967   0.15813   0.65943   0.00000  Uiso   1.00
H920   H     0.03619   0.05096   0.92511   0.00000  Uiso   1.00
H921   H     0.27650   0.10886   0.58843   0.00000  Uiso   1.00
H922   H     0.05300   0.05759   0.58914   0.00000  Uiso   1.00
H923   H     0.30949   0.10199   0.92016   0.00000  Uiso   1.00
H924   H     0.06235   0.02474   0.78607   0.00000  Uiso   1.00
N925   N     0.16667   0.28573   0.75000   0.00000  Uiso   1.00
N926   N     0.16667   0.04760   0.75000   0.00000  Uiso   1.00
O927   O     0.10559   0.20487   0.74999   0.00000  Uiso   1.00
O928   O     0.26306   0.22839   0.90703   0.00000  Uiso   1.00
O929   O     0.06268   0.19040   0.58799   0.00000  Uiso   1.00
O930   O     0.07880   0.14979   0.65112   0.00000  Uiso   1.00
O931   O     0.04579   0.13043   0.91662   0.00000  Uiso   1.00
O932   O     0.05922   0.06106   0.94667   0.00000  Uiso   1.00
O933   O     0.30489   0.20156   0.55485   0.00000  Uiso   1.00
O934   O     0.29580   0.13509   0.58921   0.00000  Uiso   1.00
O935   O     0.03054   0.10613   0.52796   0.00000  Uiso   1.00
O936   O     0.07770   0.07246   0.57648   0.00000  Uiso   1.00
O937   O     0.31620   0.16713   0.96890   0.00000  Uiso   1.00
O938   O     0.22774   0.12846   0.75000   0.00000  Uiso   1.00
O939   O     0.28249   0.10947   0.93424   0.00000  Uiso   1.00
O940   O     0.06025   0.09575   0.82376   0.00000  Uiso   1.00
O941   O     0.04567   0.04725   0.76670   0.00000  Uiso   1.00
O942   O     0.27000   0.24260   0.67562   0.00000  Uiso   1.00
O943   O     0.28337   0.28449   0.73838   0.00000  Uiso   1.00
O944   O     0.29627   0.05123   0.76819   0.00000  Uiso   1.00
O945   O     0.27619   0.07342   0.69708   0.00000  Uiso   1.00
O946   O     0.05446   0.26825   0.77814   0.00000  Uiso   1.00
O947   O     0.03349   0.28080   0.70505   0.00000  Uiso   1.00
O948   O     0.20764   0.03932   0.85934   0.00000  Uiso   1.00
O949   O     0.22774   0.20487   0.75000   0.00000  Uiso   1.00
O950   O     0.12471   0.29877   0.64009   0.00000  Uiso   1.00
O951   O     0.08561   0.05842   0.68513   0.00000  Uiso   1.00
O952   O     0.19929   0.28427   0.85816   0.00000  Uiso   1.00
O953   O     0.10559   0.12846   0.74999   0.00000  Uiso   1.00
O954   O     0.16666   0.20489   0.68392   0.00000  Uiso   1.00
O955   O     0.16667   0.12844   0.81607   0.00000  Uiso   1.00
O956   O     0.16667   0.20489   0.81607   0.00000  Uiso   1.00
O957   O     0.16666   0.12844   0.68392   0.00000  Uiso   1.00
O958   O     0.25452   0.17594   0.85208   0.00000  Uiso   1.00
Zn959  Zn    0.16667   0.21771   0.75000   0.00000  Uiso   1.00
Zn960  Zn    0.16667   0.11563   0.75000   0.00000  Uiso   1.00
C961   C     0.42005   0.16739   0.75336   0.00000  Uiso   1.00
C962   C     0.37527   0.16890   0.75606   0.00000  Uiso   1.00
C963   C     0.52038   0.02357   0.78399   0.00000  Uiso   1.00
C964   C     0.47967   0.30990   0.71600   0.00000  Uiso   1.00
C965   C     0.47931   0.02459   0.71643   0.00000  Uiso   1.00
C966   C     0.52020   0.30879   0.78398   0.00000  Uiso   1.00
C967   C     0.49875   0.16665   0.66356   0.00000  Uiso   1.00
C968   C     0.50145   0.16651   0.83648   0.00000  Uiso   1.00
C969   C     0.54040   0.17261   0.90958   0.00000  Uiso   1.00
C970   C     0.46231   0.15697   0.59011   0.00000  Uiso   1.00
C971   C     0.50360   0.16486   0.88455   0.00000  Uiso   1.00
C972   C     0.57967   0.16607   0.74550   0.00000  Uiso   1.00
C973   C     0.49853   0.16568   0.61568   0.00000  Uiso   1.00
C974   C     0.46925   0.14880   0.90431   0.00000  Uiso   1.00
C975   C     0.53641   0.16817   0.59651   0.00000  Uiso   1.00
C976   C     0.46853   0.14403   0.95071   0.00000  Uiso   1.00
C977   C     0.53939   0.16324   0.55029   0.00000  Uiso   1.00
C978   C     0.50445   0.15401   0.97704   0.00000  Uiso   1.00
C979   C     0.50325   0.15386   0.52388   0.00000  Uiso   1.00
C980   C     0.54165   0.16397   0.95643   0.00000  Uiso   1.00
C981   C     0.46553   0.14578   0.54431   0.00000  Uiso   1.00
C982   C     0.43371   0.12700   0.97106   0.00000  Uiso   1.00
C983   C     0.43268   0.12645   0.51840   0.00000  Uiso   1.00
C984   C     0.57781   0.16563   0.53019   0.00000  Uiso   1.00
C985   C     0.57604   0.19201   0.88723   0.00000  Uiso   1.00
C986   C     0.42151   0.16696   0.60927   0.00000  Uiso   1.00
C987   C     0.39997   0.10692   0.94304   0.00000  Uiso   1.00
C988   C     0.61679   0.16878   0.55835   0.00000  Uiso   1.00
C989   C     0.40003   0.10148   0.54071   0.00000  Uiso   1.00
C990   C     0.61741   0.14716   0.96234   0.00000  Uiso   1.00
C991   C     0.37668   0.08960   0.78675   0.00000  Uiso   1.00
C992   C     0.62057   0.24529   0.71296   0.00000  Uiso   1.00
C993   C     0.62885   0.08058   0.73942   0.00000  Uiso   1.00
C994   C     0.57900   0.16285   0.98301   0.00000  Uiso   1.00
C995   C     0.37079   0.25393   0.74365   0.00000  Uiso   1.00
C996   C     0.54387   0.04819   0.81957   0.00000  Uiso   1.00
C997   C     0.45767   0.28572   0.67900   0.00000  Uiso   1.00
C998   C     0.45550   0.04986   0.68115   0.00000  Uiso   1.00
C999   C     0.54349   0.28317   0.81941   0.00000  Uiso   1.00
C1000  C     0.35513   0.12800   0.76275   0.00000  Uiso   1.00
C1001  C     0.64382   0.20572   0.73248   0.00000  Uiso   1.00
C1002  C     0.64705   0.12502   0.74903   0.00000  Uiso   1.00
C1003  C     0.35243   0.20864   0.74350   0.00000  Uiso   1.00
C1004  C     0.62404   0.16496   0.73963   0.00000  Uiso   1.00
H1005  H     0.44294   0.14087   0.88245   0.00000  Uiso   1.00
H1006  H     0.59666   0.30703   0.72347   0.00000  Uiso   1.00
H1007  H     0.59625   0.04315   0.69428   0.00000  Uiso   1.00
H1008  H     0.37890   0.31154   0.70988   0.00000  Uiso   1.00
H1009  H     0.56300   0.07563   0.81086   0.00000  Uiso   1.00
H1010  H     0.44131   0.25562   0.68586   0.00000  Uiso   1.00
H1011  H     0.46999   0.05909   0.65047   0.00000  Uiso   1.00
H1012  H     0.56981   0.26229   0.81110   0.00000  Uiso   1.00
H1013  H     0.56331   0.17468   0.61825   0.00000  Uiso   1.00
H1014  H     0.62022   0.23846   0.88897   0.00000  Uiso   1.00
H1015  H     0.38300   0.15813   0.65943   0.00000  Uiso   1.00
H1016  H     0.36952   0.05096   0.92511   0.00000  Uiso   1.00
H1017  H     0.60983   0.10886   0.58843   0.00000  Uiso   1.00
H1018  H     0.38634   0.05759   0.58914   0.00000  Uiso   1.00
H1019  H     0.64282   0.10199   0.92016   0.00000  Uiso   1.00
H1020  H     0.39568   0.02474   0.78607   0.00000  Uiso   1.00
N1021  N     0.50000   0.28573   0.75000   0.00000  Uiso   1.00
N1022  N     0.50000   0.04760   0.75000   0.00000  Uiso   1.00
O1023  O     0.43892   0.20487   0.74999   0.00000  Uiso   1.00
O1024  O     0.59639   0.22839   0.90703   0.00000  Uiso   1.00
O1025  O     0.39601   0.19040   0.58799   0.00000  Uiso   1.00
O1026  O     0.41213   0.14979   0.65112   0.00000  Uiso   1.00
O1027  O     0.37913   0.13043   0.91662   0.00000  Uiso   1.00
O1028  O     0.39256   0.06106   0.94667   0.00000  Uiso   1.00
O1029  O     0.63822   0.20156   0.55485   0.00000  Uiso   1.00
O1030  O     0.62913   0.13509   0.58921   0.00000  Uiso   1.00
O1031  O     0.36387   0.10613   0.52796   0.00000  Uiso   1.00
O1032  O     0.41103   0.07246   0.57648   0.00000  Uiso   1.00
O1033  O     0.64953   0.16713   0.96890   0.00000  Uiso   1.00
O1034  O     0.56108   0.12846   0.75000   0.00000  Uiso   1.00
O1035  O     0.61582   0.10947   0.93424   0.00000  Uiso   1.00
O1036  O     0.39358   0.09575   0.82376   0.00000  Uiso   1.00
O1037  O     0.37900   0.04725   0.76670   0.00000  Uiso   1.00
O1038  O     0.60333   0.24260   0.67562   0.00000  Uiso   1.00
O1039  O     0.61670   0.28449   0.73838   0.00000  Uiso   1.00
O1040  O     0.62960   0.05123   0.76819   0.00000  Uiso   1.00
O1041  O     0.60952   0.07342   0.69708   0.00000  Uiso   1.00
O1042  O     0.38779   0.26825   0.77814   0.00000  Uiso   1.00
O1043  O     0.36682   0.28080   0.70505   0.00000  Uiso   1.00
O1044  O     0.54097   0.03932   0.85934   0.00000  Uiso   1.00
O1045  O     0.56108   0.20487   0.75000   0.00000  Uiso   1.00
O1046  O     0.45804   0.29877   0.64009   0.00000  Uiso   1.00
O1047  O     0.41895   0.05842   0.68513   0.00000  Uiso   1.00
O1048  O     0.53262   0.28427   0.85816   0.00000  Uiso   1.00
O1049  O     0.43892   0.12846   0.74999   0.00000  Uiso   1.00
O1050  O     0.49999   0.20489   0.68392   0.00000  Uiso   1.00
O1051  O     0.50001   0.12844   0.81607   0.00000  Uiso   1.00
O1052  O     0.50001   0.20489   0.81607   0.00000  Uiso   1.00
O1053  O     0.49999   0.12844   0.68392   0.00000  Uiso   1.00
O1054  O     0.58786   0.17594   0.85208   0.00000  Uiso   1.00
Zn1055 Zn    0.50000   0.21771   0.75000   0.00000  Uiso   1.00
Zn1056 Zn    0.50000   0.11563   0.75000   0.00000  Uiso   1.00
C1057  C     0.75338   0.16739   0.75336   0.00000  Uiso   1.00
C1058  C     0.70860   0.16890   0.75606   0.00000  Uiso   1.00
C1059  C     0.85372   0.02357   0.78399   0.00000  Uiso   1.00
C1060  C     0.81300   0.30990   0.71600   0.00000  Uiso   1.00
C1061  C     0.81265   0.02459   0.71643   0.00000  Uiso   1.00
C1062  C     0.85353   0.30879   0.78398   0.00000  Uiso   1.00
C1063  C     0.83209   0.16665   0.66356   0.00000  Uiso   1.00
C1064  C     0.83479   0.16651   0.83648   0.00000  Uiso   1.00
C1065  C     0.87373   0.17261   0.90958   0.00000  Uiso   1.00
C1066  C     0.79564   0.15697   0.59011   0.00000  Uiso   1.00
C1067  C     0.83693   0.16486   0.88455   0.00000  Uiso   1.00
C1068  C     0.91300   0.16607   0.74550   0.00000  Uiso   1.00
C1069  C     0.83187   0.16568   0.61568   0.00000  Uiso   1.00
C1070  C     0.80258   0.14880   0.90431   0.00000  Uiso   1.00
C1071  C     0.86974   0.16817   0.59651   0.00000  Uiso   1.00
C1072  C     0.80186   0.14403   0.95071   0.00000  Uiso   1.00
C1073  C     0.87272   0.16324   0.55029   0.00000  Uiso   1.00
C1074  C     0.83779   0.15401   0.97704   0.00000  Uiso   1.00
C1075  C     0.83658   0.15386   0.52388   0.00000  Uiso   1.00
C1076  C     0.87498   0.16397   0.95643   0.00000  Uiso   1.00
C1077  C     0.79886   0.14578   0.54431   0.00000  Uiso   1.00
C1078  C     0.76704   0.12700   0.97106   0.00000  Uiso   1.00
C1079  C     0.76601   0.12645   0.51840   0.00000  Uiso   1.00
C1080  C     0.91114   0.16563   0.53019   0.00000  Uiso   1.00
C1081  C     0.90938   0.19201   0.88723   0.00000  Uiso   1.00
C1082  C     0.75484   0.16696   0.60927   0.00000  Uiso   1.00
C1083  C     0.73330   0.10692   0.94304   0.00000  Uiso   1.00
C1084  C     0.95013   0.16878   0.55835   0.00000  Uiso   1.00
C1085  C     0.73337   0.10148   0.54071   0.00000  Uiso   1.00
C1086  C     0.95074   0.14716   0.96234   0.00000  Uiso   1.00
C1087  C     0.71001   0.08960   0.78675   0.00000  Uiso   1.00
C1088  C     0.95390   0.24529   0.71296   0.00000  Uiso   1.00
C1089  C     0.96219   0.08058   0.73942   0.00000  Uiso   1.00
C1090  C     0.91233   0.16285   0.98301   0.00000  Uiso   1.00
C1091  C     0.70412   0.25393   0.74365   0.00000  Uiso   1.00
C1092  C     0.87721   0.04819   0.81957   0.00000  Uiso   1.00
C1093  C     0.79100   0.28572   0.67900   0.00000  Uiso   1.00
C1094  C     0.78883   0.04986   0.68115   0.00000  Uiso   1.00
C1095  C     0.87682   0.28317   0.81941   0.00000  Uiso   1.00
C1096  C     0.68846   0.12800   0.76275   0.00000  Uiso   1.00
C1097  C     0.97715   0.20572   0.73248   0.00000  Uiso   1.00
C1098  C     0.98038   0.12502   0.74903   0.00000  Uiso   1.00
C1099  C     0.68576   0.20864   0.74350   0.00000  Uiso   1.00
C1100  C     0.95737   0.16496   0.73963   0.00000  Uiso   1.00
H1101  H     0.77628   0.14087   0.88245   0.00000  Uiso   1.00
H1102  H     0.92999   0.30703   0.72347   0.00000  Uiso   1.00
H1103  H     0.92958   0.04315   0.69428   0.00000  Uiso   1.00
H1104  H     0.71224   0.31154   0.70988   0.00000  Uiso   1.00
H1105  H     0.89634   0.07563   0.81086   0.00000  Uiso   1.00
H1106  H     0.77464   0.25562   0.68586   0.00000  Uiso   1.00
H1107  H     0.80333   0.05909   0.65047   0.00000  Uiso   1.00
H1108  H     0.90314   0.26229   0.81110   0.00000  Uiso   1.00
H1109  H     0.89665   0.17468   0.61825   0.00000  Uiso   1.00
H1110  H     0.95355   0.23846   0.88897   0.00000  Uiso   1.00
H1111  H     0.71634   0.15813   0.65943   0.00000  Uiso   1.00
H1112  H     0.70286   0.05096   0.92511   0.00000  Uiso   1.00
H1113  H     0.94317   0.10886   0.58843   0.00000  Uiso   1.00
H1114  H     0.71967   0.05759   0.58914   0.00000  Uiso   1.00
H1115  H     0.97616   0.10199   0.92016   0.00000  Uiso   1.00
H1116  H     0.72902   0.02474   0.78607   0.00000  Uiso   1.00
N1117  N     0.83333   0.28573   0.75000   0.00000  Uiso   1.00
N1118  N     0.83333   0.04760   0.75000   0.00000  Uiso   1.00
O1119  O     0.77226   0.20487   0.74999   0.00000  Uiso   1.00
O1120  O     0.92972   0.22839   0.90703   0.00000  Uiso   1.00
O1121  O     0.72934   0.19040   0.58799   0.00000  Uiso   1.00
O1122  O     0.74547   0.14979   0.65112   0.00000  Uiso   1.00
O1123  O     0.71246   0.13043   0.91662   0.00000  Uiso   1.00
O1124  O     0.72589   0.06106   0.94667   0.00000  Uiso   1.00
O1125  O     0.97155   0.20156   0.55485   0.00000  Uiso   1.00
O1126  O     0.96246   0.13509   0.58921   0.00000  Uiso   1.00
O1127  O     0.69720   0.10613   0.52796   0.00000  Uiso   1.00
O1128  O     0.74436   0.07246   0.57648   0.00000  Uiso   1.00
O1129  O     0.98286   0.16713   0.96890   0.00000  Uiso   1.00
O1130  O     0.89441   0.12846   0.75000   0.00000  Uiso   1.00
O1131  O     0.94915   0.10947   0.93424   0.00000  Uiso   1.00
O1132  O     0.72692   0.09575   0.82376   0.00000  Uiso   1.00
O1133  O     0.71234   0.04725   0.76670   0.00000  Uiso   1.00
O1134  O     0.93666   0.24260   0.67562   0.00000  Uiso   1.00
O1135  O     0.95004   0.28449   0.73838   0.00000  Uiso   1.00
O1136  O     0.96294   0.05123   0.76819   0.00000  Uiso   1.00
O1137  O     0.94285   0.07342   0.69708   0.00000  Uiso   1.00
O1138  O     0.72112   0.26825   0.77814   0.00000  Uiso   1.00
O1139  O     0.70016   0.28080   0.70505   0.00000  Uiso   1.00
O1140  O     0.87431   0.03932   0.85934   0.00000  Uiso   1.00
O1141  O     0.89441   0.20487   0.75000   0.00000  Uiso   1.00
O1142  O     0.79137   0.29877   0.64009   0.00000  Uiso   1.00
O1143  O     0.75228   0.05842   0.68513   0.00000  Uiso   1.00
O1144  O     0.86595   0.28427   0.85816   0.00000  Uiso   1.00
O1145  O     0.77226   0.12846   0.74999   0.00000  Uiso   1.00
O1146  O     0.83333   0.20489   0.68392   0.00000  Uiso   1.00
O1147  O     0.83334   0.12844   0.81607   0.00000  Uiso   1.00
O1148  O     0.83334   0.20489   0.81607   0.00000  Uiso   1.00
O1149  O     0.83333   0.12844   0.68392   0.00000  Uiso   1.00
O1150  O     0.92119   0.17594   0.85208   0.00000  Uiso   1.00
Zn1151 Zn    0.83333   0.21771   0.75000   0.00000  Uiso   1.00
Zn1152 Zn    0.83333   0.11563   0.75000   0.00000  Uiso   1.00
C1153  C     0.08672   0.50072   0.75336   0.00000  Uiso   1.00
C1154  C     0.04193   0.50224   0.75606   0.00000  Uiso   1.00
C1155  C     0.18705   0.35690   0.78399   0.00000  Uiso   1.00
C1156  C     0.14633   0.64323   0.71600   0.00000  Uiso   1.00
C1157  C     0.14598   0.35792   0.71643   0.00000  Uiso   1.00
C1158  C     0.18686   0.64212   0.78398   0.00000  Uiso   1.00
C1159  C     0.16542   0.49998   0.66356   0.00000  Uiso   1.00
C1160  C     0.16812   0.49984   0.83648   0.00000  Uiso   1.00
C1161  C     0.20707   0.50595   0.90958   0.00000  Uiso   1.00
C1162  C     0.12898   0.49030   0.59011   0.00000  Uiso   1.00
C1163  C     0.17027   0.49819   0.88455   0.00000  Uiso   1.00
C1164  C     0.24634   0.49940   0.74550   0.00000  Uiso   1.00
C1165  C     0.16520   0.49901   0.61568   0.00000  Uiso   1.00
C1166  C     0.13591   0.48213   0.90431   0.00000  Uiso   1.00
C1167  C     0.20308   0.50151   0.59651   0.00000  Uiso   1.00
C1168  C     0.13520   0.47736   0.95071   0.00000  Uiso   1.00
C1169  C     0.20605   0.49658   0.55029   0.00000  Uiso   1.00
C1170  C     0.17112   0.48734   0.97704   0.00000  Uiso   1.00
C1171  C     0.16991   0.48720   0.52388   0.00000  Uiso   1.00
C1172  C     0.20832   0.49730   0.95643   0.00000  Uiso   1.00
C1173  C     0.13220   0.47912   0.54431   0.00000  Uiso   1.00
C1174  C     0.10037   0.46033   0.97106   0.00000  Uiso   1.00
C1175  C     0.09935   0.45979   0.51840   0.00000  Uiso   1.00
C1176  C     0.24448   0.49896   0.53019   0.00000  Uiso   1.00
C1177  C     0.24271   0.52535   0.88723   0.00000  Uiso   1.00
C1178  C     0.08818   0.50029   0.60927   0.00000  Uiso   1.00
C1179  C     0.06664   0.44025   0.94304   0.00000  Uiso   1.00
C1180  C     0.28346   0.50211   0.55835   0.00000  Uiso   1.00
C1181  C     0.06670   0.43481   0.54071   0.00000  Uiso   1.00
C1182  C     0.28408   0.48049   0.96234   0.00000  Uiso   1.00
C1183  C     0.04334   0.42294   0.78675   0.00000  Uiso   1.00
C1184  C     0.28724   0.57862   0.71296   0.00000  Uiso   1.00
C1185  C     0.29552   0.41391   0.73942   0.00000  Uiso   1.00
C1186  C     0.24567   0.49618   0.98301   0.00000  Uiso   1.00
C1187  C     0.03746   0.58726   0.74365   0.00000  Uiso   1.00
C1188  C     0.21054   0.38152   0.81957   0.00000  Uiso   1.00
C1189  C     0.12434   0.61905   0.67900   0.00000  Uiso   1.00
C1190  C     0.12216   0.38319   0.68115   0.00000  Uiso   1.00
C1191  C     0.21015   0.61650   0.81941   0.00000  Uiso   1.00
C1192  C     0.02180   0.46134   0.76275   0.00000  Uiso   1.00
C1193  C     0.31048   0.53905   0.73248   0.00000  Uiso   1.00
C1194  C     0.31371   0.45835   0.74903   0.00000  Uiso   1.00
C1195  C     0.01909   0.54197   0.74350   0.00000  Uiso   1.00
C1196  C     0.29071   0.49830   0.73963   0.00000  Uiso   1.00
H1197  H     0.10961   0.47420   0.88245   0.00000  Uiso   1.00
H1198  H     0.26332   0.64037   0.72347   0.00000  Uiso   1.00
H1199  H     0.26292   0.37648   0.69428   0.00000  Uiso   1.00
H1200  H     0.04557   0.64488   0.70988   0.00000  Uiso   1.00
H1201  H     0.22967   0.40897   0.81086   0.00000  Uiso   1.00
H1202  H     0.10797   0.58895   0.68586   0.00000  Uiso   1.00
H1203  H     0.13666   0.39243   0.65047   0.00000  Uiso   1.00
H1204  H     0.23647   0.59563   0.81110   0.00000  Uiso   1.00
H1205  H     0.22998   0.50801   0.61825   0.00000  Uiso   1.00
H1206  H     0.28688   0.57179   0.88897   0.00000  Uiso   1.00
H1207  H     0.04967   0.49146   0.65943   0.00000  Uiso   1.00
H1208  H     0.03619   0.38430   0.92511   0.00000  Uiso   1.00
H1209  H     0.27650   0.44220   0.58843   0.00000  Uiso   1.00
H1210  H     0.05300   0.39092   0.58914   0.00000  Uiso   1.00
H1211  H     0.30949   0.43532   0.92016   0.00000  Uiso   1.00
H1212  H     0.06235   0.35807   0.78607   0.00000  Uiso   1.00
N1213  N     0.16667   0.61907   0.75000   0.00000  Uiso   1.00
N1214  N     0.16667   0.38093   0.75000   0.00000  Uiso   1.00
O1215  O     0.10559   0.53821   0.74999   0.00000  Uiso   1.00
O1216  O     0.26306   0.56173   0.90703   0.00000  Uiso   1.00
O1217  O     0.06268   0.52374   0.58799   0.00000  Uiso   1.00
O1218  O     0.07880   0.48313   0.65112   0.00000  Uiso   1.00
O1219  O     0.04579   0.46376   0.91662   0.00000  Uiso   1.00
O1220  O     0.05922   0.39439   0.94667   0.00000  Uiso   1.00
O1221  O     0.30489   0.53489   0.55485   0.00000  Uiso   1.00
O1222  O     0.29580   0.46842   0.58921   0.00000  Uiso   1.00
O1223  O     0.03054   0.43946   0.52796   0.00000  Uiso   1.00
O1224  O     0.07770   0.40580   0.57648   0.00000  Uiso   1.00
O1225  O     0.31620   0.50046   0.96890   0.00000  Uiso   1.00
O1226  O     0.22774   0.46179   0.75000   0.00000  Uiso   1.00
O1227  O     0.28249   0.44280   0.93424   0.00000  Uiso   1.00
O1228  O     0.06025   0.42908   0.82376   0.00000  Uiso   1.00
O1229  O     0.04567   0.38058   0.76670   0.00000  Uiso   1.00
O1230  O     0.27000   0.57593   0.67562   0.00000  Uiso   1.00
O1231  O     0.28337   0.61783   0.73838   0.00000  Uiso   1.00
O1232  O     0.29627   0.38456   0.76819   0.00000  Uiso   1.00
O1233  O     0.27619   0.40676   0.69708   0.00000  Uiso   1.00
O1234  O     0.05446   0.60159   0.77814   0.00000  Uiso   1.00
O1235  O     0.03349   0.61414   0.70505   0.00000  Uiso   1.00
O1236  O     0.20764   0.37265   0.85934   0.00000  Uiso   1.00
O1237  O     0.22774   0.53821   0.75000   0.00000  Uiso   1.00
O1238  O     0.12471   0.63210   0.64009   0.00000  Uiso   1.00
O1239  O     0.08561   0.39175   0.68513   0.00000  Uiso   1.00
O1240  O     0.19929   0.61760   0.85816   0.00000  Uiso   1.00
O1241  O     0.10559   0.46179   0.74999   0.00000  Uiso   1.00
O1242  O     0.16666   0.53823   0.68392   0.00000  Uiso   1.00
O1243  O     0.16667   0.46177   0.81607   0.00000  Uiso   1.00
O1244  O     0.16667   0.53823   0.81607   0.00000  Uiso   1.00
O1245  O     0.16666   0.46177   0.68392   0.00000  Uiso   1.00
O1246  O     0.25452   0.50928   0.85208   0.00000  Uiso   1.00
Zn1247 Zn    0.16667   0.55104   0.75000   0.00000  Uiso   1.00
Zn1248 Zn    0.16667   0.44896   0.75000   0.00000  Uiso   1.00
C1249  C     0.42005   0.50072   0.75336   0.00000  Uiso   1.00
C1250  C     0.37527   0.50224   0.75606   0.00000  Uiso   1.00
C1251  C     0.52038   0.35690   0.78399   0.00000  Uiso   1.00
C1252  C     0.47967   0.64323   0.71600   0.00000  Uiso   1.00
C1253  C     0.47931   0.35792   0.71643   0.00000  Uiso   1.00
C1254  C     0.52020   0.64212   0.78398   0.00000  Uiso   1.00
C1255  C     0.49875   0.49998   0.66356   0.00000  Uiso   1.00
C1256  C     0.50145   0.49984   0.83648   0.00000  Uiso   1.00
C1257  C     0.54040   0.50595   0.90958   0.00000  Uiso   1.00
C1258  C     0.46231   0.49030   0.59011   0.00000  Uiso   1.00
C1259  C     0.50360   0.49819   0.88455   0.00000  Uiso   1.00
C1260  C     0.57967   0.49940   0.74550   0.00000  Uiso   1.00
C1261  C     0.49853   0.49901   0.61568   0.00000  Uiso   1.00
C1262  C     0.46925   0.48213   0.90431   0.00000  Uiso   1.00
C1263  C     0.53641   0.50151   0.59651   0.00000  Uiso   1.00
C1264  C     0.46853   0.47736   0.95071   0.00000  Uiso   1.00
C1265  C     0.53939   0.49658   0.55029   0.00000  Uiso   1.00
C1266  C     0.50445   0.48734   0.97704   0.00000  Uiso   1.00
C1267  C     0.50325   0.48720   0.52388   0.00000  Uiso   1.00
C1268  C     0.54165   0.49730   0.95643   0.00000  Uiso   1.00
C1269  C     0.46553   0.47912   0.54431   0.00000  Uiso   1.00
C1270  C     0.43371   0.46033   0.97106   0.00000  Uiso   1.00
C1271  C     0.43268   0.45979   0.51840   0.00000  Uiso   1.00
C1272  C     0.57781   0.49896   0.53019   0.00000  Uiso   1.00
C1273  C     0.57604   0.52535   0.88723   0.00000  Uiso   1.00
C1274  C     0.42151   0.50029   0.60927   0.00000  Uiso   1.00
C1275  C     0.39997   0.44025   0.94304   0.00000  Uiso   1.00
C1276  C     0.61679   0.50211   0.55835   0.00000  Uiso   1.00
C1277  C     0.40003   0.43481   0.54071   0.00000  Uiso   1.00
C1278  C     0.61741   0.48049   0.96234   0.00000  Uiso   1.00
C1279  C     0.37668   0.42294   0.78675   0.00000  Uiso   1.00
C1280  C     0.62057   0.57862   0.71296   0.00000  Uiso   1.00
C1281  C     0.62885   0.41391   0.73942   0.00000  Uiso   1.00
C1282  C     0.57900   0.49618   0.98301   0.00000  Uiso   1.00
C1283  C     0.37079   0.58726   0.74365   0.00000  Uiso   1.00
C1284  C     0.54387   0.38152   0.81957   0.00000  Uiso   1.00
C1285  C     0.45767   0.61905   0.67900   0.00000  Uiso   1.00
C1286  C     0.45550   0.38319   0.68115   0.00000  Uiso   1.00
C1287  C     0.54349   0.61650   0.81941   0.00000  Uiso   1.00
C1288  C     0.35513   0.46134   0.76275   0.00000  Uiso   1.00
C1289  C     0.64382   0.53905   0.73248   0.00000  Uiso   1.00
C1290  C     0.64705   0.45835   0.74903   0.00000  Uiso   1.00
C1291  C     0.35243   0.54197   0.74350   0.00000  Uiso   1.00
C1292  C     0.62404   0.49830   0.73963   0.00000  Uiso   1.00
H1293  H     0.44294   0.47420   0.88245   0.00000  Uiso   1.00
H1294  H     0.59666   0.64037   0.72347   0.00000  Uiso   1.00
H1295  H     0.59625   0.37648   0.69428   0.00000  Uiso   1.00
H1296  H     0.37890   0.64488   0.70988   0.00000  Uiso   1.00
H1297  H     0.56300   0.40897   0.81086   0.00000  Uiso   1.00
H1298  H     0.44131   0.58895   0.68586   0.00000  Uiso   1.00
H1299  H     0.46999   0.39243   0.65047   0.00000  Uiso   1.00
H1300  H     0.56981   0.59563   0.81110   0.00000  Uiso   1.00
H1301  H     0.56331   0.50801   0.61825   0.00000  Uiso   1.00
H1302  H     0.62022   0.57179   0.88897   0.00000  Uiso   1.00
H1303  H     0.38300   0.49146   0.65943   0.00000  Uiso   1.00
H1304  H     0.36952   0.38430   0.92511   0.00000  Uiso   1.00
H1305  H     0.60983   0.44220   0.58843   0.00000  Uiso   1.00
H1306  H     0.38634   0.39092   0.58914   0.00000  Uiso   1.00
H1307  H     0.64282   0.43532   0.92016   0.00000  Uiso   1.00
H1308  H     0.39568   0.35807   0.78607   0.00000  Uiso   1.00
N1309  N     0.50000   0.61907   0.75000   0.00000  Uiso   1.00
N1310  N     0.50000   0.38093   0.75000   0.00000  Uiso   1.00
O1311  O     0.43892   0.53821   0.74999   0.00000  Uiso   1.00
O1312  O     0.59639   0.56173   0.90703   0.00000  Uiso   1.00
O1313  O     0.39601   0.52374   0.58799   0.00000  Uiso   1.00
O1314  O     0.41213   0.48313   0.65112   0.00000  Uiso   1.00
O1315  O     0.37913   0.46376   0.91662   0.00000  Uiso   1.00
O1316  O     0.39256   0.39439   0.94667   0.00000  Uiso   1.00
O1317  O     0.63822   0.53489   0.55485   0.00000  Uiso   1.00
O1318  O     0.62913   0.46842   0.58921   0.00000  Uiso   1.00
O1319  O     0.36387   0.43946   0.52796   0.00000  Uiso   1.00
O1320  O     0.41103   0.40580   0.57648   0.00000  Uiso   1.00
O1321  O     0.64953   0.50046   0.96890   0.00000  Uiso   1.00
O1322  O     0.56108   0.46179   0.75000   0.00000  Uiso   1.00
O1323  O     0.61582   0.44280   0.93424   0.00000  Uiso   1.00
O1324  O     0.39358   0.42908   0.82376   0.00000  Uiso   1.00
O1325  O     0.37900   0.38058   0.76670   0.00000  Uiso   1.00
O1326  O     0.60333   0.57593   0.67562   0.00000  Uiso   1.00
O1327  O     0.61670   0.61783   0.73838   0.00000  Uiso   1.00
O1328  O     0.62960   0.38456   0.76819   0.00000  Uiso   1.00
O1329  O     0.60952   0.40676   0.69708   0.00000  Uiso   1.00
O1330  O     0.38779   0.60159   0.77814   0.00000  Uiso   1.00
O1331  O     0.36682   0.61414   0.70505   0.00000  Uiso   1.00
O1332  O     0.54097   0.37265   0.85934   0.00000  Uiso   1.00
O1333  O     0.56108   0.53821   0.75000   0.00000  Uiso   1.00
O1334  O     0.45804   0.63210   0.64009   0.00000  Uiso   1.00
O1335  O     0.41895   0.39175   0.68513   0.00000  Uiso   1.00
O1336  O     0.53262   0.61760   0.85816   0.00000  Uiso   1.00
O1337  O     0.43892   0.46179   0.74999   0.00000  Uiso   1.00
O1338  O     0.49999   0.53823   0.68392   0.00000  Uiso   1.00
O1339  O     0.50001   0.46177   0.81607   0.00000  Uiso   1.00
O1340  O     0.50001   0.53823   0.81607   0.00000  Uiso   1.00
O1341  O     0.49999   0.46177   0.68392   0.00000  Uiso   1.00
O1342  O     0.58786   0.50928   0.85208   0.00000  Uiso   1.00
Zn1343 Zn    0.50000   0.55104   0.75000   0.00000  Uiso   1.00
Zn1344 Zn    0.50000   0.44896   0.75000   0.00000  Uiso   1.00
C1345  C     0.75338   0.50072   0.75336   0.00000  Uiso   1.00
C1346  C     0.70860   0.50224   0.75606   0.00000  Uiso   1.00
C1347  C     0.85372   0.35690   0.78399   0.00000  Uiso   1.00
C1348  C     0.81300   0.64323   0.71600   0.00000  Uiso   1.00
C1349  C     0.81265   0.35792   0.71643   0.00000  Uiso   1.00
C1350  C     0.85353   0.64212   0.78398   0.00000  Uiso   1.00
C1351  C     0.83209   0.49998   0.66356   0.00000  Uiso   1.00
C1352  C     0.83479   0.49984   0.83648   0.00000  Uiso   1.00
C1353  C     0.87373   0.50595   0.90958   0.00000  Uiso   1.00
C1354  C     0.79564   0.49030   0.59011   0.00000  Uiso   1.00
C1355  C     0.83693   0.49819   0.88455   0.00000  Uiso   1.00
C1356  C     0.91300   0.49940   0.74550   0.00000  Uiso   1.00
C1357  C     0.83187   0.49901   0.61568   0.00000  Uiso   1.00
C1358  C     0.80258   0.48213   0.90431   0.00000  Uiso   1.00
C1359  C     0.86974   0.50151   0.59651   0.00000  Uiso   1.00
C1360  C     0.80186   0.47736   0.95071   0.00000  Uiso   1.00
C1361  C     0.87272   0.49658   0.55029   0.00000  Uiso   1.00
C1362  C     0.83779   0.48734   0.97704   0.00000  Uiso   1.00
C1363  C     0.83658   0.48720   0.52388   0.00000  Uiso   1.00
C1364  C     0.87498   0.49730   0.95643   0.00000  Uiso   1.00
C1365  C     0.79886   0.47912   0.54431   0.00000  Uiso   1.00
C1366  C     0.76704   0.46033   0.97106   0.00000  Uiso   1.00
C1367  C     0.76601   0.45979   0.51840   0.00000  Uiso   1.00
C1368  C     0.91114   0.49896   0.53019   0.00000  Uiso   1.00
C1369  C     0.90938   0.52535   0.88723   0.00000  Uiso   1.00
C1370  C     0.75484   0.50029   0.60927   0.00000  Uiso   1.00
C1371  C     0.73330   0.44025   0.94304   0.00000  Uiso   1.00
C1372  C     0.95013   0.50211   0.55835   0.00000  Uiso   1.00
C1373  C     0.73337   0.43481   0.54071   0.00000  Uiso   1.00
C1374  C     0.95074   0.48049   0.96234   0.00000  Uiso   1.00
C1375  C     0.71001   0.42294   0.78675   0.00000  Uiso   1.00
C1376  C     0.95390   0.57862   0.71296   0.00000  Uiso   1.00
C1377  C     0.96219   0.41391   0.73942   0.00000  Uiso   1.00
C1378  C     0.91233   0.49618   0.98301   0.00000  Uiso   1.00
C1379  C     0.70412   0.58726   0.74365   0.00000  Uiso   1.00
C1380  C     0.87721   0.38152   0.81957   0.00000  Uiso   1.00
C1381  C     0.79100   0.61905   0.67900   0.00000  Uiso   1.00
C1382  C     0.78883   0.38319   0.68115   0.00000  Uiso   1.00
C1383  C     0.87682   0.61650   0.81941   0.00000  Uiso   1.00
C1384  C     0.68846   0.46134   0.76275   0.00000  Uiso   1.00
C1385  C     0.97715   0.53905   0.73248   0.00000  Uiso   1.00
C1386  C     0.98038   0.45835   0.74903   0.00000  Uiso   1.00
C1387  C     0.68576   0.54197   0.74350   0.00000  Uiso   1.00
C1388  C     0.95737   0.49830   0.73963   0.00000  Uiso   1.00
H1389  H     0.77628   0.47420   0.88245   0.00000  Uiso   1.00
H1390  H     0.92999   0.64037   0.72347   0.00000  Uiso   1.00
H1391  H     0.92958   0.37648   0.69428   0.00000  Uiso   1.00
H1392  H     0.71224   0.64488   0.70988   0.00000  Uiso   1.00
H1393  H     0.89634   0.40897   0.81086   0.00000  Uiso   1.00
H1394  H     0.77464   0.58895   0.68586   0.00000  Uiso   1.00
H1395  H     0.80333   0.39243   0.65047   0.00000  Uiso   1.00
H1396  H     0.90314   0.59563   0.81110   0.00000  Uiso   1.00
H1397  H     0.89665   0.50801   0.61825   0.00000  Uiso   1.00
H1398  H     0.95355   0.57179   0.88897   0.00000  Uiso   1.00
H1399  H     0.71634   0.49146   0.65943   0.00000  Uiso   1.00
H1400  H     0.70286   0.38430   0.92511   0.00000  Uiso   1.00
H1401  H     0.94317   0.44220   0.58843   0.00000  Uiso   1.00
H1402  H     0.71967   0.39092   0.58914   0.00000  Uiso   1.00
H1403  H     0.97616   0.43532   0.92016   0.00000  Uiso   1.00
H1404  H     0.72902   0.35807   0.78607   0.00000  Uiso   1.00
N1405  N     0.83333   0.61907   0.75000   0.00000  Uiso   1.00
N1406  N     0.83333   0.38093   0.75000   0.00000  Uiso   1.00
O1407  O     0.77226   0.53821   0.74999   0.00000  Uiso   1.00
O1408  O     0.92972   0.56173   0.90703   0.00000  Uiso   1.00
O1409  O     0.72934   0.52374   0.58799   0.00000  Uiso   1.00
O1410  O     0.74547   0.48313   0.65112   0.00000  Uiso   1.00
O1411  O     0.71246   0.46376   0.91662   0.00000  Uiso   1.00
O1412  O     0.72589   0.39439   0.94667   0.00000  Uiso   1.00
O1413  O     0.97155   0.53489   0.55485   0.00000  Uiso   1.00
O1414  O     0.96246   0.46842   0.58921   0.00000  Uiso   1.00
O1415  O     0.69720   0.43946   0.52796   0.00000  Uiso   1.00
O1416  O     0.74436   0.40580   0.57648   0.00000  Uiso   1.00
O1417  O     0.98286   0.50046   0.96890   0.00000  Uiso   1.00
O1418  O     0.89441   0.46179   0.75000   0.00000  Uiso   1.00
O1419  O     0.94915   0.44280   0.93424   0.00000  Uiso   1.00
O1420  O     0.72692   0.42908   0.82376   0.00000  Uiso   1.00
O1421  O     0.71234   0.38058   0.76670   0.00000  Uiso   1.00
O1422  O     0.93666   0.57593   0.67562   0.00000  Uiso   1.00
O1423  O     0.95004   0.61783   0.73838   0.00000  Uiso   1.00
O1424  O     0.96294   0.38456   0.76819   0.00000  Uiso   1.00
O1425  O     0.94285   0.40676   0.69708   0.00000  Uiso   1.00
O1426  O     0.72112   0.60159   0.77814   0.00000  Uiso   1.00
O1427  O     0.70016   0.61414   0.70505   0.00000  Uiso   1.00
O1428  O     0.87431   0.37265   0.85934   0.00000  Uiso   1.00
O1429  O     0.89441   0.53821   0.75000   0.00000  Uiso   1.00
O1430  O     0.79137   0.63210   0.64009   0.00000  Uiso   1.00
O1431  O     0.75228   0.39175   0.68513   0.00000  Uiso   1.00
O1432  O     0.86595   0.61760   0.85816   0.00000  Uiso   1.00
O1433  O     0.77226   0.46179   0.74999   0.00000  Uiso   1.00
O1434  O     0.83333   0.53823   0.68392   0.00000  Uiso   1.00
O1435  O     0.83334   0.46177   0.81607   0.00000  Uiso   1.00
O1436  O     0.83334   0.53823   0.81607   0.00000  Uiso   1.00
O1437  O     0.83333   0.46177   0.68392   0.00000  Uiso   1.00
O1438  O     0.92119   0.50928   0.85208   0.00000  Uiso   1.00
Zn1439 Zn    0.83333   0.55104   0.75000   0.00000  Uiso   1.00
Zn1440 Zn    0.83333   0.44896   0.75000   0.00000  Uiso   1.00
C1441  C     0.08672   0.83406   0.75336   0.00000  Uiso   1.00
C1442  C     0.04193   0.83557   0.75606   0.00000  Uiso   1.00
C1443  C     0.18705   0.69023   0.78399   0.00000  Uiso   1.00
C1444  C     0.14633   0.97656   0.71600   0.00000  Uiso   1.00
C1445  C     0.14598   0.69126   0.71643   0.00000  Uiso   1.00
C1446  C     0.18686   0.97546   0.78398   0.00000  Uiso   1.00
C1447  C     0.16542   0.83332   0.66356   0.00000  Uiso   1.00
C1448  C     0.16812   0.83318   0.83648   0.00000  Uiso   1.00
C1449  C     0.20707   0.83928   0.90958   0.00000  Uiso   1.00
C1450  C     0.12898   0.82364   0.59011   0.00000  Uiso   1.00
C1451  C     0.17027   0.83152   0.88455   0.00000  Uiso   1.00
C1452  C     0.24634   0.83273   0.74550   0.00000  Uiso   1.00
C1453  C     0.16520   0.83234   0.61568   0.00000  Uiso   1.00
C1454  C     0.13591   0.81547   0.90431   0.00000  Uiso   1.00
C1455  C     0.20308   0.83484   0.59651   0.00000  Uiso   1.00
C1456  C     0.13520   0.81069   0.95071   0.00000  Uiso   1.00
C1457  C     0.20605   0.82991   0.55029   0.00000  Uiso   1.00
C1458  C     0.17112   0.82068   0.97704   0.00000  Uiso   1.00
C1459  C     0.16991   0.82053   0.52388   0.00000  Uiso   1.00
C1460  C     0.20832   0.83064   0.95643   0.00000  Uiso   1.00
C1461  C     0.13220   0.81245   0.54431   0.00000  Uiso   1.00
C1462  C     0.10037   0.79367   0.97106   0.00000  Uiso   1.00
C1463  C     0.09935   0.79312   0.51840   0.00000  Uiso   1.00
C1464  C     0.24448   0.83229   0.53019   0.00000  Uiso   1.00
C1465  C     0.24271   0.85868   0.88723   0.00000  Uiso   1.00
C1466  C     0.08818   0.83363   0.60927   0.00000  Uiso   1.00
C1467  C     0.06664   0.77359   0.94304   0.00000  Uiso   1.00
C1468  C     0.28346   0.83545   0.55835   0.00000  Uiso   1.00
C1469  C     0.06670   0.76814   0.54071   0.00000  Uiso   1.00
C1470  C     0.28408   0.81383   0.96234   0.00000  Uiso   1.00
C1471  C     0.04334   0.75627   0.78675   0.00000  Uiso   1.00
C1472  C     0.28724   0.91196   0.71296   0.00000  Uiso   1.00
C1473  C     0.29552   0.74724   0.73942   0.00000  Uiso   1.00
C1474  C     0.24567   0.82951   0.98301   0.00000  Uiso   1.00
C1475  C     0.03746   0.92060   0.74365   0.00000  Uiso   1.00
C1476  C     0.21054   0.71485   0.81957   0.00000  Uiso   1.00
C1477  C     0.12434   0.95239   0.67900   0.00000  Uiso   1.00
C1478  C     0.12216   0.71652   0.68115   0.00000  Uiso   1.00
C1479  C     0.21015   0.94984   0.81941   0.00000  Uiso   1.00
C1480  C     0.02180   0.79467   0.76275   0.00000  Uiso   1.00
C1481  C     0.31048   0.87239   0.73248   0.00000  Uiso   1.00
C1482  C     0.31371   0.79168   0.74903   0.00000  Uiso   1.00
C1483  C     0.01909   0.87530   0.74350   0.00000  Uiso   1.00
C1484  C     0.29071   0.83163   0.73963   0.00000  Uiso   1.00
H1485  H     0.10961   0.80753   0.88245   0.00000  Uiso   1.00
H1486  H     0.26332   0.97370   0.72347   0.00000  Uiso   1.00
H1487  H     0.26292   0.70981   0.69428   0.00000  Uiso   1.00
H1488  H     0.04557   0.97821   0.70988   0.00000  Uiso   1.00
H1489  H     0.22967   0.74230   0.81086   0.00000  Uiso   1.00
H1490  H     0.10797   0.92228   0.68586   0.00000  Uiso   1.00
H1491  H     0.13666   0.72576   0.65047   0.00000  Uiso   1.00
H1492  H     0.23647   0.92896   0.81110   0.00000  Uiso   1.00
H1493  H     0.22998   0.84135   0.61825   0.00000  Uiso   1.00
H1494  H     0.28688   0.90513   0.88897   0.00000  Uiso   1.00
H1495  H     0.04967   0.82479   0.65943   0.00000  Uiso   1.00
H1496  H     0.03619   0.71763   0.92511   0.00000  Uiso   1.00
H1497  H     0.27650   0.77553   0.58843   0.00000  Uiso   1.00
H1498  H     0.05300   0.72426   0.58914   0.00000  Uiso   1.00
H1499  H     0.30949   0.76865   0.92016   0.00000  Uiso   1.00
H1500  H     0.06235   0.69141   0.78607   0.00000  Uiso   1.00
N1501  N     0.16667   0.95240   0.75000   0.00000  Uiso   1.00
N1502  N     0.16667   0.71427   0.75000   0.00000  Uiso   1.00
O1503  O     0.10559   0.87154   0.74999   0.00000  Uiso   1.00
O1504  O     0.26306   0.89506   0.90703   0.00000  Uiso   1.00
O1505  O     0.06268   0.85707   0.58799   0.00000  Uiso   1.00
O1506  O     0.07880   0.81646   0.65112   0.00000  Uiso   1.00
O1507  O     0.04579   0.79710   0.91662   0.00000  Uiso   1.00
O1508  O     0.05922   0.72772   0.94667   0.00000  Uiso   1.00
O1509  O     0.30489   0.86822   0.55485   0.00000  Uiso   1.00
O1510  O     0.29580   0.80176   0.58921   0.00000  Uiso   1.00
O1511  O     0.03054   0.77280   0.52796   0.00000  Uiso   1.00
O1512  O     0.07770   0.73913   0.57648   0.00000  Uiso   1.00
O1513  O     0.31620   0.83379   0.96890   0.00000  Uiso   1.00
O1514  O     0.22774   0.79513   0.75000   0.00000  Uiso   1.00
O1515  O     0.28249   0.77614   0.93424   0.00000  Uiso   1.00
O1516  O     0.06025   0.76242   0.82376   0.00000  Uiso   1.00
O1517  O     0.04567   0.71391   0.76670   0.00000  Uiso   1.00
O1518  O     0.27000   0.90926   0.67562   0.00000  Uiso   1.00
O1519  O     0.28337   0.95116   0.73838   0.00000  Uiso   1.00
O1520  O     0.29627   0.71789   0.76819   0.00000  Uiso   1.00
O1521  O     0.27619   0.74009   0.69708   0.00000  Uiso   1.00
O1522  O     0.05446   0.93492   0.77814   0.00000  Uiso   1.00
O1523  O     0.03349   0.94747   0.70505   0.00000  Uiso   1.00
O1524  O     0.20764   0.70598   0.85934   0.00000  Uiso   1.00
O1525  O     0.22774   0.87154   0.75000   0.00000  Uiso   1.00
O1526  O     0.12471   0.96544   0.64009   0.00000  Uiso   1.00
O1527  O     0.08561   0.72509   0.68513   0.00000  Uiso   1.00
O1528  O     0.19929   0.95094   0.85816   0.00000  Uiso   1.00
O1529  O     0.10559   0.79513   0.74999   0.00000  Uiso   1.00
O1530  O     0.16666   0.87156   0.68392   0.00000  Uiso   1.00
O1531  O     0.16667   0.79511   0.81607   0.00000  Uiso   1.00
O1532  O     0.16667   0.87156   0.81607   0.00000  Uiso   1.00
O1533  O     0.16666   0.79511   0.68392   0.00000  Uiso   1.00
O1534  O     0.25452   0.84261   0.85208   0.00000  Uiso   1.00
Zn1535 Zn    0.16667   0.88437   0.75000   0.00000  Uiso   1.00
Zn1536 Zn    0.16667   0.78229   0.75000   0.00000  Uiso   1.00
C1537  C     0.42005   0.83406   0.75336   0.00000  Uiso   1.00
C1538  C     0.37527   0.83557   0.75606   0.00000  Uiso   1.00
C1539  C     0.52038   0.69023   0.78399   0.00000  Uiso   1.00
C1540  C     0.47967   0.97656   0.71600   0.00000  Uiso   1.00
C1541  C     0.47931   0.69126   0.71643   0.00000  Uiso   1.00
C1542  C     0.52020   0.97546   0.78398   0.00000  Uiso   1.00
C1543  C     0.49875   0.83332   0.66356   0.00000  Uiso   1.00
C1544  C     0.50145   0.83318   0.83648   0.00000  Uiso   1.00
C1545  C     0.54040   0.83928   0.90958   0.00000  Uiso   1.00
C1546  C     0.46231   0.82364   0.59011   0.00000  Uiso   1.00
C1547  C     0.50360   0.83152   0.88455   0.00000  Uiso   1.00
C1548  C     0.57967   0.83273   0.74550   0.00000  Uiso   1.00
C1549  C     0.49853   0.83234   0.61568   0.00000  Uiso   1.00
C1550  C     0.46925   0.81547   0.90431   0.00000  Uiso   1.00
C1551  C     0.53641   0.83484   0.59651   0.00000  Uiso   1.00
C1552  C     0.46853   0.81069   0.95071   0.00000  Uiso   1.00
C1553  C     0.53939   0.82991   0.55029   0.00000  Uiso   1.00
C1554  C     0.50445   0.82068   0.97704   0.00000  Uiso   1.00
C1555  C     0.50325   0.82053   0.52388   0.00000  Uiso   1.00
C1556  C     0.54165   0.83064   0.95643   0.00000  Uiso   1.00
C1557  C     0.46553   0.81245   0.54431   0.00000  Uiso   1.00
C1558  C     0.43371   0.79367   0.97106   0.00000  Uiso   1.00
C1559  C     0.43268   0.79312   0.51840   0.00000  Uiso   1.00
C1560  C     0.57781   0.83229   0.53019   0.00000  Uiso   1.00
C1561  C     0.57604   0.85868   0.88723   0.00000  Uiso   1.00
C1562  C     0.42151   0.83363   0.60927   0.00000  Uiso   1.00
C1563  C     0.39997   0.77359   0.94304   0.00000  Uiso   1.00
C1564  C     0.61679   0.83545   0.55835   0.00000  Uiso   1.00
C1565  C     0.40003   0.76814   0.54071   0.00000  Uiso   1.00
C1566  C     0.61741   0.81383   0.96234   0.00000  Uiso   1.00
C1567  C     0.37668   0.75627   0.78675   0.00000  Uiso   1.00
C1568  C     0.62057   0.91196   0.71296   0.00000  Uiso   1.00
C1569  C     0.62885   0.74724   0.73942   0.00000  Uiso   1.00
C1570  C     0.57900   0.82951   0.98301   0.00000  Uiso   1.00
C1571  C     0.37079   0.92060   0.74365   0.00000  Uiso   1.00
C1572  C     0.54387   0.71485   0.81957   0.00000  Uiso   1.00
C1573  C     0.45767   0.95239   0.67900   0.00000  Uiso   1.00
C1574  C     0.45550   0.71652   0.68115   0.00000  Uiso   1.00
C1575  C     0.54349   0.94984   0.81941   0.00000  Uiso   1.00
C1576  C     0.35513   0.79467   0.76275   0.00000  Uiso   1.00
C1577  C     0.64382   0.87239   0.73248   0.00000  Uiso   1.00
C1578  C     0.64705   0.79168   0.74903   0.00000  Uiso   1.00
C1579  C     0.35243   0.87530   0.74350   0.00000  Uiso   1.00
C1580  C     0.62404   0.83163   0.73963   0.00000  Uiso   1.00
H1581  H     0.44294   0.80753   0.88245   0.00000  Uiso   1.00
H1582  H     0.59666   0.97370   0.72347   0.00000  Uiso   1.00
H1583  H     0.59625   0.70981   0.69428   0.00000  Uiso   1.00
H1584  H     0.37890   0.97821   0.70988   0.00000  Uiso   1.00
H1585  H     0.56300   0.74230   0.81086   0.00000  Uiso   1.00
H1586  H     0.44131   0.92228   0.68586   0.00000  Uiso   1.00
H1587  H     0.46999   0.72576   0.65047   0.00000  Uiso   1.00
H1588  H     0.56981   0.92896   0.81110   0.00000  Uiso   1.00
H1589  H     0.56331   0.84135   0.61825   0.00000  Uiso   1.00
H1590  H     0.62022   0.90513   0.88897   0.00000  Uiso   1.00
H1591  H     0.38300   0.82479   0.65943   0.00000  Uiso   1.00
H1592  H     0.36952   0.71763   0.92511   0.00000  Uiso   1.00
H1593  H     0.60983   0.77553   0.58843   0.00000  Uiso   1.00
H1594  H     0.38634   0.72426   0.58914   0.00000  Uiso   1.00
H1595  H     0.64282   0.76865   0.92016   0.00000  Uiso   1.00
H1596  H     0.39568   0.69141   0.78607   0.00000  Uiso   1.00
N1597  N     0.50000   0.95240   0.75000   0.00000  Uiso   1.00
N1598  N     0.50000   0.71427   0.75000   0.00000  Uiso   1.00
O1599  O     0.43892   0.87154   0.74999   0.00000  Uiso   1.00
O1600  O     0.59639   0.89506   0.90703   0.00000  Uiso   1.00
O1601  O     0.39601   0.85707   0.58799   0.00000  Uiso   1.00
O1602  O     0.41213   0.81646   0.65112   0.00000  Uiso   1.00
O1603  O     0.37913   0.79710   0.91662   0.00000  Uiso   1.00
O1604  O     0.39256   0.72772   0.94667   0.00000  Uiso   1.00
O1605  O     0.63822   0.86822   0.55485   0.00000  Uiso   1.00
O1606  O     0.62913   0.80176   0.58921   0.00000  Uiso   1.00
O1607  O     0.36387   0.77280   0.52796   0.00000  Uiso   1.00
O1608  O     0.41103   0.73913   0.57648   0.00000  Uiso   1.00
O1609  O     0.64953   0.83379   0.96890   0.00000  Uiso   1.00
O1610  O     0.56108   0.79513   0.75000   0.00000  Uiso   1.00
O1611  O     0.61582   0.77614   0.93424   0.00000  Uiso   1.00
O1612  O     0.39358   0.76242   0.82376   0.00000  Uiso   1.00
O1613  O     0.37900   0.71391   0.76670   0.00000  Uiso   1.00
O1614  O     0.60333   0.90926   0.67562   0.00000  Uiso   1.00
O1615  O     0.61670   0.95116   0.73838   0.00000  Uiso   1.00
O1616  O     0.62960   0.71789   0.76819   0.00000  Uiso   1.00
O1617  O     0.60952   0.74009   0.69708   0.00000  Uiso   1.00
O1618  O     0.38779   0.93492   0.77814   0.00000  Uiso   1.00
O1619  O     0.36682   0.94747   0.70505   0.00000  Uiso   1.00
O1620  O     0.54097   0.70598   0.85934   0.00000  Uiso   1.00
O1621  O     0.56108   0.87154   0.75000   0.00000  Uiso   1.00
O1622  O     0.45804   0.96544   0.64009   0.00000  Uiso   1.00
O1623  O     0.41895   0.72509   0.68513   0.00000  Uiso   1.00
O1624  O     0.53262   0.95094   0.85816   0.00000  Uiso   1.00
O1625  O     0.43892   0.79513   0.74999   0.00000  Uiso   1.00
O1626  O     0.49999   0.87156   0.68392   0.00000  Uiso   1.00
O1627  O     0.50001   0.79511   0.81607   0.00000  Uiso   1.00
O1628  O     0.50001   0.87156   0.81607   0.00000  Uiso   1.00
O1629  O     0.49999   0.79511   0.68392   0.00000  Uiso   1.00
O1630  O     0.58786   0.84261   0.85208   0.00000  Uiso   1.00
Zn1631 Zn    0.50000   0.88437   0.75000   0.00000  Uiso   1.00
Zn1632 Zn    0.50000   0.78229   0.75000   0.00000  Uiso   1.00
C1633  C     0.75338   0.83406   0.75336   0.00000  Uiso   1.00
C1634  C     0.70860   0.83557   0.75606   0.00000  Uiso   1.00
C1635  C     0.85372   0.69023   0.78399   0.00000  Uiso   1.00
C1636  C     0.81300   0.97656   0.71600   0.00000  Uiso   1.00
C1637  C     0.81265   0.69126   0.71643   0.00000  Uiso   1.00
C1638  C     0.85353   0.97546   0.78398   0.00000  Uiso   1.00
C1639  C     0.83209   0.83332   0.66356   0.00000  Uiso   1.00
C1640  C     0.83479   0.83318   0.83648   0.00000  Uiso   1.00
C1641  C     0.87373   0.83928   0.90958   0.00000  Uiso   1.00
C1642  C     0.79564   0.82364   0.59011   0.00000  Uiso   1.00
C1643  C     0.83693   0.83152   0.88455   0.00000  Uiso   1.00
C1644  C     0.91300   0.83273   0.74550   0.00000  Uiso   1.00
C1645  C     0.83187   0.83234   0.61568   0.00000  Uiso   1.00
C1646  C     0.80258   0.81547   0.90431   0.00000  Uiso   1.00
C1647  C     0.86974   0.83484   0.59651   0.00000  Uiso   1.00
C1648  C     0.80186   0.81069   0.95071   0.00000  Uiso   1.00
C1649  C     0.87272   0.82991   0.55029   0.00000  Uiso   1.00
C1650  C     0.83779   0.82068   0.97704   0.00000  Uiso   1.00
C1651  C     0.83658   0.82053   0.52388   0.00000  Uiso   1.00
C1652  C     0.87498   0.83064   0.95643   0.00000  Uiso   1.00
C1653  C     0.79886   0.81245   0.54431   0.00000  Uiso   1.00
C1654  C     0.76704   0.79367   0.97106   0.00000  Uiso   1.00
C1655  C     0.76601   0.79312   0.51840   0.00000  Uiso   1.00
C1656  C     0.91114   0.83229   0.53019   0.00000  Uiso   1.00
C1657  C     0.90938   0.85868   0.88723   0.00000  Uiso   1.00
C1658  C     0.75484   0.83363   0.60927   0.00000  Uiso   1.00
C1659  C     0.73330   0.77359   0.94304   0.00000  Uiso   1.00
C1660  C     0.95013   0.83545   0.55835   0.00000  Uiso   1.00
C1661  C     0.73337   0.76814   0.54071   0.00000  Uiso   1.00
C1662  C     0.95074   0.81383   0.96234   0.00000  Uiso   1.00
C1663  C     0.71001   0.75627   0.78675   0.00000  Uiso   1.00
C1664  C     0.95390   0.91196   0.71296   0.00000  Uiso   1.00
C1665  C     0.96219   0.74724   0.73942   0.00000  Uiso   1.00
C1666  C     0.91233   0.82951   0.98301   0.00000  Uiso   1.00
C1667  C     0.70412   0.92060   0.74365   0.00000  Uiso   1.00
C1668  C     0.87721   0.71485   0.81957   0.00000  Uiso   1.00
C1669  C     0.79100   0.95239   0.67900   0.00000  Uiso   1.00
C1670  C     0.78883   0.71652   0.68115   0.00000  Uiso   1.00
C1671  C     0.87682   0.94984   0.81941   0.00000  Uiso   1.00
C1672  C     0.68846   0.79467   0.76275   0.00000  Uiso   1.00
C1673  C     0.97715   0.87239   0.73248   0.00000  Uiso   1.00
C1674  C     0.98038   0.79168   0.74903   0.00000  Uiso   1.00
C1675  C     0.68576   0.87530   0.74350   0.00000  Uiso   1.00
C1676  C     0.95737   0.83163   0.73963   0.00000  Uiso   1.00
H1677  H     0.77628   0.80753   0.88245   0.00000  Uiso   1.00
H1678  H     0.92999   0.97370   0.72347   0.00000  Uiso   1.00
H1679  H     0.92958   0.70981   0.69428   0.00000  Uiso   1.00
H1680  H     0.71224   0.97821   0.70988   0.00000  Uiso   1.00
H1681  H     0.89634   0.74230   0.81086   0.00000  Uiso   1.00
H1682  H     0.77464   0.92228   0.68586   0.00000  Uiso   1.00
H1683  H     0.80333   0.72576   0.65047   0.00000  Uiso   1.00
H1684  H     0.90314   0.92896   0.81110   0.00000  Uiso   1.00
H1685  H     0.89665   0.84135   0.61825   0.00000  Uiso   1.00
H1686  H     0.95355   0.90513   0.88897   0.00000  Uiso   1.00
H1687  H     0.71634   0.82479   0.65943   0.00000  Uiso   1.00
H1688  H     0.70286   0.71763   0.92511   0.00000  Uiso   1.00
H1689  H     0.94317   0.77553   0.58843   0.00000  Uiso   1.00
H1690  H     0.71967   0.72426   0.58914   0.00000  Uiso   1.00
H1691  H     0.97616   0.76865   0.92016   0.00000  Uiso   1.00
H1692  H     0.72902   0.69141   0.78607   0.00000  Uiso   1.00
N1693  N     0.83333   0.95240   0.75000   0.00000  Uiso   1.00
N1694  N     0.83333   0.71427   0.75000   0.00000  Uiso   1.00
O1695  O     0.77226   0.87154   0.74999   0.00000  Uiso   1.00
O1696  O     0.92972   0.89506   0.90703   0.00000  Uiso   1.00
O1697  O     0.72934   0.85707   0.58799   0.00000  Uiso   1.00
O1698  O     0.74547   0.81646   0.65112   0.00000  Uiso   1.00
O1699  O     0.71246   0.79710   0.91662   0.00000  Uiso   1.00
O1700  O     0.72589   0.72772   0.94667   0.00000  Uiso   1.00
O1701  O     0.97155   0.86822   0.55485   0.00000  Uiso   1.00
O1702  O     0.96246   0.80176   0.58921   0.00000  Uiso   1.00
O1703  O     0.69720   0.77280   0.52796   0.00000  Uiso   1.00
O1704  O     0.74436   0.73913   0.57648   0.00000  Uiso   1.00
O1705  O     0.98286   0.83379   0.96890   0.00000  Uiso   1.00
O1706  O     0.89441   0.79513   0.75000   0.00000  Uiso   1.00
O1707  O     0.94915   0.77614   0.93424   0.00000  Uiso   1.00
O1708  O     0.72692   0.76242   0.82376   0.00000  Uiso   1.00
O1709  O     0.71234   0.71391   0.76670   0.00000  Uiso   1.00
O1710  O     0.93666   0.90926   0.67562   0.00000  Uiso   1.00
O1711  O     0.95004   0.95116   0.73838   0.00000  Uiso   1.00
O1712  O     0.96294   0.71789   0.76819   0.00000  Uiso   1.00
O1713  O     0.94285   0.74009   0.69708   0.00000  Uiso   1.00
O1714  O     0.72112   0.93492   0.77814   0.00000  Uiso   1.00
O1715  O     0.70016   0.94747   0.70505   0.00000  Uiso   1.00
O1716  O     0.87431   0.70598   0.85934   0.00000  Uiso   1.00
O1717  O     0.89441   0.87154   0.75000   0.00000  Uiso   1.00
O1718  O     0.79137   0.96544   0.64009   0.00000  Uiso   1.00
O1719  O     0.75228   0.72509   0.68513   0.00000  Uiso   1.00
O1720  O     0.86595   0.95094   0.85816   0.00000  Uiso   1.00
O1721  O     0.77226   0.79513   0.74999   0.00000  Uiso   1.00
O1722  O     0.83333   0.87156   0.68392   0.00000  Uiso   1.00
O1723  O     0.83334   0.79511   0.81607   0.00000  Uiso   1.00
O1724  O     0.83334   0.87156   0.81607   0.00000  Uiso   1.00
O1725  O     0.83333   0.79511   0.68392   0.00000  Uiso   1.00
O1726  O     0.92119   0.84261   0.85208   0.00000  Uiso   1.00
Zn1727 Zn    0.83333   0.88437   0.75000   0.00000  Uiso   1.00
Zn1728 Zn    0.83333   0.78229   0.75000   0.00000  Uiso   1.00
loop_
_geom_bond_atom_site_label_1
_geom_bond_atom_site_label_2
_geom_bond_distance
_geom_bond_site_symmetry_2
_ccdc_geom_bond_type
C1     C2      1.460   .     S
C1     O63     1.293   .     A
C1     O89     1.304   .     A
C2     C43     1.421   .     A
C2     C40     1.416   .     A
C3     N62     1.373   .     A
C3     C36     1.480   .     S
C3     C582    1.433   1_545 S
C4     N61     1.375   .     A
C4     C37     1.480   .     S
C4     C293    1.430   .     S
C5     C38     1.470   .     S
C5     N62     1.370   .     A
C5     C580    1.430   1_545 S
C6     N61     1.372   .     A
C6     C39     1.470   .     S
C6     C291    1.433   .     S
C7     O93     1.288   .     A
C7     O90     1.290   .     A
C7     C13     1.423   .     S
C8     O92     1.293   .     A
C8     O91     1.286   .     A
C8     C11     1.428   .     S
C9     C25     1.491   .     S
C9     C20     1.415   .     A
C9     C11     1.402   .     A
C10    C26     1.490   .     S
C10    C21     1.409   .     A
C10    C13     1.400   .     A
C11    C14     1.381   .     A
C12    O74     1.296   .     A
C12    O85     1.300   .     A
C12    C44     1.459   .     S
C13    C15     1.384   .     A
C14    H45     1.080   .     S
C14    C16     1.388   .     A
C15    H53     1.084   .     S
C15    C17     1.389   .     A
C16    C22     1.413   .     A
C16    C18     1.412   .     A
C17    C24     1.412   .     A
C17    C19     1.415   .     A
C18    C20     1.418   .     A
C18    C883    1.394   .     S
C19    C21     1.418   .     A
C19    C882    1.394   1_554 S
C20    C34     1.416   .     A
C21    C23     1.420   .     A
C22    C27     1.483   .     S
C22    C887    1.409   .     S
C23    C29     1.491   .     S
C23    C886    1.409   1_554 S
C24    C28     1.490   .     S
C24    C898    1.407   1_554 S
C25    O94     1.223   .     D
C25    O64     1.398   .     S
C26    O66     1.395   .     S
C26    O65     1.223   .     D
C27    O68     1.398   .     S
C27    O67     1.222   .     D
C28    O69     1.220   .     D
C28    O70     1.398   .     S
C29    O72     1.398   .     S
C29    O71     1.222   .     D
C30    C34     1.481   .     S
C30    O73     1.222   .     D
C30    O75     1.399   .     S
C31    C40     1.490   .     S
C31    O77     1.396   .     S
C31    O76     1.222   .     D
C32    C41     1.487   .     S
C32    O79     1.396   .     S
C32    O78     1.223   .     D
C33    C42     1.485   .     S
C33    O80     1.222   .     D
C33    O81     1.399   .     S
C34    C888    1.407   .     S
C35    C43     1.488   .     S
C35    O82     1.223   .     D
C35    O83     1.399   .     S
C36    O84     1.220   .     D
C36    H49     1.078   .     S
C37    H50     1.078   .     S
C37    O86     1.221   .     D
C38    H51     1.084   .     S
C38    O87     1.219   .     D
C39    H52     1.082   .     S
C39    O88     1.220   .     D
C40    C234    1.393   1_455 S
C41    C44     1.408   .     A
C41    C139    1.391   .     S
C42    C44     1.410   .     A
C42    C136    1.393   .     S
C43    C233    1.391   1_455 S
H46    O79     1.011   .     S
H47    O81     1.011   .     S
H48    O83     1.013   .     S
H54    O64     1.014   .     S
H55    O66     1.014   .     S
H56    O68     1.013   .     S
H57    O70     1.013   .     S
H58    O72     1.014   .     S
H59    O75     1.009   .     S
H60    O77     1.014   .     S
N61    Zn95    2.026   .     S
N62    Zn96    2.026   .     S
O63    Zn95    2.030   .     S
O74    Zn96    2.030   .     S
O85    Zn95    2.011   .     S
O89    Zn96    2.011   .     S
O90    Zn95    2.000   .     S
O91    Zn96    2.000   .     S
O92    Zn95    2.001   .     S
O93    Zn96    2.001   .     S
C97    C98     1.460   .     S
C97    O159    1.293   .     A
C97    O185    1.304   .     A
C98    C139    1.421   .     A
C98    C136    1.416   .     A
C99    N158    1.373   .     A
C99    C132    1.480   .     S
C99    C678    1.433   1_545 S
C100   N157    1.375   .     A
C100   C133    1.480   .     S
C100   C389    1.430   .     S
C101   C134    1.470   .     S
C101   N158    1.370   .     A
C101   C676    1.430   1_545 S
C102   N157    1.372   .     A
C102   C135    1.470   .     S
C102   C387    1.433   .     S
C103   O189    1.288   .     A
C103   O186    1.290   .     A
C103   C109    1.423   .     S
C104   O188    1.293   .     A
C104   O187    1.286   .     A
C104   C107    1.428   .     S
C105   C121    1.491   .     S
C105   C116    1.415   .     A
C105   C107    1.402   .     A
C106   C122    1.490   .     S
C106   C117    1.409   .     A
C106   C109    1.400   .     A
C107   C110    1.381   .     A
C108   O170    1.296   .     A
C108   O181    1.300   .     A
C108   C140    1.459   .     S
C109   C111    1.384   .     A
C110   H141    1.080   .     S
C110   C112    1.388   .     A
C111   H149    1.084   .     S
C111   C113    1.389   .     A
C112   C118    1.413   .     A
C112   C114    1.412   .     A
C113   C120    1.412   .     A
C113   C115    1.415   .     A
C114   C116    1.418   .     A
C114   C979    1.394   .     S
C115   C117    1.418   .     A
C115   C978    1.394   1_554 S
C116   C130    1.416   .     A
C117   C119    1.420   .     A
C118   C123    1.483   .     S
C118   C983    1.409   .     S
C119   C125    1.491   .     S
C119   C982    1.409   1_554 S
C120   C124    1.490   .     S
C120   C994    1.407   1_554 S
C121   O190    1.223   .     D
C121   O160    1.398   .     S
C122   O162    1.395   .     S
C122   O161    1.223   .     D
C123   O164    1.398   .     S
C123   O163    1.222   .     D
C124   O165    1.220   .     D
C124   O166    1.398   .     S
C125   O168    1.398   .     S
C125   O167    1.222   .     D
C126   C130    1.481   .     S
C126   O169    1.222   .     D
C126   O171    1.399   .     S
C127   C136    1.490   .     S
C127   O173    1.396   .     S
C127   O172    1.222   .     D
C128   C137    1.487   .     S
C128   O175    1.396   .     S
C128   O174    1.223   .     D
C129   C138    1.485   .     S
C129   O176    1.222   .     D
C129   O177    1.399   .     S
C130   C984    1.407   .     S
C131   C139    1.488   .     S
C131   O178    1.223   .     D
C131   O179    1.399   .     S
C132   O180    1.220   .     D
C132   H145    1.078   .     S
C133   H146    1.078   .     S
C133   O182    1.221   .     D
C134   H147    1.084   .     S
C134   O183    1.219   .     D
C135   H148    1.082   .     S
C135   O184    1.220   .     D
C137   C140    1.408   .     A
C137   C235    1.391   .     S
C138   C140    1.410   .     A
C138   C232    1.393   .     S
H142   O175    1.011   .     S
H143   O177    1.011   .     S
H144   O179    1.013   .     S
H150   O160    1.014   .     S
H151   O162    1.014   .     S
H152   O164    1.013   .     S
H153   O166    1.013   .     S
H154   O168    1.014   .     S
H155   O171    1.009   .     S
H156   O173    1.014   .     S
N157   Zn191   2.026   .     S
N158   Zn192   2.026   .     S
O159   Zn191   2.030   .     S
O170   Zn192   2.030   .     S
O181   Zn191   2.011   .     S
O185   Zn192   2.011   .     S
O186   Zn191   2.000   .     S
O187   Zn192   2.000   .     S
O188   Zn191   2.001   .     S
O189   Zn192   2.001   .     S
C193   C194    1.460   .     S
C193   O255    1.293   .     A
C193   O281    1.304   .     A
C194   C235    1.421   .     A
C194   C232    1.416   .     A
C195   N254    1.373   .     A
C195   C228    1.480   .     S
C195   C774    1.433   1_545 S
C196   N253    1.375   .     A
C196   C229    1.480   .     S
C196   C485    1.430   .     S
C197   C230    1.470   .     S
C197   N254    1.370   .     A
C197   C772    1.430   1_545 S
C198   N253    1.372   .     A
C198   C231    1.470   .     S
C198   C483    1.433   .     S
C199   O285    1.288   .     A
C199   O282    1.290   .     A
C199   C205    1.423   .     S
C200   O284    1.293   .     A
C200   O283    1.286   .     A
C200   C203    1.428   .     S
C201   C217    1.491   .     S
C201   C212    1.415   .     A
C201   C203    1.402   .     A
C202   C218    1.490   .     S
C202   C213    1.409   .     A
C202   C205    1.400   .     A
C203   C206    1.381   .     A
C204   O266    1.296   .     A
C204   O277    1.300   .     A
C204   C236    1.459   .     S
C205   C207    1.384   .     A
C206   H237    1.080   .     S
C206   C208    1.388   .     A
C207   H245    1.084   .     S
C207   C209    1.389   .     A
C208   C214    1.413   .     A
C208   C210    1.412   .     A
C209   C216    1.412   .     A
C209   C211    1.415   .     A
C210   C212    1.418   .     A
C210   C1075   1.394   .     S
C211   C213    1.418   .     A
C211   C1074   1.394   1_554 S
C212   C226    1.416   .     A
C213   C215    1.420   .     A
C214   C219    1.483   .     S
C214   C1079   1.409   .     S
C215   C221    1.491   .     S
C215   C1078   1.409   1_554 S
C216   C220    1.490   .     S
C216   C1090   1.407   1_554 S
C217   O286    1.223   .     D
C217   O256    1.398   .     S
C218   O258    1.395   .     S
C218   O257    1.223   .     D
C219   O260    1.398   .     S
C219   O259    1.222   .     D
C220   O261    1.220   .     D
C220   O262    1.398   .     S
C221   O264    1.398   .     S
C221   O263    1.222   .     D
C222   C226    1.481   .     S
C222   O265    1.222   .     D
C222   O267    1.399   .     S
C223   C232    1.490   .     S
C223   O269    1.396   .     S
C223   O268    1.222   .     D
C224   C233    1.487   .     S
C224   O271    1.396   .     S
C224   O270    1.223   .     D
C225   C234    1.485   .     S
C225   O272    1.222   .     D
C225   O273    1.399   .     S
C226   C1080   1.407   .     S
C227   C235    1.488   .     S
C227   O274    1.223   .     D
C227   O275    1.399   .     S
C228   O276    1.220   .     D
C228   H241    1.078   .     S
C229   H242    1.078   .     S
C229   O278    1.221   .     D
C230   H243    1.084   .     S
C230   O279    1.219   .     D
C231   H244    1.082   .     S
C231   O280    1.220   .     D
C233   C236    1.408   .     A
C233   C43     1.391   1_655 S
C234   C236    1.410   .     A
C234   C40     1.393   1_655 S
H238   O271    1.011   .     S
H239   O273    1.011   .     S
H240   O275    1.013   .     S
H246   O256    1.014   .     S
H247   O258    1.014   .     S
H248   O260    1.013   .     S
H249   O262    1.013   .     S
H250   O264    1.014   .     S
H251   O267    1.009   .     S
H252   O269    1.014   .     S
N253   Zn287   2.026   .     S
N254   Zn288   2.026   .     S
O255   Zn287   2.030   .     S
O266   Zn288   2.030   .     S
O277   Zn287   2.011   .     S
O281   Zn288   2.011   .     S
O282   Zn287   2.000   .     S
O283   Zn288   2.000   .     S
O284   Zn287   2.001   .     S
O285   Zn288   2.001   .     S
C289   C290    1.460   .     S
C289   O351    1.293   .     A
C289   O377    1.304   .     A
C290   C331    1.421   .     A
C290   C328    1.416   .     A
C291   N350    1.373   .     A
C291   C324    1.480   .     S
C292   N349    1.375   .     A
C292   C325    1.480   .     S
C292   C581    1.430   .     S
C293   C326    1.470   .     S
C293   N350    1.370   .     A
C294   N349    1.372   .     A
C294   C327    1.470   .     S
C294   C579    1.433   .     S
C295   O381    1.288   .     A
C295   O378    1.290   .     A
C295   C301    1.423   .     S
C296   O380    1.293   .     A
C296   O379    1.286   .     A
C296   C299    1.428   .     S
C297   C313    1.491   .     S
C297   C308    1.415   .     A
C297   C299    1.402   .     A
C298   C314    1.490   .     S
C298   C309    1.409   .     A
C298   C301    1.400   .     A
C299   C302    1.381   .     A
C300   O362    1.296   .     A
C300   O373    1.300   .     A
C300   C332    1.459   .     S
C301   C303    1.384   .     A
C302   H333    1.080   .     S
C302   C304    1.388   .     A
C303   H341    1.084   .     S
C303   C305    1.389   .     A
C304   C310    1.413   .     A
C304   C306    1.412   .     A
C305   C312    1.412   .     A
C305   C307    1.415   .     A
C306   C308    1.418   .     A
C306   C1171   1.394   .     S
C307   C309    1.418   .     A
C307   C1170   1.394   1_554 S
C308   C322    1.416   .     A
C309   C311    1.420   .     A
C310   C315    1.483   .     S
C310   C1175   1.409   .     S
C311   C317    1.491   .     S
C311   C1174   1.409   1_554 S
C312   C316    1.490   .     S
C312   C1186   1.407   1_554 S
C313   O382    1.223   .     D
C313   O352    1.398   .     S
C314   O354    1.395   .     S
C314   O353    1.223   .     D
C315   O356    1.398   .     S
C315   O355    1.222   .     D
C316   O357    1.220   .     D
C316   O358    1.398   .     S
C317   O360    1.398   .     S
C317   O359    1.222   .     D
C318   C322    1.481   .     S
C318   O361    1.222   .     D
C318   O363    1.399   .     S
C319   C328    1.490   .     S
C319   O365    1.396   .     S
C319   O364    1.222   .     D
C320   C329    1.487   .     S
C320   O367    1.396   .     S
C320   O366    1.223   .     D
C321   C330    1.485   .     S
C321   O368    1.222   .     D
C321   O369    1.399   .     S
C322   C1176   1.407   .     S
C323   C331    1.488   .     S
C323   O370    1.223   .     D
C323   O371    1.399   .     S
C324   O372    1.220   .     D
C324   H337    1.078   .     S
C325   H338    1.078   .     S
C325   O374    1.221   .     D
C326   H339    1.084   .     S
C326   O375    1.219   .     D
C327   H340    1.082   .     S
C327   O376    1.220   .     D
C328   C522    1.393   1_455 S
C329   C332    1.408   .     A
C329   C427    1.391   .     S
C330   C332    1.410   .     A
C330   C424    1.393   .     S
C331   C521    1.391   1_455 S
H334   O367    1.011   .     S
H335   O369    1.011   .     S
H336   O371    1.013   .     S
H342   O352    1.014   .     S
H343   O354    1.014   .     S
H344   O356    1.013   .     S
H345   O358    1.013   .     S
H346   O360    1.014   .     S
H347   O363    1.009   .     S
H348   O365    1.014   .     S
N349   Zn383   2.026   .     S
N350   Zn384   2.026   .     S
O351   Zn383   2.030   .     S
O362   Zn384   2.030   .     S
O373   Zn383   2.011   .     S
O377   Zn384   2.011   .     S
O378   Zn383   2.000   .     S
O379   Zn384   2.000   .     S
O380   Zn383   2.001   .     S
O381   Zn384   2.001   .     S
C385   C386    1.460   .     S
C385   O447    1.293   .     A
C385   O473    1.304   .     A
C386   C427    1.421   .     A
C386   C424    1.416   .     A
C387   N446    1.373   .     A
C387   C420    1.480   .     S
C388   N445    1.375   .     A
C388   C421    1.480   .     S
C388   C677    1.430   .     S
C389   C422    1.470   .     S
C389   N446    1.370   .     A
C390   N445    1.372   .     A
C390   C423    1.470   .     S
C390   C675    1.433   .     S
C391   O477    1.288   .     A
C391   O474    1.290   .     A
C391   C397    1.423   .     S
C392   O476    1.293   .     A
C392   O475    1.286   .     A
C392   C395    1.428   .     S
C393   C409    1.491   .     S
C393   C404    1.415   .     A
C393   C395    1.402   .     A
C394   C410    1.490   .     S
C394   C405    1.409   .     A
C394   C397    1.400   .     A
C395   C398    1.381   .     A
C396   O458    1.296   .     A
C396   O469    1.300   .     A
C396   C428    1.459   .     S
C397   C399    1.384   .     A
C398   H429    1.080   .     S
C398   C400    1.388   .     A
C399   H437    1.084   .     S
C399   C401    1.389   .     A
C400   C406    1.413   .     A
C400   C402    1.412   .     A
C401   C408    1.412   .     A
C401   C403    1.415   .     A
C402   C404    1.418   .     A
C402   C1267   1.394   .     S
C403   C405    1.418   .     A
C403   C1266   1.394   1_554 S
C404   C418    1.416   .     A
C405   C407    1.420   .     A
C406   C411    1.483   .     S
C406   C1271   1.409   .     S
C407   C413    1.491   .     S
C407   C1270   1.409   1_554 S
C408   C412    1.490   .     S
C408   C1282   1.407   1_554 S
C409   O478    1.223   .     D
C409   O448    1.398   .     S
C410   O450    1.395   .     S
C410   O449    1.223   .     D
C411   O452    1.398   .     S
C411   O451    1.222   .     D
C412   O453    1.220   .     D
C412   O454    1.398   .     S
C413   O456    1.398   .     S
C413   O455    1.222   .     D
C414   C418    1.481   .     S
C414   O457    1.222   .     D
C414   O459    1.399   .     S
C415   C424    1.490   .     S
C415   O461    1.396   .     S
C415   O460    1.222   .     D
C416   C425    1.487   .     S
C416   O463    1.396   .     S
C416   O462    1.223   .     D
C417   C426    1.485   .     S
C417   O464    1.222   .     D
C417   O465    1.399   .     S
C418   C1272   1.407   .     S
C419   C427    1.488   .     S
C419   O466    1.223   .     D
C419   O467    1.399   .     S
C420   O468    1.220   .     D
C420   H433    1.078   .     S
C421   H434    1.078   .     S
C421   O470    1.221   .     D
C422   H435    1.084   .     S
C422   O471    1.219   .     D
C423   H436    1.082   .     S
C423   O472    1.220   .     D
C425   C428    1.408   .     A
C425   C523    1.391   .     S
C426   C428    1.410   .     A
C426   C520    1.393   .     S
H430   O463    1.011   .     S
H431   O465    1.011   .     S
H432   O467    1.013   .     S
H438   O448    1.014   .     S
H439   O450    1.014   .     S
H440   O452    1.013   .     S
H441   O454    1.013   .     S
H442   O456    1.014   .     S
H443   O459    1.009   .     S
H444   O461    1.014   .     S
N445   Zn479   2.026   .     S
N446   Zn480   2.026   .     S
O447   Zn479   2.030   .     S
O458   Zn480   2.030   .     S
O469   Zn479   2.011   .     S
O473   Zn480   2.011   .     S
O474   Zn479   2.000   .     S
O475   Zn480   2.000   .     S
O476   Zn479   2.001   .     S
O477   Zn480   2.001   .     S
C481   C482    1.460   .     S
C481   O543    1.293   .     A
C481   O569    1.304   .     A
C482   C523    1.421   .     A
C482   C520    1.416   .     A
C483   N542    1.373   .     A
C483   C516    1.480   .     S
C484   N541    1.375   .     A
C484   C517    1.480   .     S
C484   C773    1.430   .     S
C485   C518    1.470   .     S
C485   N542    1.370   .     A
C486   N541    1.372   .     A
C486   C519    1.470   .     S
C486   C771    1.433   .     S
C487   O573    1.288   .     A
C487   O570    1.290   .     A
C487   C493    1.423   .     S
C488   O572    1.293   .     A
C488   O571    1.286   .     A
C488   C491    1.428   .     S
C489   C505    1.491   .     S
C489   C500    1.415   .     A
C489   C491    1.402   .     A
C490   C506    1.490   .     S
C490   C501    1.409   .     A
C490   C493    1.400   .     A
C491   C494    1.381   .     A
C492   O554    1.296   .     A
C492   O565    1.300   .     A
C492   C524    1.459   .     S
C493   C495    1.384   .     A
C494   H525    1.080   .     S
C494   C496    1.388   .     A
C495   H533    1.084   .     S
C495   C497    1.389   .     A
C496   C502    1.413   .     A
C496   C498    1.412   .     A
C497   C504    1.412   .     A
C497   C499    1.415   .     A
C498   C500    1.418   .     A
C498   C1363   1.394   .     S
C499   C501    1.418   .     A
C499   C1362   1.394   1_554 S
C500   C514    1.416   .     A
C501   C503    1.420   .     A
C502   C507    1.483   .     S
C502   C1367   1.409   .     S
C503   C509    1.491   .     S
C503   C1366   1.409   1_554 S
C504   C508    1.490   .     S
C504   C1378   1.407   1_554 S
C505   O574    1.223   .     D
C505   O544    1.398   .     S
C506   O546    1.395   .     S
C506   O545    1.223   .     D
C507   O548    1.398   .     S
C507   O547    1.222   .     D
C508   O549    1.220   .     D
C508   O550    1.398   .     S
C509   O552    1.398   .     S
C509   O551    1.222   .     D
C510   C514    1.481   .     S
C510   O553    1.222   .     D
C510   O555    1.399   .     S
C511   C520    1.490   .     S
C511   O557    1.396   .     S
C511   O556    1.222   .     D
C512   C521    1.487   .     S
C512   O559    1.396   .     S
C512   O558    1.223   .     D
C513   C522    1.485   .     S
C513   O560    1.222   .     D
C513   O561    1.399   .     S
C514   C1368   1.407   .     S
C515   C523    1.488   .     S
C515   O562    1.223   .     D
C515   O563    1.399   .     S
C516   O564    1.220   .     D
C516   H529    1.078   .     S
C517   H530    1.078   .     S
C517   O566    1.221   .     D
C518   H531    1.084   .     S
C518   O567    1.219   .     D
C519   H532    1.082   .     S
C519   O568    1.220   .     D
C521   C524    1.408   .     A
C521   C331    1.391   1_655 S
C522   C524    1.410   .     A
C522   C328    1.393   1_655 S
H526   O559    1.011   .     S
H527   O561    1.011   .     S
H528   O563    1.013   .     S
H534   O544    1.014   .     S
H535   O546    1.014   .     S
H536   O548    1.013   .     S
H537   O550    1.013   .     S
H538   O552    1.014   .     S
H539   O555    1.009   .     S
H540   O557    1.014   .     S
N541   Zn575   2.026   .     S
N542   Zn576   2.026   .     S
O543   Zn575   2.030   .     S
O554   Zn576   2.030   .     S
O565   Zn575   2.011   .     S
O569   Zn576   2.011   .     S
O570   Zn575   2.000   .     S
O571   Zn576   2.000   .     S
O572   Zn575   2.001   .     S
O573   Zn576   2.001   .     S
C577   C578    1.460   .     S
C577   O639    1.293   .     A
C577   O665    1.304   .     A
C578   C619    1.421   .     A
C578   C616    1.416   .     A
C579   N638    1.373   .     A
C579   C612    1.480   .     S
C580   N637    1.375   .     A
C580   C613    1.480   .     S
C580   C5      1.430   1_565 S
C581   C614    1.470   .     S
C581   N638    1.370   .     A
C582   N637    1.372   .     A
C582   C615    1.470   .     S
C582   C3      1.433   1_565 S
C583   O669    1.288   .     A
C583   O666    1.290   .     A
C583   C589    1.423   .     S
C584   O668    1.293   .     A
C584   O667    1.286   .     A
C584   C587    1.428   .     S
C585   C601    1.491   .     S
C585   C596    1.415   .     A
C585   C587    1.402   .     A
C586   C602    1.490   .     S
C586   C597    1.409   .     A
C586   C589    1.400   .     A
C587   C590    1.381   .     A
C588   O650    1.296   .     A
C588   O661    1.300   .     A
C588   C620    1.459   .     S
C589   C591    1.384   .     A
C590   H621    1.080   .     S
C590   C592    1.388   .     A
C591   H629    1.084   .     S
C591   C593    1.389   .     A
C592   C598    1.413   .     A
C592   C594    1.412   .     A
C593   C600    1.412   .     A
C593   C595    1.415   .     A
C594   C596    1.418   .     A
C594   C1459   1.394   .     S
C595   C597    1.418   .     A
C595   C1458   1.394   1_554 S
C596   C610    1.416   .     A
C597   C599    1.420   .     A
C598   C603    1.483   .     S
C598   C1463   1.409   .     S
C599   C605    1.491   .     S
C599   C1462   1.409   1_554 S
C600   C604    1.490   .     S
C600   C1474   1.407   1_554 S
C601   O670    1.223   .     D
C601   O640    1.398   .     S
C602   O642    1.395   .     S
C602   O641    1.223   .     D
C603   O644    1.398   .     S
C603   O643    1.222   .     D
C604   O645    1.220   .     D
C604   O646    1.398   .     S
C605   O648    1.398   .     S
C605   O647    1.222   .     D
C606   C610    1.481   .     S
C606   O649    1.222   .     D
C606   O651    1.399   .     S
C607   C616    1.490   .     S
C607   O653    1.396   .     S
C607   O652    1.222   .     D
C608   C617    1.487   .     S
C608   O655    1.396   .     S
C608   O654    1.223   .     D
C609   C618    1.485   .     S
C609   O656    1.222   .     D
C609   O657    1.399   .     S
C610   C1464   1.407   .     S
C611   C619    1.488   .     S
C611   O658    1.223   .     D
C611   O659    1.399   .     S
C612   O660    1.220   .     D
C612   H625    1.078   .     S
C613   H626    1.078   .     S
C613   O662    1.221   .     D
C614   H627    1.084   .     S
C614   O663    1.219   .     D
C615   H628    1.082   .     S
C615   O664    1.220   .     D
C616   C810    1.393   1_455 S
C617   C620    1.408   .     A
C617   C715    1.391   .     S
C618   C620    1.410   .     A
C618   C712    1.393   .     S
C619   C809    1.391   1_455 S
H622   O655    1.011   .     S
H623   O657    1.011   .     S
H624   O659    1.013   .     S
H630   O640    1.014   .     S
H631   O642    1.014   .     S
H632   O644    1.013   .     S
H633   O646    1.013   .     S
H634   O648    1.014   .     S
H635   O651    1.009   .     S
H636   O653    1.014   .     S
N637   Zn671   2.026   .     S
N638   Zn672   2.026   .     S
O639   Zn671   2.030   .     S
O650   Zn672   2.030   .     S
O661   Zn671   2.011   .     S
O665   Zn672   2.011   .     S
O666   Zn671   2.000   .     S
O667   Zn672   2.000   .     S
O668   Zn671   2.001   .     S
O669   Zn672   2.001   .     S
C673   C674    1.460   .     S
C673   O735    1.293   .     A
C673   O761    1.304   .     A
C674   C715    1.421   .     A
C674   C712    1.416   .     A
C675   N734    1.373   .     A
C675   C708    1.480   .     S
C676   N733    1.375   .     A
C676   C709    1.480   .     S
C676   C101    1.430   1_565 S
C677   C710    1.470   .     S
C677   N734    1.370   .     A
C678   N733    1.372   .     A
C678   C711    1.470   .     S
C678   C99     1.433   1_565 S
C679   O765    1.288   .     A
C679   O762    1.290   .     A
C679   C685    1.423   .     S
C680   O764    1.293   .     A
C680   O763    1.286   .     A
C680   C683    1.428   .     S
C681   C697    1.491   .     S
C681   C692    1.415   .     A
C681   C683    1.402   .     A
C682   C698    1.490   .     S
C682   C693    1.409   .     A
C682   C685    1.400   .     A
C683   C686    1.381   .     A
C684   O746    1.296   .     A
C684   O757    1.300   .     A
C684   C716    1.459   .     S
C685   C687    1.384   .     A
C686   H717    1.080   .     S
C686   C688    1.388   .     A
C687   H725    1.084   .     S
C687   C689    1.389   .     A
C688   C694    1.413   .     A
C688   C690    1.412   .     A
C689   C696    1.412   .     A
C689   C691    1.415   .     A
C690   C692    1.418   .     A
C690   C1555   1.394   .     S
C691   C693    1.418   .     A
C691   C1554   1.394   1_554 S
C692   C706    1.416   .     A
C693   C695    1.420   .     A
C694   C699    1.483   .     S
C694   C1559   1.409   .     S
C695   C701    1.491   .     S
C695   C1558   1.409   1_554 S
C696   C700    1.490   .     S
C696   C1570   1.407   1_554 S
C697   O766    1.223   .     D
C697   O736    1.398   .     S
C698   O738    1.395   .     S
C698   O737    1.223   .     D
C699   O740    1.398   .     S
C699   O739    1.222   .     D
C700   O741    1.220   .     D
C700   O742    1.398   .     S
C701   O744    1.398   .     S
C701   O743    1.222   .     D
C702   C706    1.481   .     S
C702   O745    1.222   .     D
C702   O747    1.399   .     S
C703   C712    1.490   .     S
C703   O749    1.396   .     S
C703   O748    1.222   .     D
C704   C713    1.487   .     S
C704   O751    1.396   .     S
C704   O750    1.223   .     D
C705   C714    1.485   .     S
C705   O752    1.222   .     D
C705   O753    1.399   .     S
C706   C1560   1.407   .     S
C707   C715    1.488   .     S
C707   O754    1.223   .     D
C707   O755    1.399   .     S
C708   O756    1.220   .     D
C708   H721    1.078   .     S
C709   H722    1.078   .     S
C709   O758    1.221   .     D
C710   H723    1.084   .     S
C710   O759    1.219   .     D
C711   H724    1.082   .     S
C711   O760    1.220   .     D
C713   C716    1.408   .     A
C713   C811    1.391   .     S
C714   C716    1.410   .     A
C714   C808    1.393   .     S
H718   O751    1.011   .     S
H719   O753    1.011   .     S
H720   O755    1.013   .     S
H726   O736    1.014   .     S
H727   O738    1.014   .     S
H728   O740    1.013   .     S
H729   O742    1.013   .     S
H730   O744    1.014   .     S
H731   O747    1.009   .     S
H732   O749    1.014   .     S
N733   Zn767   2.026   .     S
N734   Zn768   2.026   .     S
O735   Zn767   2.030   .     S
O746   Zn768   2.030   .     S
O757   Zn767   2.011   .     S
O761   Zn768   2.011   .     S
O762   Zn767   2.000   .     S
O763   Zn768   2.000   .     S
O764   Zn767   2.001   .     S
O765   Zn768   2.001   .     S
C769   C770    1.460   .     S
C769   O831    1.293   .     A
C769   O857    1.304   .     A
C770   C811    1.421   .     A
C770   C808    1.416   .     A
C771   N830    1.373   .     A
C771   C804    1.480   .     S
C772   N829    1.375   .     A
C772   C805    1.480   .     S
C772   C197    1.430   1_565 S
C773   C806    1.470   .     S
C773   N830    1.370   .     A
C774   N829    1.372   .     A
C774   C807    1.470   .     S
C774   C195    1.433   1_565 S
C775   O861    1.288   .     A
C775   O858    1.290   .     A
C775   C781    1.423   .     S
C776   O860    1.293   .     A
C776   O859    1.286   .     A
C776   C779    1.428   .     S
C777   C793    1.491   .     S
C777   C788    1.415   .     A
C777   C779    1.402   .     A
C778   C794    1.490   .     S
C778   C789    1.409   .     A
C778   C781    1.400   .     A
C779   C782    1.381   .     A
C780   O842    1.296   .     A
C780   O853    1.300   .     A
C780   C812    1.459   .     S
C781   C783    1.384   .     A
C782   H813    1.080   .     S
C782   C784    1.388   .     A
C783   H821    1.084   .     S
C783   C785    1.389   .     A
C784   C790    1.413   .     A
C784   C786    1.412   .     A
C785   C792    1.412   .     A
C785   C787    1.415   .     A
C786   C788    1.418   .     A
C786   C1651   1.394   .     S
C787   C789    1.418   .     A
C787   C1650   1.394   1_554 S
C788   C802    1.416   .     A
C789   C791    1.420   .     A
C790   C795    1.483   .     S
C790   C1655   1.409   .     S
C791   C797    1.491   .     S
C791   C1654   1.409   1_554 S
C792   C796    1.490   .     S
C792   C1666   1.407   1_554 S
C793   O862    1.223   .     D
C793   O832    1.398   .     S
C794   O834    1.395   .     S
C794   O833    1.223   .     D
C795   O836    1.398   .     S
C795   O835    1.222   .     D
C796   O837    1.220   .     D
C796   O838    1.398   .     S
C797   O840    1.398   .     S
C797   O839    1.222   .     D
C798   C802    1.481   .     S
C798   O841    1.222   .     D
C798   O843    1.399   .     S
C799   C808    1.490   .     S
C799   O845    1.396   .     S
C799   O844    1.222   .     D
C800   C809    1.487   .     S
C800   O847    1.396   .     S
C800   O846    1.223   .     D
C801   C810    1.485   .     S
C801   O848    1.222   .     D
C801   O849    1.399   .     S
C802   C1656   1.407   .     S
C803   C811    1.488   .     S
C803   O850    1.223   .     D
C803   O851    1.399   .     S
C804   O852    1.220   .     D
C804   H817    1.078   .     S
C805   H818    1.078   .     S
C805   O854    1.221   .     D
C806   H819    1.084   .     S
C806   O855    1.219   .     D
C807   H820    1.082   .     S
C807   O856    1.220   .     D
C809   C812    1.408   .     A
C809   C619    1.391   1_655 S
C810   C812    1.410   .     A
C810   C616    1.393   1_655 S
H814   O847    1.011   .     S
H815   O849    1.011   .     S
H816   O851    1.013   .     S
H822   O832    1.014   .     S
H823   O834    1.014   .     S
H824   O836    1.013   .     S
H825   O838    1.013   .     S
H826   O840    1.014   .     S
H827   O843    1.009   .     S
H828   O845    1.014   .     S
N829   Zn863   2.026   .     S
N830   Zn864   2.026   .     S
O831   Zn863   2.030   .     S
O842   Zn864   2.030   .     S
O853   Zn863   2.011   .     S
O857   Zn864   2.011   .     S
O858   Zn863   2.000   .     S
O859   Zn864   2.000   .     S
O860   Zn863   2.001   .     S
O861   Zn864   2.001   .     S
C865   C866    1.460   .     S
C865   O927    1.293   .     A
C865   O953    1.304   .     A
C866   C907    1.421   .     A
C866   C904    1.416   .     A
C867   N926    1.373   .     A
C867   C900    1.480   .     S
C867   C1446   1.433   1_545 S
C868   N925    1.375   .     A
C868   C901    1.480   .     S
C868   C1157   1.430   .     S
C869   C902    1.470   .     S
C869   N926    1.370   .     A
C869   C1444   1.430   1_545 S
C870   N925    1.372   .     A
C870   C903    1.470   .     S
C870   C1155   1.433   .     S
C871   O957    1.288   .     A
C871   O954    1.290   .     A
C871   C877    1.423   .     S
C872   O956    1.293   .     A
C872   O955    1.286   .     A
C872   C875    1.428   .     S
C873   C889    1.491   .     S
C873   C884    1.415   .     A
C873   C875    1.402   .     A
C874   C890    1.490   .     S
C874   C885    1.409   .     A
C874   C877    1.400   .     A
C875   C878    1.381   .     A
C876   O938    1.296   .     A
C876   O949    1.300   .     A
C876   C908    1.459   .     S
C877   C879    1.384   .     A
C878   H909    1.080   .     S
C878   C880    1.388   .     A
C879   H917    1.084   .     S
C879   C881    1.389   .     A
C880   C886    1.413   .     A
C880   C882    1.412   .     A
C881   C888    1.412   .     A
C881   C883    1.415   .     A
C882   C884    1.418   .     A
C882   C19     1.394   1_556 S
C883   C885    1.418   .     A
C884   C898    1.416   .     A
C885   C887    1.420   .     A
C886   C891    1.483   .     S
C886   C23     1.409   1_556 S
C887   C893    1.491   .     S
C888   C892    1.490   .     S
C889   O958    1.223   .     D
C889   O928    1.398   .     S
C890   O930    1.395   .     S
C890   O929    1.223   .     D
C891   O932    1.398   .     S
C891   O931    1.222   .     D
C892   O933    1.220   .     D
C892   O934    1.398   .     S
C893   O936    1.398   .     S
C893   O935    1.222   .     D
C894   C898    1.481   .     S
C894   O937    1.222   .     D
C894   O939    1.399   .     S
C895   C904    1.490   .     S
C895   O941    1.396   .     S
C895   O940    1.222   .     D
C896   C905    1.487   .     S
C896   O943    1.396   .     S
C896   O942    1.223   .     D
C897   C906    1.485   .     S
C897   O944    1.222   .     D
C897   O945    1.399   .     S
C898   C24     1.407   1_556 S
C899   C907    1.488   .     S
C899   O946    1.223   .     D
C899   O947    1.399   .     S
C900   O948    1.220   .     D
C900   H913    1.078   .     S
C901   H914    1.078   .     S
C901   O950    1.221   .     D
C902   H915    1.084   .     S
C902   O951    1.219   .     D
C903   H916    1.082   .     S
C903   O952    1.220   .     D
C904   C1098   1.393   1_455 S
C905   C908    1.408   .     A
C905   C1003   1.391   .     S
C906   C908    1.410   .     A
C906   C1000   1.393   .     S
C907   C1097   1.391   1_455 S
H910   O943    1.011   .     S
H911   O945    1.011   .     S
H912   O947    1.013   .     S
H918   O928    1.014   .     S
H919   O930    1.014   .     S
H920   O932    1.013   .     S
H921   O934    1.013   .     S
H922   O936    1.014   .     S
H923   O939    1.009   .     S
H924   O941    1.014   .     S
N925   Zn959   2.026   .     S
N926   Zn960   2.026   .     S
O927   Zn959   2.030   .     S
O938   Zn960   2.030   .     S
O949   Zn959   2.011   .     S
O953   Zn960   2.011   .     S
O954   Zn959   2.000   .     S
O955   Zn960   2.000   .     S
O956   Zn959   2.001   .     S
O957   Zn960   2.001   .     S
C961   C962    1.460   .     S
C961   O1023   1.293   .     A
C961   O1049   1.304   .     A
C962   C1003   1.421   .     A
C962   C1000   1.416   .     A
C963   N1022   1.373   .     A
C963   C996    1.480   .     S
C963   C1542   1.433   1_545 S
C964   N1021   1.375   .     A
C964   C997    1.480   .     S
C964   C1253   1.430   .     S
C965   C998    1.470   .     S
C965   N1022   1.370   .     A
C965   C1540   1.430   1_545 S
C966   N1021   1.372   .     A
C966   C999    1.470   .     S
C966   C1251   1.433   .     S
C967   O1053   1.288   .     A
C967   O1050   1.290   .     A
C967   C973    1.423   .     S
C968   O1052   1.293   .     A
C968   O1051   1.286   .     A
C968   C971    1.428   .     S
C969   C985    1.491   .     S
C969   C980    1.415   .     A
C969   C971    1.402   .     A
C970   C986    1.490   .     S
C970   C981    1.409   .     A
C970   C973    1.400   .     A
C971   C974    1.381   .     A
C972   O1034   1.296   .     A
C972   O1045   1.300   .     A
C972   C1004   1.459   .     S
C973   C975    1.384   .     A
C974   H1005   1.080   .     S
C974   C976    1.388   .     A
C975   H1013   1.084   .     S
C975   C977    1.389   .     A
C976   C982    1.413   .     A
C976   C978    1.412   .     A
C977   C984    1.412   .     A
C977   C979    1.415   .     A
C978   C980    1.418   .     A
C978   C115    1.394   1_556 S
C979   C981    1.418   .     A
C980   C994    1.416   .     A
C981   C983    1.420   .     A
C982   C987    1.483   .     S
C982   C119    1.409   1_556 S
C983   C989    1.491   .     S
C984   C988    1.490   .     S
C985   O1054   1.223   .     D
C985   O1024   1.398   .     S
C986   O1026   1.395   .     S
C986   O1025   1.223   .     D
C987   O1028   1.398   .     S
C987   O1027   1.222   .     D
C988   O1029   1.220   .     D
C988   O1030   1.398   .     S
C989   O1032   1.398   .     S
C989   O1031   1.222   .     D
C990   C994    1.481   .     S
C990   O1033   1.222   .     D
C990   O1035   1.399   .     S
C991   C1000   1.490   .     S
C991   O1037   1.396   .     S
C991   O1036   1.222   .     D
C992   C1001   1.487   .     S
C992   O1039   1.396   .     S
C992   O1038   1.223   .     D
C993   C1002   1.485   .     S
C993   O1040   1.222   .     D
C993   O1041   1.399   .     S
C994   C120    1.407   1_556 S
C995   C1003   1.488   .     S
C995   O1042   1.223   .     D
C995   O1043   1.399   .     S
C996   O1044   1.220   .     D
C996   H1009   1.078   .     S
C997   H1010   1.078   .     S
C997   O1046   1.221   .     D
C998   H1011   1.084   .     S
C998   O1047   1.219   .     D
C999   H1012   1.082   .     S
C999   O1048   1.220   .     D
C1001  C1004   1.408   .     A
C1001  C1099   1.391   .     S
C1002  C1004   1.410   .     A
C1002  C1096   1.393   .     S
H1006  O1039   1.011   .     S
H1007  O1041   1.011   .     S
H1008  O1043   1.013   .     S
H1014  O1024   1.014   .     S
H1015  O1026   1.014   .     S
H1016  O1028   1.013   .     S
H1017  O1030   1.013   .     S
H1018  O1032   1.014   .     S
H1019  O1035   1.009   .     S
H1020  O1037   1.014   .     S
N1021  Zn1055  2.026   .     S
N1022  Zn1056  2.026   .     S
O1023  Zn1055  2.030   .     S
O1034  Zn1056  2.030   .     S
O1045  Zn1055  2.011   .     S
O1049  Zn1056  2.011   .     S
O1050  Zn1055  2.000   .     S
O1051  Zn1056  2.000   .     S
O1052  Zn1055  2.001   .     S
O1053  Zn1056  2.001   .     S
C1057  C1058   1.460   .     S
C1057  O1119   1.293   .     A
C1057  O1145   1.304   .     A
C1058  C1099   1.421   .     A
C1058  C1096   1.416   .     A
C1059  N1118   1.373   .     A
C1059  C1092   1.480   .     S
C1059  C1638   1.433   1_545 S
C1060  N1117   1.375   .     A
C1060  C1093   1.480   .     S
C1060  C1349   1.430   .     S
C1061  C1094   1.470   .     S
C1061  N1118   1.370   .     A
C1061  C1636   1.430   1_545 S
C1062  N1117   1.372   .     A
C1062  C1095   1.470   .     S
C1062  C1347   1.433   .     S
C1063  O1149   1.288   .     A
C1063  O1146   1.290   .     A
C1063  C1069   1.423   .     S
C1064  O1148   1.293   .     A
C1064  O1147   1.286   .     A
C1064  C1067   1.428   .     S
C1065  C1081   1.491   .     S
C1065  C1076   1.415   .     A
C1065  C1067   1.402   .     A
C1066  C1082   1.490   .     S
C1066  C1077   1.409   .     A
C1066  C1069   1.400   .     A
C1067  C1070   1.381   .     A
C1068  O1130   1.296   .     A
C1068  O1141   1.300   .     A
C1068  C1100   1.459   .     S
C1069  C1071   1.384   .     A
C1070  H1101   1.080   .     S
C1070  C1072   1.388   .     A
C1071  H1109   1.084   .     S
C1071  C1073   1.389   .     A
C1072  C1078   1.413   .     A
C1072  C1074   1.412   .     A
C1073  C1080   1.412   .     A
C1073  C1075   1.415   .     A
C1074  C1076   1.418   .     A
C1074  C211    1.394   1_556 S
C1075  C1077   1.418   .     A
C1076  C1090   1.416   .     A
C1077  C1079   1.420   .     A
C1078  C1083   1.483   .     S
C1078  C215    1.409   1_556 S
C1079  C1085   1.491   .     S
C1080  C1084   1.490   .     S
C1081  O1150   1.223   .     D
C1081  O1120   1.398   .     S
C1082  O1122   1.395   .     S
C1082  O1121   1.223   .     D
C1083  O1124   1.398   .     S
C1083  O1123   1.222   .     D
C1084  O1125   1.220   .     D
C1084  O1126   1.398   .     S
C1085  O1128   1.398   .     S
C1085  O1127   1.222   .     D
C1086  C1090   1.481   .     S
C1086  O1129   1.222   .     D
C1086  O1131   1.399   .     S
C1087  C1096   1.490   .     S
C1087  O1133   1.396   .     S
C1087  O1132   1.222   .     D
C1088  C1097   1.487   .     S
C1088  O1135   1.396   .     S
C1088  O1134   1.223   .     D
C1089  C1098   1.485   .     S
C1089  O1136   1.222   .     D
C1089  O1137   1.399   .     S
C1090  C216    1.407   1_556 S
C1091  C1099   1.488   .     S
C1091  O1138   1.223   .     D
C1091  O1139   1.399   .     S
C1092  O1140   1.220   .     D
C1092  H1105   1.078   .     S
C1093  H1106   1.078   .     S
C1093  O1142   1.221   .     D
C1094  H1107   1.084   .     S
C1094  O1143   1.219   .     D
C1095  H1108   1.082   .     S
C1095  O1144   1.220   .     D
C1097  C1100   1.408   .     A
C1097  C907    1.391   1_655 S
C1098  C1100   1.410   .     A
C1098  C904    1.393   1_655 S
H1102  O1135   1.011   .     S
H1103  O1137   1.011   .     S
H1104  O1139   1.013   .     S
H1110  O1120   1.014   .     S
H1111  O1122   1.014   .     S
H1112  O1124   1.013   .     S
H1113  O1126   1.013   .     S
H1114  O1128   1.014   .     S
H1115  O1131   1.009   .     S
H1116  O1133   1.014   .     S
N1117  Zn1151  2.026   .     S
N1118  Zn1152  2.026   .     S
O1119  Zn1151  2.030   .     S
O1130  Zn1152  2.030   .     S
O1141  Zn1151  2.011   .     S
O1145  Zn1152  2.011   .     S
O1146  Zn1151  2.000   .     S
O1147  Zn1152  2.000   .     S
O1148  Zn1151  2.001   .     S
O1149  Zn1152  2.001   .     S
C1153  C1154   1.460   .     S
C1153  O1215   1.293   .     A
C1153  O1241   1.304   .     A
C1154  C1195   1.421   .     A
C1154  C1192   1.416   .     A
C1155  N1214   1.373   .     A
C1155  C1188   1.480   .     S
C1156  N1213   1.375   .     A
C1156  C1189   1.480   .     S
C1156  C1445   1.430   .     S
C1157  C1190   1.470   .     S
C1157  N1214   1.370   .     A
C1158  N1213   1.372   .     A
C1158  C1191   1.470   .     S
C1158  C1443   1.433   .     S
C1159  O1245   1.288   .     A
C1159  O1242   1.290   .     A
C1159  C1165   1.423   .     S
C1160  O1244   1.293   .     A
C1160  O1243   1.286   .     A
C1160  C1163   1.428   .     S
C1161  C1177   1.491   .     S
C1161  C1172   1.415   .     A
C1161  C1163   1.402   .     A
C1162  C1178   1.490   .     S
C1162  C1173   1.409   .     A
C1162  C1165   1.400   .     A
C1163  C1166   1.381   .     A
C1164  O1226   1.296   .     A
C1164  O1237   1.300   .     A
C1164  C1196   1.459   .     S
C1165  C1167   1.384   .     A
C1166  H1197   1.080   .     S
C1166  C1168   1.388   .     A
C1167  H1205   1.084   .     S
C1167  C1169   1.389   .     A
C1168  C1174   1.413   .     A
C1168  C1170   1.412   .     A
C1169  C1176   1.412   .     A
C1169  C1171   1.415   .     A
C1170  C1172   1.418   .     A
C1170  C307    1.394   1_556 S
C1171  C1173   1.418   .     A
C1172  C1186   1.416   .     A
C1173  C1175   1.420   .     A
C1174  C1179   1.483   .     S
C1174  C311    1.409   1_556 S
C1175  C1181   1.491   .     S
C1176  C1180   1.490   .     S
C1177  O1246   1.223   .     D
C1177  O1216   1.398   .     S
C1178  O1218   1.395   .     S
C1178  O1217   1.223   .     D
C1179  O1220   1.398   .     S
C1179  O1219   1.222   .     D
C1180  O1221   1.220   .     D
C1180  O1222   1.398   .     S
C1181  O1224   1.398   .     S
C1181  O1223   1.222   .     D
C1182  C1186   1.481   .     S
C1182  O1225   1.222   .     D
C1182  O1227   1.399   .     S
C1183  C1192   1.490   .     S
C1183  O1229   1.396   .     S
C1183  O1228   1.222   .     D
C1184  C1193   1.487   .     S
C1184  O1231   1.396   .     S
C1184  O1230   1.223   .     D
C1185  C1194   1.485   .     S
C1185  O1232   1.222   .     D
C1185  O1233   1.399   .     S
C1186  C312    1.407   1_556 S
C1187  C1195   1.488   .     S
C1187  O1234   1.223   .     D
C1187  O1235   1.399   .     S
C1188  O1236   1.220   .     D
C1188  H1201   1.078   .     S
C1189  H1202   1.078   .     S
C1189  O1238   1.221   .     D
C1190  H1203   1.084   .     S
C1190  O1239   1.219   .     D
C1191  H1204   1.082   .     S
C1191  O1240   1.220   .     D
C1192  C1386   1.393   1_455 S
C1193  C1196   1.408   .     A
C1193  C1291   1.391   .     S
C1194  C1196   1.410   .     A
C1194  C1288   1.393   .     S
C1195  C1385   1.391   1_455 S
H1198  O1231   1.011   .     S
H1199  O1233   1.011   .     S
H1200  O1235   1.013   .     S
H1206  O1216   1.014   .     S
H1207  O1218   1.014   .     S
H1208  O1220   1.013   .     S
H1209  O1222   1.013   .     S
H1210  O1224   1.014   .     S
H1211  O1227   1.009   .     S
H1212  O1229   1.014   .     S
N1213  Zn1247  2.026   .     S
N1214  Zn1248  2.026   .     S
O1215  Zn1247  2.030   .     S
O1226  Zn1248  2.030   .     S
O1237  Zn1247  2.011   .     S
O1241  Zn1248  2.011   .     S
O1242  Zn1247  2.000   .     S
O1243  Zn1248  2.000   .     S
O1244  Zn1247  2.001   .     S
O1245  Zn1248  2.001   .     S
C1249  C1250   1.460   .     S
C1249  O1311   1.293   .     A
C1249  O1337   1.304   .     A
C1250  C1291   1.421   .     A
C1250  C1288   1.416   .     A
C1251  N1310   1.373   .     A
C1251  C1284   1.480   .     S
C1252  N1309   1.375   .     A
C1252  C1285   1.480   .     S
C1252  C1541   1.430   .     S
C1253  C1286   1.470   .     S
C1253  N1310   1.370   .     A
C1254  N1309   1.372   .     A
C1254  C1287   1.470   .     S
C1254  C1539   1.433   .     S
C1255  O1341   1.288   .     A
C1255  O1338   1.290   .     A
C1255  C1261   1.423   .     S
C1256  O1340   1.293   .     A
C1256  O1339   1.286   .     A
C1256  C1259   1.428   .     S
C1257  C1273   1.491   .     S
C1257  C1268   1.415   .     A
C1257  C1259   1.402   .     A
C1258  C1274   1.490   .     S
C1258  C1269   1.409   .     A
C1258  C1261   1.400   .     A
C1259  C1262   1.381   .     A
C1260  O1322   1.296   .     A
C1260  O1333   1.300   .     A
C1260  C1292   1.459   .     S
C1261  C1263   1.384   .     A
C1262  H1293   1.080   .     S
C1262  C1264   1.388   .     A
C1263  H1301   1.084   .     S
C1263  C1265   1.389   .     A
C1264  C1270   1.413   .     A
C1264  C1266   1.412   .     A
C1265  C1272   1.412   .     A
C1265  C1267   1.415   .     A
C1266  C1268   1.418   .     A
C1266  C403    1.394   1_556 S
C1267  C1269   1.418   .     A
C1268  C1282   1.416   .     A
C1269  C1271   1.420   .     A
C1270  C1275   1.483   .     S
C1270  C407    1.409   1_556 S
C1271  C1277   1.491   .     S
C1272  C1276   1.490   .     S
C1273  O1342   1.223   .     D
C1273  O1312   1.398   .     S
C1274  O1314   1.395   .     S
C1274  O1313   1.223   .     D
C1275  O1316   1.398   .     S
C1275  O1315   1.222   .     D
C1276  O1317   1.220   .     D
C1276  O1318   1.398   .     S
C1277  O1320   1.398   .     S
C1277  O1319   1.222   .     D
C1278  C1282   1.481   .     S
C1278  O1321   1.222   .     D
C1278  O1323   1.399   .     S
C1279  C1288   1.490   .     S
C1279  O1325   1.396   .     S
C1279  O1324   1.222   .     D
C1280  C1289   1.487   .     S
C1280  O1327   1.396   .     S
C1280  O1326   1.223   .     D
C1281  C1290   1.485   .     S
C1281  O1328   1.222   .     D
C1281  O1329   1.399   .     S
C1282  C408    1.407   1_556 S
C1283  C1291   1.488   .     S
C1283  O1330   1.223   .     D
C1283  O1331   1.399   .     S
C1284  O1332   1.220   .     D
C1284  H1297   1.078   .     S
C1285  H1298   1.078   .     S
C1285  O1334   1.221   .     D
C1286  H1299   1.084   .     S
C1286  O1335   1.219   .     D
C1287  H1300   1.082   .     S
C1287  O1336   1.220   .     D
C1289  C1292   1.408   .     A
C1289  C1387   1.391   .     S
C1290  C1292   1.410   .     A
C1290  C1384   1.393   .     S
H1294  O1327   1.011   .     S
H1295  O1329   1.011   .     S
H1296  O1331   1.013   .     S
H1302  O1312   1.014   .     S
H1303  O1314   1.014   .     S
H1304  O1316   1.013   .     S
H1305  O1318   1.013   .     S
H1306  O1320   1.014   .     S
H1307  O1323   1.009   .     S
H1308  O1325   1.014   .     S
N1309  Zn1343  2.026   .     S
N1310  Zn1344  2.026   .     S
O1311  Zn1343  2.030   .     S
O1322  Zn1344  2.030   .     S
O1333  Zn1343  2.011   .     S
O1337  Zn1344  2.011   .     S
O1338  Zn1343  2.000   .     S
O1339  Zn1344  2.000   .     S
O1340  Zn1343  2.001   .     S
O1341  Zn1344  2.001   .     S
C1345  C1346   1.460   .     S
C1345  O1407   1.293   .     A
C1345  O1433   1.304   .     A
C1346  C1387   1.421   .     A
C1346  C1384   1.416   .     A
C1347  N1406   1.373   .     A
C1347  C1380   1.480   .     S
C1348  N1405   1.375   .     A
C1348  C1381   1.480   .     S
C1348  C1637   1.430   .     S
C1349  C1382   1.470   .     S
C1349  N1406   1.370   .     A
C1350  N1405   1.372   .     A
C1350  C1383   1.470   .     S
C1350  C1635   1.433   .     S
C1351  O1437   1.288   .     A
C1351  O1434   1.290   .     A
C1351  C1357   1.423   .     S
C1352  O1436   1.293   .     A
C1352  O1435   1.286   .     A
C1352  C1355   1.428   .     S
C1353  C1369   1.491   .     S
C1353  C1364   1.415   .     A
C1353  C1355   1.402   .     A
C1354  C1370   1.490   .     S
C1354  C1365   1.409   .     A
C1354  C1357   1.400   .     A
C1355  C1358   1.381   .     A
C1356  O1418   1.296   .     A
C1356  O1429   1.300   .     A
C1356  C1388   1.459   .     S
C1357  C1359   1.384   .     A
C1358  H1389   1.080   .     S
C1358  C1360   1.388   .     A
C1359  H1397   1.084   .     S
C1359  C1361   1.389   .     A
C1360  C1366   1.413   .     A
C1360  C1362   1.412   .     A
C1361  C1368   1.412   .     A
C1361  C1363   1.415   .     A
C1362  C1364   1.418   .     A
C1362  C499    1.394   1_556 S
C1363  C1365   1.418   .     A
C1364  C1378   1.416   .     A
C1365  C1367   1.420   .     A
C1366  C1371   1.483   .     S
C1366  C503    1.409   1_556 S
C1367  C1373   1.491   .     S
C1368  C1372   1.490   .     S
C1369  O1438   1.223   .     D
C1369  O1408   1.398   .     S
C1370  O1410   1.395   .     S
C1370  O1409   1.223   .     D
C1371  O1412   1.398   .     S
C1371  O1411   1.222   .     D
C1372  O1413   1.220   .     D
C1372  O1414   1.398   .     S
C1373  O1416   1.398   .     S
C1373  O1415   1.222   .     D
C1374  C1378   1.481   .     S
C1374  O1417   1.222   .     D
C1374  O1419   1.399   .     S
C1375  C1384   1.490   .     S
C1375  O1421   1.396   .     S
C1375  O1420   1.222   .     D
C1376  C1385   1.487   .     S
C1376  O1423   1.396   .     S
C1376  O1422   1.223   .     D
C1377  C1386   1.485   .     S
C1377  O1424   1.222   .     D
C1377  O1425   1.399   .     S
C1378  C504    1.407   1_556 S
C1379  C1387   1.488   .     S
C1379  O1426   1.223   .     D
C1379  O1427   1.399   .     S
C1380  O1428   1.220   .     D
C1380  H1393   1.078   .     S
C1381  H1394   1.078   .     S
C1381  O1430   1.221   .     D
C1382  H1395   1.084   .     S
C1382  O1431   1.219   .     D
C1383  H1396   1.082   .     S
C1383  O1432   1.220   .     D
C1385  C1388   1.408   .     A
C1385  C1195   1.391   1_655 S
C1386  C1388   1.410   .     A
C1386  C1192   1.393   1_655 S
H1390  O1423   1.011   .     S
H1391  O1425   1.011   .     S
H1392  O1427   1.013   .     S
H1398  O1408   1.014   .     S
H1399  O1410   1.014   .     S
H1400  O1412   1.013   .     S
H1401  O1414   1.013   .     S
H1402  O1416   1.014   .     S
H1403  O1419   1.009   .     S
H1404  O1421   1.014   .     S
N1405  Zn1439  2.026   .     S
N1406  Zn1440  2.026   .     S
O1407  Zn1439  2.030   .     S
O1418  Zn1440  2.030   .     S
O1429  Zn1439  2.011   .     S
O1433  Zn1440  2.011   .     S
O1434  Zn1439  2.000   .     S
O1435  Zn1440  2.000   .     S
O1436  Zn1439  2.001   .     S
O1437  Zn1440  2.001   .     S
C1441  C1442   1.460   .     S
C1441  O1503   1.293   .     A
C1441  O1529   1.304   .     A
C1442  C1483   1.421   .     A
C1442  C1480   1.416   .     A
C1443  N1502   1.373   .     A
C1443  C1476   1.480   .     S
C1444  N1501   1.375   .     A
C1444  C1477   1.480   .     S
C1444  C869    1.430   1_565 S
C1445  C1478   1.470   .     S
C1445  N1502   1.370   .     A
C1446  N1501   1.372   .     A
C1446  C1479   1.470   .     S
C1446  C867    1.433   1_565 S
C1447  O1533   1.288   .     A
C1447  O1530   1.290   .     A
C1447  C1453   1.423   .     S
C1448  O1532   1.293   .     A
C1448  O1531   1.286   .     A
C1448  C1451   1.428   .     S
C1449  C1465   1.491   .     S
C1449  C1460   1.415   .     A
C1449  C1451   1.402   .     A
C1450  C1466   1.490   .     S
C1450  C1461   1.409   .     A
C1450  C1453   1.400   .     A
C1451  C1454   1.381   .     A
C1452  O1514   1.296   .     A
C1452  O1525   1.300   .     A
C1452  C1484   1.459   .     S
C1453  C1455   1.384   .     A
C1454  H1485   1.080   .     S
C1454  C1456   1.388   .     A
C1455  H1493   1.084   .     S
C1455  C1457   1.389   .     A
C1456  C1462   1.413   .     A
C1456  C1458   1.412   .     A
C1457  C1464   1.412   .     A
C1457  C1459   1.415   .     A
C1458  C1460   1.418   .     A
C1458  C595    1.394   1_556 S
C1459  C1461   1.418   .     A
C1460  C1474   1.416   .     A
C1461  C1463   1.420   .     A
C1462  C1467   1.483   .     S
C1462  C599    1.409   1_556 S
C1463  C1469   1.491   .     S
C1464  C1468   1.490   .     S
C1465  O1534   1.223   .     D
C1465  O1504   1.398   .     S
C1466  O1506   1.395   .     S
C1466  O1505   1.223   .     D
C1467  O1508   1.398   .     S
C1467  O1507   1.222   .     D
C1468  O1509   1.220   .     D
C1468  O1510   1.398   .     S
C1469  O1512   1.398   .     S
C1469  O1511   1.222   .     D
C1470  C1474   1.481   .     S
C1470  O1513   1.222   .     D
C1470  O1515   1.399   .     S
C1471  C1480   1.490   .     S
C1471  O1517   1.396   .     S
C1471  O1516   1.222   .     D
C1472  C1481   1.487   .     S
C1472  O1519   1.396   .     S
C1472  O1518   1.223   .     D
C1473  C1482   1.485   .     S
C1473  O1520   1.222   .     D
C1473  O1521   1.399   .     S
C1474  C600    1.407   1_556 S
C1475  C1483   1.488   .     S
C1475  O1522   1.223   .     D
C1475  O1523   1.399   .     S
C1476  O1524   1.220   .     D
C1476  H1489   1.078   .     S
C1477  H1490   1.078   .     S
C1477  O1526   1.221   .     D
C1478  H1491   1.084   .     S
C1478  O1527   1.219   .     D
C1479  H1492   1.082   .     S
C1479  O1528   1.220   .     D
C1480  C1674   1.393   1_455 S
C1481  C1484   1.408   .     A
C1481  C1579   1.391   .     S
C1482  C1484   1.410   .     A
C1482  C1576   1.393   .     S
C1483  C1673   1.391   1_455 S
H1486  O1519   1.011   .     S
H1487  O1521   1.011   .     S
H1488  O1523   1.013   .     S
H1494  O1504   1.014   .     S
H1495  O1506   1.014   .     S
H1496  O1508   1.013   .     S
H1497  O1510   1.013   .     S
H1498  O1512   1.014   .     S
H1499  O1515   1.009   .     S
H1500  O1517   1.014   .     S
N1501  Zn1535  2.026   .     S
N1502  Zn1536  2.026   .     S
O1503  Zn1535  2.030   .     S
O1514  Zn1536  2.030   .     S
O1525  Zn1535  2.011   .     S
O1529  Zn1536  2.011   .     S
O1530  Zn1535  2.000   .     S
O1531  Zn1536  2.000   .     S
O1532  Zn1535  2.001   .     S
O1533  Zn1536  2.001   .     S
C1537  C1538   1.460   .     S
C1537  O1599   1.293   .     A
C1537  O1625   1.304   .     A
C1538  C1579   1.421   .     A
C1538  C1576   1.416   .     A
C1539  N1598   1.373   .     A
C1539  C1572   1.480   .     S
C1540  N1597   1.375   .     A
C1540  C1573   1.480   .     S
C1540  C965    1.430   1_565 S
C1541  C1574   1.470   .     S
C1541  N1598   1.370   .     A
C1542  N1597   1.372   .     A
C1542  C1575   1.470   .     S
C1542  C963    1.433   1_565 S
C1543  O1629   1.288   .     A
C1543  O1626   1.290   .     A
C1543  C1549   1.423   .     S
C1544  O1628   1.293   .     A
C1544  O1627   1.286   .     A
C1544  C1547   1.428   .     S
C1545  C1561   1.491   .     S
C1545  C1556   1.415   .     A
C1545  C1547   1.402   .     A
C1546  C1562   1.490   .     S
C1546  C1557   1.409   .     A
C1546  C1549   1.400   .     A
C1547  C1550   1.381   .     A
C1548  O1610   1.296   .     A
C1548  O1621   1.300   .     A
C1548  C1580   1.459   .     S
C1549  C1551   1.384   .     A
C1550  H1581   1.080   .     S
C1550  C1552   1.388   .     A
C1551  H1589   1.084   .     S
C1551  C1553   1.389   .     A
C1552  C1558   1.413   .     A
C1552  C1554   1.412   .     A
C1553  C1560   1.412   .     A
C1553  C1555   1.415   .     A
C1554  C1556   1.418   .     A
C1554  C691    1.394   1_556 S
C1555  C1557   1.418   .     A
C1556  C1570   1.416   .     A
C1557  C1559   1.420   .     A
C1558  C1563   1.483   .     S
C1558  C695    1.409   1_556 S
C1559  C1565   1.491   .     S
C1560  C1564   1.490   .     S
C1561  O1630   1.223   .     D
C1561  O1600   1.398   .     S
C1562  O1602   1.395   .     S
C1562  O1601   1.223   .     D
C1563  O1604   1.398   .     S
C1563  O1603   1.222   .     D
C1564  O1605   1.220   .     D
C1564  O1606   1.398   .     S
C1565  O1608   1.398   .     S
C1565  O1607   1.222   .     D
C1566  C1570   1.481   .     S
C1566  O1609   1.222   .     D
C1566  O1611   1.399   .     S
C1567  C1576   1.490   .     S
C1567  O1613   1.396   .     S
C1567  O1612   1.222   .     D
C1568  C1577   1.487   .     S
C1568  O1615   1.396   .     S
C1568  O1614   1.223   .     D
C1569  C1578   1.485   .     S
C1569  O1616   1.222   .     D
C1569  O1617   1.399   .     S
C1570  C696    1.407   1_556 S
C1571  C1579   1.488   .     S
C1571  O1618   1.223   .     D
C1571  O1619   1.399   .     S
C1572  O1620   1.220   .     D
C1572  H1585   1.078   .     S
C1573  H1586   1.078   .     S
C1573  O1622   1.221   .     D
C1574  H1587   1.084   .     S
C1574  O1623   1.219   .     D
C1575  H1588   1.082   .     S
C1575  O1624   1.220   .     D
C1577  C1580   1.408   .     A
C1577  C1675   1.391   .     S
C1578  C1580   1.410   .     A
C1578  C1672   1.393   .     S
H1582  O1615   1.011   .     S
H1583  O1617   1.011   .     S
H1584  O1619   1.013   .     S
H1590  O1600   1.014   .     S
H1591  O1602   1.014   .     S
H1592  O1604   1.013   .     S
H1593  O1606   1.013   .     S
H1594  O1608   1.014   .     S
H1595  O1611   1.009   .     S
H1596  O1613   1.014   .     S
N1597  Zn1631  2.026   .     S
N1598  Zn1632  2.026   .     S
O1599  Zn1631  2.030   .     S
O1610  Zn1632  2.030   .     S
O1621  Zn1631  2.011   .     S
O1625  Zn1632  2.011   .     S
O1626  Zn1631  2.000   .     S
O1627  Zn1632  2.000   .     S
O1628  Zn1631  2.001   .     S
O1629  Zn1632  2.001   .     S
C1633  C1634   1.460   .     S
C1633  O1695   1.293   .     A
C1633  O1721   1.304   .     A
C1634  C1675   1.421   .     A
C1634  C1672   1.416   .     A
C1635  N1694   1.373   .     A
C1635  C1668   1.480   .     S
C1636  N1693   1.375   .     A
C1636  C1669   1.480   .     S
C1636  C1061   1.430   1_565 S
C1637  C1670   1.470   .     S
C1637  N1694   1.370   .     A
C1638  N1693   1.372   .     A
C1638  C1671   1.470   .     S
C1638  C1059   1.433   1_565 S
C1639  O1725   1.288   .     A
C1639  O1722   1.290   .     A
C1639  C1645   1.423   .     S
C1640  O1724   1.293   .     A
C1640  O1723   1.286   .     A
C1640  C1643   1.428   .     S
C1641  C1657   1.491   .     S
C1641  C1652   1.415   .     A
C1641  C1643   1.402   .     A
C1642  C1658   1.490   .     S
C1642  C1653   1.409   .     A
C1642  C1645   1.400   .     A
C1643  C1646   1.381   .     A
C1644  O1706   1.296   .     A
C1644  O1717   1.300   .     A
C1644  C1676   1.459   .     S
C1645  C1647   1.384   .     A
C1646  H1677   1.080   .     S
C1646  C1648   1.388   .     A
C1647  H1685   1.084   .     S
C1647  C1649   1.389   .     A
C1648  C1654   1.413   .     A
C1648  C1650   1.412   .     A
C1649  C1656   1.412   .     A
C1649  C1651   1.415   .     A
C1650  C1652   1.418   .     A
C1650  C787    1.394   1_556 S
C1651  C1653   1.418   .     A
C1652  C1666   1.416   .     A
C1653  C1655   1.420   .     A
C1654  C1659   1.483   .     S
C1654  C791    1.409   1_556 S
C1655  C1661   1.491   .     S
C1656  C1660   1.490   .     S
C1657  O1726   1.223   .     D
C1657  O1696   1.398   .     S
C1658  O1698   1.395   .     S
C1658  O1697   1.223   .     D
C1659  O1700   1.398   .     S
C1659  O1699   1.222   .     D
C1660  O1701   1.220   .     D
C1660  O1702   1.398   .     S
C1661  O1704   1.398   .     S
C1661  O1703   1.222   .     D
C1662  C1666   1.481   .     S
C1662  O1705   1.222   .     D
C1662  O1707   1.399   .     S
C1663  C1672   1.490   .     S
C1663  O1709   1.396   .     S
C1663  O1708   1.222   .     D
C1664  C1673   1.487   .     S
C1664  O1711   1.396   .     S
C1664  O1710   1.223   .     D
C1665  C1674   1.485   .     S
C1665  O1712   1.222   .     D
C1665  O1713   1.399   .     S
C1666  C792    1.407   1_556 S
C1667  C1675   1.488   .     S
C1667  O1714   1.223   .     D
C1667  O1715   1.399   .     S
C1668  O1716   1.220   .     D
C1668  H1681   1.078   .     S
C1669  H1682   1.078   .     S
C1669  O1718   1.221   .     D
C1670  H1683   1.084   .     S
C1670  O1719   1.219   .     D
C1671  H1684   1.082   .     S
C1671  O1720   1.220   .     D
C1673  C1676   1.408   .     A
C1673  C1483   1.391   1_655 S
C1674  C1676   1.410   .     A
C1674  C1480   1.393   1_655 S
H1678  O1711   1.011   .     S
H1679  O1713   1.011   .     S
H1680  O1715   1.013   .     S
H1686  O1696   1.014   .     S
H1687  O1698   1.014   .     S
H1688  O1700   1.013   .     S
H1689  O1702   1.013   .     S
H1690  O1704   1.014   .     S
H1691  O1707   1.009   .     S
H1692  O1709   1.014   .     S
N1693  Zn1727  2.026   .     S
N1694  Zn1728  2.026   .     S
O1695  Zn1727  2.030   .     S
O1706  Zn1728  2.030   .     S
O1717  Zn1727  2.011   .     S
O1721  Zn1728  2.011   .     S
O1722  Zn1727  2.000   .     S
O1723  Zn1728  2.000   .     S
O1724  Zn1727  2.001   .     S
O1725  Zn1728  2.001   .     S
