data_str_m1_o10_o16_pcu_sym.49
_audit_creation_date              2020-01-03
_audit_creation_method            'Materials Studio'
_symmetry_space_group_name_H-M    'P1'
_symmetry_Int_Tables_number       1
_symmetry_cell_setting            triclinic
loop_
_symmetry_equiv_pos_as_xyz
  x,y,z
_cell_length_a                    32.5492
_cell_length_b                    32.6612
_cell_length_c                    31.0692
_cell_angle_alpha                 96.4754
_cell_angle_beta                  73.7809
_cell_angle_gamma                 98.2647
loop_
_atom_site_label
_atom_site_type_symbol
_atom_site_fract_x
_atom_site_fract_y
_atom_site_fract_z
_atom_site_U_iso_or_equiv
_atom_site_adp_type
_atom_site_occupancy
C1     C     0.05262   0.15959   0.26085   0.00000  Uiso   1.00
C2     C     0.16625   0.15356   0.05963   0.00000  Uiso   1.00
C3     C     0.23642   0.13478   0.05572   0.00000  Uiso   1.00
C4     C     0.28104   0.17326   0.23902   0.00000  Uiso   1.00
C5     C     0.13717   0.19009   0.42134   0.00000  Uiso   1.00
C6     C     0.32765   0.17423   0.23188   0.00000  Uiso   1.00
C7     C     0.00773   0.15986   0.26390   0.00000  Uiso   1.00
C8     C     0.17945   0.32247   0.23751   0.00000  Uiso   1.00
C9     C     0.15081   0.01273   0.26513   0.00000  Uiso   1.00
C10    C     0.15661   0.05617   0.25980   0.00000  Uiso   1.00
C11    C     0.17637   0.27797   0.24035   0.00000  Uiso   1.00
C12    C     0.08151   0.19537   0.49256   0.00000  Uiso   1.00
C13    C     0.18573   0.14841   0.12930   0.00000  Uiso   1.00
C14    C     0.14850   0.18506   0.37121   0.00000  Uiso   1.00
C15    C     0.24928   0.13883   0.00979   0.00000  Uiso   1.00
C16    C     0.19522   0.14274   0.08064   0.00000  Uiso   1.00
C17    C     0.09566   0.20027   0.44629   0.00000  Uiso   1.00
C18    C     0.11369   0.33107   0.30019   0.00000  Uiso   1.00
C19    C     0.27949   0.15514   0.41591   0.00000  Uiso   1.00
C20    C     0.06676   0.21519   0.42511   0.00000  Uiso   1.00
C21    C     0.03876   0.20372   0.01869   0.00000  Uiso   1.00
C22    C     0.02462   0.19033   0.18977   0.00000  Uiso   1.00
C23    C     0.10804   0.18084   0.01418   0.00000  Uiso   1.00
C24    C     0.15062   0.17315   0.49122   0.00000  Uiso   1.00
C25    C     0.16575   0.17978   0.44473   0.00000  Uiso   1.00
C26    C     0.17873   0.15936   0.01316   0.00000  Uiso   1.00
C27    C     0.22150   0.15242   0.48819   0.00000  Uiso   1.00
C28    C     0.23636   0.16118   0.44282   0.00000  Uiso   1.00
C29    C     0.20941   0.17649   0.42251   0.00000  Uiso   1.00
H30    H     0.25925   0.12707   0.07222   0.00000  Uiso   1.00
H31    H     0.31844   0.15002   0.29494   0.00000  Uiso   1.00
H32    H     0.20615   0.00337   0.21194   0.00000  Uiso   1.00
H33    H     0.28186   0.13321   0.49183   0.00000  Uiso   1.00
H34    H     0.13542   0.16002   0.08138   0.00000  Uiso   1.00
H35    H     0.09422   0.17632   0.04930   0.00000  Uiso   1.00
H36    H     0.22360   0.18657   0.38903   0.00000  Uiso   1.00
H37    H     0.08376   0.21711   0.15837   0.00000  Uiso   1.00
N38    N     0.08401   0.31924   0.32823   0.00000  Uiso   1.00
N39    N     0.31386   0.15008   0.39426   0.00000  Uiso   1.00
N40    N     0.04372   0.22736   0.40839   0.00000  Uiso   1.00
N41    N     0.00458   0.21035   0.03958   0.00000  Uiso   1.00
O42    O     0.16667   0.16667   0.25000   0.00000  Uiso   1.00
O43    O     0.15451   0.12637   0.15458   0.00000  Uiso   1.00
O44    O     0.12940   0.20391   0.34968   0.00000  Uiso   1.00
O45    O     0.20824   0.17759   0.14606   0.00000  Uiso   1.00
O46    O     0.17451   0.15880   0.34968   0.00000  Uiso   1.00
O47    O     0.01245   0.18864   0.15568   0.00000  Uiso   1.00
O48    O     0.06668   0.20772   0.18896   0.00000  Uiso   1.00
O49    O     0.17930   0.08019   0.28213   0.00000  Uiso   1.00
O50    O     0.14632   0.26085   0.27013   0.00000  Uiso   1.00
O51    O     0.07412   0.13291   0.23413   0.00000  Uiso   1.00
O52    O     0.26693   0.19272   0.21360   0.00000  Uiso   1.00
O53    O     0.07071   0.18878   0.28213   0.00000  Uiso   1.00
O54    O     0.25491   0.15226   0.27013   0.00000  Uiso   1.00
O55    O     0.13760   0.06944   0.23413   0.00000  Uiso   1.00
O56    O     0.20345   0.25620   0.21360   0.00000  Uiso   1.00
Zn57   Zn    0.19338   0.13994   0.28734   0.00000  Uiso   1.00
Zn58   Zn    0.13379   0.12458   0.21875   0.00000  Uiso   1.00
Zn59   Zn    0.21056   0.19775   0.20657   0.00000  Uiso   1.00
Zn60   Zn    0.12893   0.20439   0.28733   0.00000  Uiso   1.00
C61    C     0.38595   0.15959   0.26085   0.00000  Uiso   1.00
C62    C     0.49958   0.15356   0.05963   0.00000  Uiso   1.00
C63    C     0.56975   0.13478   0.05572   0.00000  Uiso   1.00
C64    C     0.61437   0.17326   0.23902   0.00000  Uiso   1.00
C65    C     0.47051   0.19009   0.42134   0.00000  Uiso   1.00
C66    C     0.66098   0.17423   0.23188   0.00000  Uiso   1.00
C67    C     0.34107   0.15986   0.26390   0.00000  Uiso   1.00
C68    C     0.51278   0.32247   0.23751   0.00000  Uiso   1.00
C69    C     0.48415   0.01273   0.26513   0.00000  Uiso   1.00
C70    C     0.48995   0.05617   0.25980   0.00000  Uiso   1.00
C71    C     0.50970   0.27797   0.24035   0.00000  Uiso   1.00
C72    C     0.41485   0.19537   0.49256   0.00000  Uiso   1.00
C73    C     0.51906   0.14841   0.12930   0.00000  Uiso   1.00
C74    C     0.48183   0.18506   0.37121   0.00000  Uiso   1.00
C75    C     0.58261   0.13883   0.00979   0.00000  Uiso   1.00
C76    C     0.52855   0.14274   0.08064   0.00000  Uiso   1.00
C77    C     0.42899   0.20027   0.44629   0.00000  Uiso   1.00
C78    C     0.44702   0.33107   0.30019   0.00000  Uiso   1.00
C79    C     0.61282   0.15514   0.41591   0.00000  Uiso   1.00
C80    C     0.40009   0.21519   0.42511   0.00000  Uiso   1.00
C81    C     0.37209   0.20372   0.01869   0.00000  Uiso   1.00
C82    C     0.35796   0.19033   0.18977   0.00000  Uiso   1.00
C83    C     0.44138   0.18084   0.01418   0.00000  Uiso   1.00
C84    C     0.48395   0.17315   0.49122   0.00000  Uiso   1.00
C85    C     0.49909   0.17978   0.44473   0.00000  Uiso   1.00
C86    C     0.51206   0.15936   0.01316   0.00000  Uiso   1.00
C87    C     0.55483   0.15242   0.48819   0.00000  Uiso   1.00
C88    C     0.56969   0.16118   0.44282   0.00000  Uiso   1.00
C89    C     0.54275   0.17649   0.42251   0.00000  Uiso   1.00
H90    H     0.59259   0.12707   0.07222   0.00000  Uiso   1.00
H91    H     0.65178   0.15002   0.29494   0.00000  Uiso   1.00
H92    H     0.53949   0.00337   0.21194   0.00000  Uiso   1.00
H93    H     0.61520   0.13321   0.49183   0.00000  Uiso   1.00
H94    H     0.46875   0.16002   0.08138   0.00000  Uiso   1.00
H95    H     0.42755   0.17632   0.04930   0.00000  Uiso   1.00
H96    H     0.55694   0.18657   0.38903   0.00000  Uiso   1.00
H97    H     0.41709   0.21711   0.15837   0.00000  Uiso   1.00
N98    N     0.41734   0.31924   0.32823   0.00000  Uiso   1.00
N99    N     0.64720   0.15008   0.39426   0.00000  Uiso   1.00
N100   N     0.37705   0.22736   0.40839   0.00000  Uiso   1.00
N101   N     0.33791   0.21035   0.03958   0.00000  Uiso   1.00
O102   O     0.50000   0.16667   0.25000   0.00000  Uiso   1.00
O103   O     0.48784   0.12637   0.15458   0.00000  Uiso   1.00
O104   O     0.46274   0.20391   0.34968   0.00000  Uiso   1.00
O105   O     0.54157   0.17759   0.14606   0.00000  Uiso   1.00
O106   O     0.50785   0.15880   0.34968   0.00000  Uiso   1.00
O107   O     0.34578   0.18864   0.15568   0.00000  Uiso   1.00
O108   O     0.40001   0.20772   0.18896   0.00000  Uiso   1.00
O109   O     0.51264   0.08019   0.28213   0.00000  Uiso   1.00
O110   O     0.47965   0.26085   0.27013   0.00000  Uiso   1.00
O111   O     0.40745   0.13291   0.23413   0.00000  Uiso   1.00
O112   O     0.60026   0.19272   0.21360   0.00000  Uiso   1.00
O113   O     0.40405   0.18878   0.28213   0.00000  Uiso   1.00
O114   O     0.58824   0.15226   0.27013   0.00000  Uiso   1.00
O115   O     0.47093   0.06944   0.23413   0.00000  Uiso   1.00
O116   O     0.53678   0.25620   0.21360   0.00000  Uiso   1.00
Zn117  Zn    0.52672   0.13994   0.28734   0.00000  Uiso   1.00
Zn118  Zn    0.46713   0.12458   0.21875   0.00000  Uiso   1.00
Zn119  Zn    0.54389   0.19775   0.20657   0.00000  Uiso   1.00
Zn120  Zn    0.46226   0.20439   0.28733   0.00000  Uiso   1.00
C121   C     0.71928   0.15959   0.26085   0.00000  Uiso   1.00
C122   C     0.83291   0.15356   0.05963   0.00000  Uiso   1.00
C123   C     0.90308   0.13478   0.05572   0.00000  Uiso   1.00
C124   C     0.94770   0.17326   0.23902   0.00000  Uiso   1.00
C125   C     0.80384   0.19009   0.42134   0.00000  Uiso   1.00
C126   C     0.99431   0.17423   0.23188   0.00000  Uiso   1.00
C127   C     0.67440   0.15986   0.26390   0.00000  Uiso   1.00
C128   C     0.84611   0.32247   0.23751   0.00000  Uiso   1.00
C129   C     0.81748   0.01273   0.26513   0.00000  Uiso   1.00
C130   C     0.82328   0.05617   0.25980   0.00000  Uiso   1.00
C131   C     0.84304   0.27797   0.24035   0.00000  Uiso   1.00
C132   C     0.74818   0.19537   0.49256   0.00000  Uiso   1.00
C133   C     0.85240   0.14841   0.12930   0.00000  Uiso   1.00
C134   C     0.81516   0.18506   0.37121   0.00000  Uiso   1.00
C135   C     0.91595   0.13883   0.00979   0.00000  Uiso   1.00
C136   C     0.86189   0.14274   0.08064   0.00000  Uiso   1.00
C137   C     0.76233   0.20027   0.44629   0.00000  Uiso   1.00
C138   C     0.78035   0.33107   0.30019   0.00000  Uiso   1.00
C139   C     0.94616   0.15514   0.41591   0.00000  Uiso   1.00
C140   C     0.73342   0.21519   0.42511   0.00000  Uiso   1.00
C141   C     0.70542   0.20372   0.01869   0.00000  Uiso   1.00
C142   C     0.69129   0.19033   0.18977   0.00000  Uiso   1.00
C143   C     0.77471   0.18084   0.01418   0.00000  Uiso   1.00
C144   C     0.81728   0.17315   0.49122   0.00000  Uiso   1.00
C145   C     0.83242   0.17978   0.44473   0.00000  Uiso   1.00
C146   C     0.84540   0.15936   0.01316   0.00000  Uiso   1.00
C147   C     0.88816   0.15242   0.48819   0.00000  Uiso   1.00
C148   C     0.90303   0.16118   0.44282   0.00000  Uiso   1.00
C149   C     0.87608   0.17649   0.42251   0.00000  Uiso   1.00
H150   H     0.92592   0.12707   0.07222   0.00000  Uiso   1.00
H151   H     0.98511   0.15002   0.29494   0.00000  Uiso   1.00
H152   H     0.87282   0.00337   0.21194   0.00000  Uiso   1.00
H153   H     0.94853   0.13321   0.49183   0.00000  Uiso   1.00
H154   H     0.80209   0.16002   0.08138   0.00000  Uiso   1.00
H155   H     0.76089   0.17632   0.04930   0.00000  Uiso   1.00
H156   H     0.89027   0.18657   0.38903   0.00000  Uiso   1.00
H157   H     0.75043   0.21711   0.15837   0.00000  Uiso   1.00
N158   N     0.75067   0.31924   0.32823   0.00000  Uiso   1.00
N159   N     0.98053   0.15008   0.39426   0.00000  Uiso   1.00
N160   N     0.71039   0.22736   0.40839   0.00000  Uiso   1.00
N161   N     0.67125   0.21035   0.03958   0.00000  Uiso   1.00
O162   O     0.83333   0.16667   0.25000   0.00000  Uiso   1.00
O163   O     0.82118   0.12637   0.15458   0.00000  Uiso   1.00
O164   O     0.79607   0.20391   0.34968   0.00000  Uiso   1.00
O165   O     0.87491   0.17759   0.14606   0.00000  Uiso   1.00
O166   O     0.84118   0.15880   0.34968   0.00000  Uiso   1.00
O167   O     0.67912   0.18864   0.15568   0.00000  Uiso   1.00
O168   O     0.73335   0.20772   0.18896   0.00000  Uiso   1.00
O169   O     0.84597   0.08019   0.28213   0.00000  Uiso   1.00
O170   O     0.81298   0.26085   0.27013   0.00000  Uiso   1.00
O171   O     0.74078   0.13291   0.23413   0.00000  Uiso   1.00
O172   O     0.93360   0.19272   0.21360   0.00000  Uiso   1.00
O173   O     0.73738   0.18878   0.28213   0.00000  Uiso   1.00
O174   O     0.92158   0.15226   0.27013   0.00000  Uiso   1.00
O175   O     0.80426   0.06944   0.23413   0.00000  Uiso   1.00
O176   O     0.87012   0.25620   0.21360   0.00000  Uiso   1.00
Zn177  Zn    0.86005   0.13994   0.28734   0.00000  Uiso   1.00
Zn178  Zn    0.80046   0.12458   0.21875   0.00000  Uiso   1.00
Zn179  Zn    0.87723   0.19775   0.20657   0.00000  Uiso   1.00
Zn180  Zn    0.79560   0.20439   0.28733   0.00000  Uiso   1.00
C181   C     0.05262   0.49292   0.26085   0.00000  Uiso   1.00
C182   C     0.16625   0.48689   0.05963   0.00000  Uiso   1.00
C183   C     0.23642   0.46812   0.05572   0.00000  Uiso   1.00
C184   C     0.28104   0.50659   0.23902   0.00000  Uiso   1.00
C185   C     0.13717   0.52343   0.42134   0.00000  Uiso   1.00
C186   C     0.32765   0.50757   0.23188   0.00000  Uiso   1.00
C187   C     0.00773   0.49319   0.26390   0.00000  Uiso   1.00
C188   C     0.17945   0.65580   0.23751   0.00000  Uiso   1.00
C189   C     0.15081   0.34607   0.26513   0.00000  Uiso   1.00
C190   C     0.15661   0.38951   0.25980   0.00000  Uiso   1.00
C191   C     0.17637   0.61130   0.24035   0.00000  Uiso   1.00
C192   C     0.08151   0.52870   0.49256   0.00000  Uiso   1.00
C193   C     0.18573   0.48175   0.12930   0.00000  Uiso   1.00
C194   C     0.14850   0.51840   0.37121   0.00000  Uiso   1.00
C195   C     0.24928   0.47216   0.00979   0.00000  Uiso   1.00
C196   C     0.19522   0.47608   0.08064   0.00000  Uiso   1.00
C197   C     0.09566   0.53361   0.44629   0.00000  Uiso   1.00
C198   C     0.11369   0.66441   0.30019   0.00000  Uiso   1.00
C199   C     0.27949   0.48847   0.41591   0.00000  Uiso   1.00
C200   C     0.06676   0.54853   0.42511   0.00000  Uiso   1.00
C201   C     0.03876   0.53706   0.01869   0.00000  Uiso   1.00
C202   C     0.02462   0.52366   0.18977   0.00000  Uiso   1.00
C203   C     0.10804   0.51417   0.01418   0.00000  Uiso   1.00
C204   C     0.15062   0.50648   0.49122   0.00000  Uiso   1.00
C205   C     0.16575   0.51312   0.44473   0.00000  Uiso   1.00
C206   C     0.17873   0.49269   0.01316   0.00000  Uiso   1.00
C207   C     0.22150   0.48575   0.48819   0.00000  Uiso   1.00
C208   C     0.23636   0.49451   0.44282   0.00000  Uiso   1.00
C209   C     0.20941   0.50982   0.42251   0.00000  Uiso   1.00
H210   H     0.25925   0.46040   0.07222   0.00000  Uiso   1.00
H211   H     0.31844   0.48335   0.29494   0.00000  Uiso   1.00
H212   H     0.20615   0.33670   0.21194   0.00000  Uiso   1.00
H213   H     0.28186   0.46654   0.49183   0.00000  Uiso   1.00
H214   H     0.13542   0.49335   0.08138   0.00000  Uiso   1.00
H215   H     0.09422   0.50965   0.04930   0.00000  Uiso   1.00
H216   H     0.22360   0.51990   0.38903   0.00000  Uiso   1.00
H217   H     0.08376   0.55045   0.15837   0.00000  Uiso   1.00
N218   N     0.08401   0.65257   0.32823   0.00000  Uiso   1.00
N219   N     0.31386   0.48341   0.39426   0.00000  Uiso   1.00
N220   N     0.04372   0.56069   0.40839   0.00000  Uiso   1.00
N221   N     0.00458   0.54368   0.03958   0.00000  Uiso   1.00
O222   O     0.16667   0.50000   0.25000   0.00000  Uiso   1.00
O223   O     0.15451   0.45970   0.15458   0.00000  Uiso   1.00
O224   O     0.12940   0.53724   0.34968   0.00000  Uiso   1.00
O225   O     0.20824   0.51092   0.14606   0.00000  Uiso   1.00
O226   O     0.17451   0.49213   0.34968   0.00000  Uiso   1.00
O227   O     0.01245   0.52197   0.15568   0.00000  Uiso   1.00
O228   O     0.06668   0.54105   0.18896   0.00000  Uiso   1.00
O229   O     0.17930   0.41352   0.28213   0.00000  Uiso   1.00
O230   O     0.14632   0.59418   0.27013   0.00000  Uiso   1.00
O231   O     0.07412   0.46625   0.23413   0.00000  Uiso   1.00
O232   O     0.26693   0.52605   0.21360   0.00000  Uiso   1.00
O233   O     0.07071   0.52211   0.28213   0.00000  Uiso   1.00
O234   O     0.25491   0.48559   0.27013   0.00000  Uiso   1.00
O235   O     0.13760   0.40277   0.23413   0.00000  Uiso   1.00
O236   O     0.20345   0.58953   0.21360   0.00000  Uiso   1.00
Zn237  Zn    0.19338   0.47327   0.28734   0.00000  Uiso   1.00
Zn238  Zn    0.13379   0.45791   0.21875   0.00000  Uiso   1.00
Zn239  Zn    0.21056   0.53109   0.20657   0.00000  Uiso   1.00
Zn240  Zn    0.12893   0.53773   0.28733   0.00000  Uiso   1.00
C241   C     0.38595   0.49292   0.26085   0.00000  Uiso   1.00
C242   C     0.49958   0.48689   0.05963   0.00000  Uiso   1.00
C243   C     0.56975   0.46812   0.05572   0.00000  Uiso   1.00
C244   C     0.61437   0.50659   0.23902   0.00000  Uiso   1.00
C245   C     0.47051   0.52343   0.42134   0.00000  Uiso   1.00
C246   C     0.66098   0.50757   0.23188   0.00000  Uiso   1.00
C247   C     0.34107   0.49319   0.26390   0.00000  Uiso   1.00
C248   C     0.51278   0.65580   0.23751   0.00000  Uiso   1.00
C249   C     0.48415   0.34607   0.26513   0.00000  Uiso   1.00
C250   C     0.48995   0.38951   0.25980   0.00000  Uiso   1.00
C251   C     0.50970   0.61130   0.24035   0.00000  Uiso   1.00
C252   C     0.41485   0.52870   0.49256   0.00000  Uiso   1.00
C253   C     0.51906   0.48175   0.12930   0.00000  Uiso   1.00
C254   C     0.48183   0.51840   0.37121   0.00000  Uiso   1.00
C255   C     0.58261   0.47216   0.00979   0.00000  Uiso   1.00
C256   C     0.52855   0.47608   0.08064   0.00000  Uiso   1.00
C257   C     0.42899   0.53361   0.44629   0.00000  Uiso   1.00
C258   C     0.44702   0.66441   0.30019   0.00000  Uiso   1.00
C259   C     0.61282   0.48847   0.41591   0.00000  Uiso   1.00
C260   C     0.40009   0.54853   0.42511   0.00000  Uiso   1.00
C261   C     0.37209   0.53706   0.01869   0.00000  Uiso   1.00
C262   C     0.35796   0.52366   0.18977   0.00000  Uiso   1.00
C263   C     0.44138   0.51417   0.01418   0.00000  Uiso   1.00
C264   C     0.48395   0.50648   0.49122   0.00000  Uiso   1.00
C265   C     0.49909   0.51312   0.44473   0.00000  Uiso   1.00
C266   C     0.51206   0.49269   0.01316   0.00000  Uiso   1.00
C267   C     0.55483   0.48575   0.48819   0.00000  Uiso   1.00
C268   C     0.56969   0.49451   0.44282   0.00000  Uiso   1.00
C269   C     0.54275   0.50982   0.42251   0.00000  Uiso   1.00
H270   H     0.59259   0.46040   0.07222   0.00000  Uiso   1.00
H271   H     0.65178   0.48335   0.29494   0.00000  Uiso   1.00
H272   H     0.53949   0.33670   0.21194   0.00000  Uiso   1.00
H273   H     0.61520   0.46654   0.49183   0.00000  Uiso   1.00
H274   H     0.46875   0.49335   0.08138   0.00000  Uiso   1.00
H275   H     0.42755   0.50965   0.04930   0.00000  Uiso   1.00
H276   H     0.55694   0.51990   0.38903   0.00000  Uiso   1.00
H277   H     0.41709   0.55045   0.15837   0.00000  Uiso   1.00
N278   N     0.41734   0.65257   0.32823   0.00000  Uiso   1.00
N279   N     0.64720   0.48341   0.39426   0.00000  Uiso   1.00
N280   N     0.37705   0.56069   0.40839   0.00000  Uiso   1.00
N281   N     0.33791   0.54368   0.03958   0.00000  Uiso   1.00
O282   O     0.50000   0.50000   0.25000   0.00000  Uiso   1.00
O283   O     0.48784   0.45970   0.15458   0.00000  Uiso   1.00
O284   O     0.46274   0.53724   0.34968   0.00000  Uiso   1.00
O285   O     0.54157   0.51092   0.14606   0.00000  Uiso   1.00
O286   O     0.50785   0.49213   0.34968   0.00000  Uiso   1.00
O287   O     0.34578   0.52197   0.15568   0.00000  Uiso   1.00
O288   O     0.40001   0.54105   0.18896   0.00000  Uiso   1.00
O289   O     0.51264   0.41352   0.28213   0.00000  Uiso   1.00
O290   O     0.47965   0.59418   0.27013   0.00000  Uiso   1.00
O291   O     0.40745   0.46625   0.23413   0.00000  Uiso   1.00
O292   O     0.60026   0.52605   0.21360   0.00000  Uiso   1.00
O293   O     0.40405   0.52211   0.28213   0.00000  Uiso   1.00
O294   O     0.58824   0.48559   0.27013   0.00000  Uiso   1.00
O295   O     0.47093   0.40277   0.23413   0.00000  Uiso   1.00
O296   O     0.53678   0.58953   0.21360   0.00000  Uiso   1.00
Zn297  Zn    0.52672   0.47327   0.28734   0.00000  Uiso   1.00
Zn298  Zn    0.46713   0.45791   0.21875   0.00000  Uiso   1.00
Zn299  Zn    0.54389   0.53109   0.20657   0.00000  Uiso   1.00
Zn300  Zn    0.46226   0.53773   0.28733   0.00000  Uiso   1.00
C301   C     0.71928   0.49292   0.26085   0.00000  Uiso   1.00
C302   C     0.83291   0.48689   0.05963   0.00000  Uiso   1.00
C303   C     0.90308   0.46812   0.05572   0.00000  Uiso   1.00
C304   C     0.94770   0.50659   0.23902   0.00000  Uiso   1.00
C305   C     0.80384   0.52343   0.42134   0.00000  Uiso   1.00
C306   C     0.99431   0.50757   0.23188   0.00000  Uiso   1.00
C307   C     0.67440   0.49319   0.26390   0.00000  Uiso   1.00
C308   C     0.84611   0.65580   0.23751   0.00000  Uiso   1.00
C309   C     0.81748   0.34607   0.26513   0.00000  Uiso   1.00
C310   C     0.82328   0.38951   0.25980   0.00000  Uiso   1.00
C311   C     0.84304   0.61130   0.24035   0.00000  Uiso   1.00
C312   C     0.74818   0.52870   0.49256   0.00000  Uiso   1.00
C313   C     0.85240   0.48175   0.12930   0.00000  Uiso   1.00
C314   C     0.81516   0.51840   0.37121   0.00000  Uiso   1.00
C315   C     0.91595   0.47216   0.00979   0.00000  Uiso   1.00
C316   C     0.86189   0.47608   0.08064   0.00000  Uiso   1.00
C317   C     0.76233   0.53361   0.44629   0.00000  Uiso   1.00
C318   C     0.78035   0.66441   0.30019   0.00000  Uiso   1.00
C319   C     0.94616   0.48847   0.41591   0.00000  Uiso   1.00
C320   C     0.73342   0.54853   0.42511   0.00000  Uiso   1.00
C321   C     0.70542   0.53706   0.01869   0.00000  Uiso   1.00
C322   C     0.69129   0.52366   0.18977   0.00000  Uiso   1.00
C323   C     0.77471   0.51417   0.01418   0.00000  Uiso   1.00
C324   C     0.81728   0.50648   0.49122   0.00000  Uiso   1.00
C325   C     0.83242   0.51312   0.44473   0.00000  Uiso   1.00
C326   C     0.84540   0.49269   0.01316   0.00000  Uiso   1.00
C327   C     0.88816   0.48575   0.48819   0.00000  Uiso   1.00
C328   C     0.90303   0.49451   0.44282   0.00000  Uiso   1.00
C329   C     0.87608   0.50982   0.42251   0.00000  Uiso   1.00
H330   H     0.92592   0.46040   0.07222   0.00000  Uiso   1.00
H331   H     0.98511   0.48335   0.29494   0.00000  Uiso   1.00
H332   H     0.87282   0.33670   0.21194   0.00000  Uiso   1.00
H333   H     0.94853   0.46654   0.49183   0.00000  Uiso   1.00
H334   H     0.80209   0.49335   0.08138   0.00000  Uiso   1.00
H335   H     0.76089   0.50965   0.04930   0.00000  Uiso   1.00
H336   H     0.89027   0.51990   0.38903   0.00000  Uiso   1.00
H337   H     0.75043   0.55045   0.15837   0.00000  Uiso   1.00
N338   N     0.75067   0.65257   0.32823   0.00000  Uiso   1.00
N339   N     0.98053   0.48341   0.39426   0.00000  Uiso   1.00
N340   N     0.71039   0.56069   0.40839   0.00000  Uiso   1.00
N341   N     0.67125   0.54368   0.03958   0.00000  Uiso   1.00
O342   O     0.83333   0.50000   0.25000   0.00000  Uiso   1.00
O343   O     0.82118   0.45970   0.15458   0.00000  Uiso   1.00
O344   O     0.79607   0.53724   0.34968   0.00000  Uiso   1.00
O345   O     0.87491   0.51092   0.14606   0.00000  Uiso   1.00
O346   O     0.84118   0.49213   0.34968   0.00000  Uiso   1.00
O347   O     0.67912   0.52197   0.15568   0.00000  Uiso   1.00
O348   O     0.73335   0.54105   0.18896   0.00000  Uiso   1.00
O349   O     0.84597   0.41352   0.28213   0.00000  Uiso   1.00
O350   O     0.81298   0.59418   0.27013   0.00000  Uiso   1.00
O351   O     0.74078   0.46625   0.23413   0.00000  Uiso   1.00
O352   O     0.93360   0.52605   0.21360   0.00000  Uiso   1.00
O353   O     0.73738   0.52211   0.28213   0.00000  Uiso   1.00
O354   O     0.92158   0.48559   0.27013   0.00000  Uiso   1.00
O355   O     0.80426   0.40277   0.23413   0.00000  Uiso   1.00
O356   O     0.87012   0.58953   0.21360   0.00000  Uiso   1.00
Zn357  Zn    0.86005   0.47327   0.28734   0.00000  Uiso   1.00
Zn358  Zn    0.80046   0.45791   0.21875   0.00000  Uiso   1.00
Zn359  Zn    0.87723   0.53109   0.20657   0.00000  Uiso   1.00
Zn360  Zn    0.79560   0.53773   0.28733   0.00000  Uiso   1.00
C361   C     0.05262   0.82625   0.26085   0.00000  Uiso   1.00
C362   C     0.16625   0.82023   0.05963   0.00000  Uiso   1.00
C363   C     0.23642   0.80145   0.05572   0.00000  Uiso   1.00
C364   C     0.28104   0.83992   0.23902   0.00000  Uiso   1.00
C365   C     0.13717   0.85676   0.42134   0.00000  Uiso   1.00
C366   C     0.32765   0.84090   0.23188   0.00000  Uiso   1.00
C367   C     0.00773   0.82653   0.26390   0.00000  Uiso   1.00
C368   C     0.17945   0.98913   0.23751   0.00000  Uiso   1.00
C369   C     0.15081   0.67940   0.26513   0.00000  Uiso   1.00
C370   C     0.15661   0.72284   0.25980   0.00000  Uiso   1.00
C371   C     0.17637   0.94463   0.24035   0.00000  Uiso   1.00
C372   C     0.08151   0.86203   0.49256   0.00000  Uiso   1.00
C373   C     0.18573   0.81508   0.12930   0.00000  Uiso   1.00
C374   C     0.14850   0.85173   0.37121   0.00000  Uiso   1.00
C375   C     0.24928   0.80549   0.00979   0.00000  Uiso   1.00
C376   C     0.19522   0.80941   0.08064   0.00000  Uiso   1.00
C377   C     0.09566   0.86694   0.44629   0.00000  Uiso   1.00
C378   C     0.11369   0.99774   0.30019   0.00000  Uiso   1.00
C379   C     0.27949   0.82180   0.41591   0.00000  Uiso   1.00
C380   C     0.06676   0.88186   0.42511   0.00000  Uiso   1.00
C381   C     0.03876   0.87039   0.01869   0.00000  Uiso   1.00
C382   C     0.02462   0.85699   0.18977   0.00000  Uiso   1.00
C383   C     0.10804   0.84751   0.01418   0.00000  Uiso   1.00
C384   C     0.15062   0.83982   0.49122   0.00000  Uiso   1.00
C385   C     0.16575   0.84645   0.44473   0.00000  Uiso   1.00
C386   C     0.17873   0.82603   0.01316   0.00000  Uiso   1.00
C387   C     0.22150   0.81908   0.48819   0.00000  Uiso   1.00
C388   C     0.23636   0.82784   0.44282   0.00000  Uiso   1.00
C389   C     0.20941   0.84316   0.42251   0.00000  Uiso   1.00
H390   H     0.25925   0.79374   0.07222   0.00000  Uiso   1.00
H391   H     0.31844   0.81668   0.29494   0.00000  Uiso   1.00
H392   H     0.20615   0.67003   0.21194   0.00000  Uiso   1.00
H393   H     0.28186   0.79988   0.49183   0.00000  Uiso   1.00
H394   H     0.13542   0.82668   0.08138   0.00000  Uiso   1.00
H395   H     0.09422   0.84298   0.04930   0.00000  Uiso   1.00
H396   H     0.22360   0.85323   0.38903   0.00000  Uiso   1.00
H397   H     0.08376   0.88378   0.15837   0.00000  Uiso   1.00
N398   N     0.08401   0.98591   0.32823   0.00000  Uiso   1.00
N399   N     0.31386   0.81675   0.39426   0.00000  Uiso   1.00
N400   N     0.04372   0.89403   0.40839   0.00000  Uiso   1.00
N401   N     0.00458   0.87702   0.03958   0.00000  Uiso   1.00
O402   O     0.16667   0.83333   0.25000   0.00000  Uiso   1.00
O403   O     0.15451   0.79304   0.15458   0.00000  Uiso   1.00
O404   O     0.12940   0.87058   0.34968   0.00000  Uiso   1.00
O405   O     0.20824   0.84425   0.14606   0.00000  Uiso   1.00
O406   O     0.17451   0.82546   0.34968   0.00000  Uiso   1.00
O407   O     0.01245   0.85531   0.15568   0.00000  Uiso   1.00
O408   O     0.06668   0.87439   0.18896   0.00000  Uiso   1.00
O409   O     0.17930   0.74686   0.28213   0.00000  Uiso   1.00
O410   O     0.14632   0.92751   0.27013   0.00000  Uiso   1.00
O411   O     0.07412   0.79958   0.23413   0.00000  Uiso   1.00
O412   O     0.26693   0.85939   0.21360   0.00000  Uiso   1.00
O413   O     0.07071   0.85544   0.28213   0.00000  Uiso   1.00
O414   O     0.25491   0.81892   0.27013   0.00000  Uiso   1.00
O415   O     0.13760   0.73610   0.23413   0.00000  Uiso   1.00
O416   O     0.20345   0.92286   0.21360   0.00000  Uiso   1.00
Zn417  Zn    0.19338   0.80661   0.28734   0.00000  Uiso   1.00
Zn418  Zn    0.13379   0.79124   0.21875   0.00000  Uiso   1.00
Zn419  Zn    0.21056   0.86442   0.20657   0.00000  Uiso   1.00
Zn420  Zn    0.12893   0.87106   0.28733   0.00000  Uiso   1.00
C421   C     0.38595   0.82625   0.26085   0.00000  Uiso   1.00
C422   C     0.49958   0.82023   0.05963   0.00000  Uiso   1.00
C423   C     0.56975   0.80145   0.05572   0.00000  Uiso   1.00
C424   C     0.61437   0.83992   0.23902   0.00000  Uiso   1.00
C425   C     0.47051   0.85676   0.42134   0.00000  Uiso   1.00
C426   C     0.66098   0.84090   0.23188   0.00000  Uiso   1.00
C427   C     0.34107   0.82653   0.26390   0.00000  Uiso   1.00
C428   C     0.51278   0.98913   0.23751   0.00000  Uiso   1.00
C429   C     0.48415   0.67940   0.26513   0.00000  Uiso   1.00
C430   C     0.48995   0.72284   0.25980   0.00000  Uiso   1.00
C431   C     0.50970   0.94463   0.24035   0.00000  Uiso   1.00
C432   C     0.41485   0.86203   0.49256   0.00000  Uiso   1.00
C433   C     0.51906   0.81508   0.12930   0.00000  Uiso   1.00
C434   C     0.48183   0.85173   0.37121   0.00000  Uiso   1.00
C435   C     0.58261   0.80549   0.00979   0.00000  Uiso   1.00
C436   C     0.52855   0.80941   0.08064   0.00000  Uiso   1.00
C437   C     0.42899   0.86694   0.44629   0.00000  Uiso   1.00
C438   C     0.44702   0.99774   0.30019   0.00000  Uiso   1.00
C439   C     0.61282   0.82180   0.41591   0.00000  Uiso   1.00
C440   C     0.40009   0.88186   0.42511   0.00000  Uiso   1.00
C441   C     0.37209   0.87039   0.01869   0.00000  Uiso   1.00
C442   C     0.35796   0.85699   0.18977   0.00000  Uiso   1.00
C443   C     0.44138   0.84751   0.01418   0.00000  Uiso   1.00
C444   C     0.48395   0.83982   0.49122   0.00000  Uiso   1.00
C445   C     0.49909   0.84645   0.44473   0.00000  Uiso   1.00
C446   C     0.51206   0.82603   0.01316   0.00000  Uiso   1.00
C447   C     0.55483   0.81908   0.48819   0.00000  Uiso   1.00
C448   C     0.56969   0.82784   0.44282   0.00000  Uiso   1.00
C449   C     0.54275   0.84316   0.42251   0.00000  Uiso   1.00
H450   H     0.59259   0.79374   0.07222   0.00000  Uiso   1.00
H451   H     0.65178   0.81668   0.29494   0.00000  Uiso   1.00
H452   H     0.53949   0.67003   0.21194   0.00000  Uiso   1.00
H453   H     0.61520   0.79988   0.49183   0.00000  Uiso   1.00
H454   H     0.46875   0.82668   0.08138   0.00000  Uiso   1.00
H455   H     0.42755   0.84298   0.04930   0.00000  Uiso   1.00
H456   H     0.55694   0.85323   0.38903   0.00000  Uiso   1.00
H457   H     0.41709   0.88378   0.15837   0.00000  Uiso   1.00
N458   N     0.41734   0.98591   0.32823   0.00000  Uiso   1.00
N459   N     0.64720   0.81675   0.39426   0.00000  Uiso   1.00
N460   N     0.37705   0.89403   0.40839   0.00000  Uiso   1.00
N461   N     0.33791   0.87702   0.03958   0.00000  Uiso   1.00
O462   O     0.50000   0.83333   0.25000   0.00000  Uiso   1.00
O463   O     0.48784   0.79304   0.15458   0.00000  Uiso   1.00
O464   O     0.46274   0.87058   0.34968   0.00000  Uiso   1.00
O465   O     0.54157   0.84425   0.14606   0.00000  Uiso   1.00
O466   O     0.50785   0.82546   0.34968   0.00000  Uiso   1.00
O467   O     0.34578   0.85531   0.15568   0.00000  Uiso   1.00
O468   O     0.40001   0.87439   0.18896   0.00000  Uiso   1.00
O469   O     0.51264   0.74686   0.28213   0.00000  Uiso   1.00
O470   O     0.47965   0.92751   0.27013   0.00000  Uiso   1.00
O471   O     0.40745   0.79958   0.23413   0.00000  Uiso   1.00
O472   O     0.60026   0.85939   0.21360   0.00000  Uiso   1.00
O473   O     0.40405   0.85544   0.28213   0.00000  Uiso   1.00
O474   O     0.58824   0.81892   0.27013   0.00000  Uiso   1.00
O475   O     0.47093   0.73610   0.23413   0.00000  Uiso   1.00
O476   O     0.53678   0.92286   0.21360   0.00000  Uiso   1.00
Zn477  Zn    0.52672   0.80661   0.28734   0.00000  Uiso   1.00
Zn478  Zn    0.46713   0.79124   0.21875   0.00000  Uiso   1.00
Zn479  Zn    0.54389   0.86442   0.20657   0.00000  Uiso   1.00
Zn480  Zn    0.46226   0.87106   0.28733   0.00000  Uiso   1.00
C481   C     0.71928   0.82625   0.26085   0.00000  Uiso   1.00
C482   C     0.83291   0.82023   0.05963   0.00000  Uiso   1.00
C483   C     0.90308   0.80145   0.05572   0.00000  Uiso   1.00
C484   C     0.94770   0.83992   0.23902   0.00000  Uiso   1.00
C485   C     0.80384   0.85676   0.42134   0.00000  Uiso   1.00
C486   C     0.99431   0.84090   0.23188   0.00000  Uiso   1.00
C487   C     0.67440   0.82653   0.26390   0.00000  Uiso   1.00
C488   C     0.84611   0.98913   0.23751   0.00000  Uiso   1.00
C489   C     0.81748   0.67940   0.26513   0.00000  Uiso   1.00
C490   C     0.82328   0.72284   0.25980   0.00000  Uiso   1.00
C491   C     0.84304   0.94463   0.24035   0.00000  Uiso   1.00
C492   C     0.74818   0.86203   0.49256   0.00000  Uiso   1.00
C493   C     0.85240   0.81508   0.12930   0.00000  Uiso   1.00
C494   C     0.81516   0.85173   0.37121   0.00000  Uiso   1.00
C495   C     0.91595   0.80549   0.00979   0.00000  Uiso   1.00
C496   C     0.86189   0.80941   0.08064   0.00000  Uiso   1.00
C497   C     0.76233   0.86694   0.44629   0.00000  Uiso   1.00
C498   C     0.78035   0.99774   0.30019   0.00000  Uiso   1.00
C499   C     0.94616   0.82180   0.41591   0.00000  Uiso   1.00
C500   C     0.73342   0.88186   0.42511   0.00000  Uiso   1.00
C501   C     0.70542   0.87039   0.01869   0.00000  Uiso   1.00
C502   C     0.69129   0.85699   0.18977   0.00000  Uiso   1.00
C503   C     0.77471   0.84751   0.01418   0.00000  Uiso   1.00
C504   C     0.81728   0.83982   0.49122   0.00000  Uiso   1.00
C505   C     0.83242   0.84645   0.44473   0.00000  Uiso   1.00
C506   C     0.84540   0.82603   0.01316   0.00000  Uiso   1.00
C507   C     0.88816   0.81908   0.48819   0.00000  Uiso   1.00
C508   C     0.90303   0.82784   0.44282   0.00000  Uiso   1.00
C509   C     0.87608   0.84316   0.42251   0.00000  Uiso   1.00
H510   H     0.92592   0.79374   0.07222   0.00000  Uiso   1.00
H511   H     0.98511   0.81668   0.29494   0.00000  Uiso   1.00
H512   H     0.87282   0.67003   0.21194   0.00000  Uiso   1.00
H513   H     0.94853   0.79988   0.49183   0.00000  Uiso   1.00
H514   H     0.80209   0.82668   0.08138   0.00000  Uiso   1.00
H515   H     0.76089   0.84298   0.04930   0.00000  Uiso   1.00
H516   H     0.89027   0.85323   0.38903   0.00000  Uiso   1.00
H517   H     0.75043   0.88378   0.15837   0.00000  Uiso   1.00
N518   N     0.75067   0.98591   0.32823   0.00000  Uiso   1.00
N519   N     0.98053   0.81675   0.39426   0.00000  Uiso   1.00
N520   N     0.71039   0.89403   0.40839   0.00000  Uiso   1.00
N521   N     0.67125   0.87702   0.03958   0.00000  Uiso   1.00
O522   O     0.83333   0.83333   0.25000   0.00000  Uiso   1.00
O523   O     0.82118   0.79304   0.15458   0.00000  Uiso   1.00
O524   O     0.79607   0.87058   0.34968   0.00000  Uiso   1.00
O525   O     0.87491   0.84425   0.14606   0.00000  Uiso   1.00
O526   O     0.84118   0.82546   0.34968   0.00000  Uiso   1.00
O527   O     0.67912   0.85531   0.15568   0.00000  Uiso   1.00
O528   O     0.73335   0.87439   0.18896   0.00000  Uiso   1.00
O529   O     0.84597   0.74686   0.28213   0.00000  Uiso   1.00
O530   O     0.81298   0.92751   0.27013   0.00000  Uiso   1.00
O531   O     0.74078   0.79958   0.23413   0.00000  Uiso   1.00
O532   O     0.93360   0.85939   0.21360   0.00000  Uiso   1.00
O533   O     0.73738   0.85544   0.28213   0.00000  Uiso   1.00
O534   O     0.92158   0.81892   0.27013   0.00000  Uiso   1.00
O535   O     0.80426   0.73610   0.23413   0.00000  Uiso   1.00
O536   O     0.87012   0.92286   0.21360   0.00000  Uiso   1.00
Zn537  Zn    0.86005   0.80661   0.28734   0.00000  Uiso   1.00
Zn538  Zn    0.80046   0.79124   0.21875   0.00000  Uiso   1.00
Zn539  Zn    0.87723   0.86442   0.20657   0.00000  Uiso   1.00
Zn540  Zn    0.79560   0.87106   0.28733   0.00000  Uiso   1.00
C541   C     0.05262   0.15959   0.76085   0.00000  Uiso   1.00
C542   C     0.16625   0.15356   0.55963   0.00000  Uiso   1.00
C543   C     0.23642   0.13478   0.55572   0.00000  Uiso   1.00
C544   C     0.28104   0.17326   0.73902   0.00000  Uiso   1.00
C545   C     0.13717   0.19009   0.92134   0.00000  Uiso   1.00
C546   C     0.32765   0.17423   0.73188   0.00000  Uiso   1.00
C547   C     0.00773   0.15986   0.76390   0.00000  Uiso   1.00
C548   C     0.17945   0.32247   0.73751   0.00000  Uiso   1.00
C549   C     0.15081   0.01273   0.76513   0.00000  Uiso   1.00
C550   C     0.15661   0.05617   0.75980   0.00000  Uiso   1.00
C551   C     0.17637   0.27797   0.74035   0.00000  Uiso   1.00
C552   C     0.08151   0.19537   0.99256   0.00000  Uiso   1.00
C553   C     0.18573   0.14841   0.62930   0.00000  Uiso   1.00
C554   C     0.14850   0.18506   0.87121   0.00000  Uiso   1.00
C555   C     0.24928   0.13883   0.50979   0.00000  Uiso   1.00
C556   C     0.19522   0.14274   0.58064   0.00000  Uiso   1.00
C557   C     0.09566   0.20027   0.94629   0.00000  Uiso   1.00
C558   C     0.11369   0.33107   0.80019   0.00000  Uiso   1.00
C559   C     0.27949   0.15514   0.91591   0.00000  Uiso   1.00
C560   C     0.06676   0.21519   0.92511   0.00000  Uiso   1.00
C561   C     0.03876   0.20372   0.51869   0.00000  Uiso   1.00
C562   C     0.02462   0.19033   0.68977   0.00000  Uiso   1.00
C563   C     0.10804   0.18084   0.51418   0.00000  Uiso   1.00
C564   C     0.15062   0.17315   0.99122   0.00000  Uiso   1.00
C565   C     0.16575   0.17978   0.94473   0.00000  Uiso   1.00
C566   C     0.17873   0.15936   0.51316   0.00000  Uiso   1.00
C567   C     0.22150   0.15242   0.98819   0.00000  Uiso   1.00
C568   C     0.23636   0.16118   0.94282   0.00000  Uiso   1.00
C569   C     0.20941   0.17649   0.92251   0.00000  Uiso   1.00
H570   H     0.25925   0.12707   0.57222   0.00000  Uiso   1.00
H571   H     0.31844   0.15002   0.79494   0.00000  Uiso   1.00
H572   H     0.20615   0.00337   0.71194   0.00000  Uiso   1.00
H573   H     0.28186   0.13321   0.99183   0.00000  Uiso   1.00
H574   H     0.13542   0.16002   0.58138   0.00000  Uiso   1.00
H575   H     0.09422   0.17632   0.54930   0.00000  Uiso   1.00
H576   H     0.22360   0.18657   0.88903   0.00000  Uiso   1.00
H577   H     0.08376   0.21711   0.65837   0.00000  Uiso   1.00
N578   N     0.08401   0.31924   0.82823   0.00000  Uiso   1.00
N579   N     0.31386   0.15008   0.89426   0.00000  Uiso   1.00
N580   N     0.04372   0.22736   0.90839   0.00000  Uiso   1.00
N581   N     0.00458   0.21035   0.53958   0.00000  Uiso   1.00
O582   O     0.16667   0.16667   0.75000   0.00000  Uiso   1.00
O583   O     0.15451   0.12637   0.65458   0.00000  Uiso   1.00
O584   O     0.12940   0.20391   0.84968   0.00000  Uiso   1.00
O585   O     0.20824   0.17759   0.64606   0.00000  Uiso   1.00
O586   O     0.17451   0.15880   0.84968   0.00000  Uiso   1.00
O587   O     0.01245   0.18864   0.65568   0.00000  Uiso   1.00
O588   O     0.06668   0.20772   0.68896   0.00000  Uiso   1.00
O589   O     0.17930   0.08019   0.78213   0.00000  Uiso   1.00
O590   O     0.14632   0.26085   0.77013   0.00000  Uiso   1.00
O591   O     0.07412   0.13291   0.73413   0.00000  Uiso   1.00
O592   O     0.26693   0.19272   0.71360   0.00000  Uiso   1.00
O593   O     0.07071   0.18878   0.78213   0.00000  Uiso   1.00
O594   O     0.25491   0.15226   0.77013   0.00000  Uiso   1.00
O595   O     0.13760   0.06944   0.73413   0.00000  Uiso   1.00
O596   O     0.20345   0.25620   0.71360   0.00000  Uiso   1.00
Zn597  Zn    0.19338   0.13994   0.78734   0.00000  Uiso   1.00
Zn598  Zn    0.13379   0.12458   0.71875   0.00000  Uiso   1.00
Zn599  Zn    0.21056   0.19775   0.70657   0.00000  Uiso   1.00
Zn600  Zn    0.12893   0.20439   0.78733   0.00000  Uiso   1.00
C601   C     0.38595   0.15959   0.76085   0.00000  Uiso   1.00
C602   C     0.49958   0.15356   0.55963   0.00000  Uiso   1.00
C603   C     0.56975   0.13478   0.55572   0.00000  Uiso   1.00
C604   C     0.61437   0.17326   0.73902   0.00000  Uiso   1.00
C605   C     0.47051   0.19009   0.92134   0.00000  Uiso   1.00
C606   C     0.66098   0.17423   0.73188   0.00000  Uiso   1.00
C607   C     0.34107   0.15986   0.76390   0.00000  Uiso   1.00
C608   C     0.51278   0.32247   0.73751   0.00000  Uiso   1.00
C609   C     0.48415   0.01273   0.76513   0.00000  Uiso   1.00
C610   C     0.48995   0.05617   0.75980   0.00000  Uiso   1.00
C611   C     0.50970   0.27797   0.74035   0.00000  Uiso   1.00
C612   C     0.41485   0.19537   0.99256   0.00000  Uiso   1.00
C613   C     0.51906   0.14841   0.62930   0.00000  Uiso   1.00
C614   C     0.48183   0.18506   0.87121   0.00000  Uiso   1.00
C615   C     0.58261   0.13883   0.50979   0.00000  Uiso   1.00
C616   C     0.52855   0.14274   0.58064   0.00000  Uiso   1.00
C617   C     0.42899   0.20027   0.94629   0.00000  Uiso   1.00
C618   C     0.44702   0.33107   0.80019   0.00000  Uiso   1.00
C619   C     0.61282   0.15514   0.91591   0.00000  Uiso   1.00
C620   C     0.40009   0.21519   0.92511   0.00000  Uiso   1.00
C621   C     0.37209   0.20372   0.51869   0.00000  Uiso   1.00
C622   C     0.35796   0.19033   0.68977   0.00000  Uiso   1.00
C623   C     0.44138   0.18084   0.51418   0.00000  Uiso   1.00
C624   C     0.48395   0.17315   0.99122   0.00000  Uiso   1.00
C625   C     0.49909   0.17978   0.94473   0.00000  Uiso   1.00
C626   C     0.51206   0.15936   0.51316   0.00000  Uiso   1.00
C627   C     0.55483   0.15242   0.98819   0.00000  Uiso   1.00
C628   C     0.56969   0.16118   0.94282   0.00000  Uiso   1.00
C629   C     0.54275   0.17649   0.92251   0.00000  Uiso   1.00
H630   H     0.59259   0.12707   0.57222   0.00000  Uiso   1.00
H631   H     0.65178   0.15002   0.79494   0.00000  Uiso   1.00
H632   H     0.53949   0.00337   0.71194   0.00000  Uiso   1.00
H633   H     0.61520   0.13321   0.99183   0.00000  Uiso   1.00
H634   H     0.46875   0.16002   0.58138   0.00000  Uiso   1.00
H635   H     0.42755   0.17632   0.54930   0.00000  Uiso   1.00
H636   H     0.55694   0.18657   0.88903   0.00000  Uiso   1.00
H637   H     0.41709   0.21711   0.65837   0.00000  Uiso   1.00
N638   N     0.41734   0.31924   0.82823   0.00000  Uiso   1.00
N639   N     0.64720   0.15008   0.89426   0.00000  Uiso   1.00
N640   N     0.37705   0.22736   0.90839   0.00000  Uiso   1.00
N641   N     0.33791   0.21035   0.53958   0.00000  Uiso   1.00
O642   O     0.50000   0.16667   0.75000   0.00000  Uiso   1.00
O643   O     0.48784   0.12637   0.65458   0.00000  Uiso   1.00
O644   O     0.46274   0.20391   0.84968   0.00000  Uiso   1.00
O645   O     0.54157   0.17759   0.64606   0.00000  Uiso   1.00
O646   O     0.50785   0.15880   0.84968   0.00000  Uiso   1.00
O647   O     0.34578   0.18864   0.65568   0.00000  Uiso   1.00
O648   O     0.40001   0.20772   0.68896   0.00000  Uiso   1.00
O649   O     0.51264   0.08019   0.78213   0.00000  Uiso   1.00
O650   O     0.47965   0.26085   0.77013   0.00000  Uiso   1.00
O651   O     0.40745   0.13291   0.73413   0.00000  Uiso   1.00
O652   O     0.60026   0.19272   0.71360   0.00000  Uiso   1.00
O653   O     0.40405   0.18878   0.78213   0.00000  Uiso   1.00
O654   O     0.58824   0.15226   0.77013   0.00000  Uiso   1.00
O655   O     0.47093   0.06944   0.73413   0.00000  Uiso   1.00
O656   O     0.53678   0.25620   0.71360   0.00000  Uiso   1.00
Zn657  Zn    0.52672   0.13994   0.78734   0.00000  Uiso   1.00
Zn658  Zn    0.46713   0.12458   0.71875   0.00000  Uiso   1.00
Zn659  Zn    0.54389   0.19775   0.70657   0.00000  Uiso   1.00
Zn660  Zn    0.46226   0.20439   0.78733   0.00000  Uiso   1.00
C661   C     0.71928   0.15959   0.76085   0.00000  Uiso   1.00
C662   C     0.83291   0.15356   0.55963   0.00000  Uiso   1.00
C663   C     0.90308   0.13478   0.55572   0.00000  Uiso   1.00
C664   C     0.94770   0.17326   0.73902   0.00000  Uiso   1.00
C665   C     0.80384   0.19009   0.92134   0.00000  Uiso   1.00
C666   C     0.99431   0.17423   0.73188   0.00000  Uiso   1.00
C667   C     0.67440   0.15986   0.76390   0.00000  Uiso   1.00
C668   C     0.84611   0.32247   0.73751   0.00000  Uiso   1.00
C669   C     0.81748   0.01273   0.76513   0.00000  Uiso   1.00
C670   C     0.82328   0.05617   0.75980   0.00000  Uiso   1.00
C671   C     0.84304   0.27797   0.74035   0.00000  Uiso   1.00
C672   C     0.74818   0.19537   0.99256   0.00000  Uiso   1.00
C673   C     0.85240   0.14841   0.62930   0.00000  Uiso   1.00
C674   C     0.81516   0.18506   0.87121   0.00000  Uiso   1.00
C675   C     0.91595   0.13883   0.50979   0.00000  Uiso   1.00
C676   C     0.86189   0.14274   0.58064   0.00000  Uiso   1.00
C677   C     0.76233   0.20027   0.94629   0.00000  Uiso   1.00
C678   C     0.78035   0.33107   0.80019   0.00000  Uiso   1.00
C679   C     0.94616   0.15514   0.91591   0.00000  Uiso   1.00
C680   C     0.73342   0.21519   0.92511   0.00000  Uiso   1.00
C681   C     0.70542   0.20372   0.51869   0.00000  Uiso   1.00
C682   C     0.69129   0.19033   0.68977   0.00000  Uiso   1.00
C683   C     0.77471   0.18084   0.51418   0.00000  Uiso   1.00
C684   C     0.81728   0.17315   0.99122   0.00000  Uiso   1.00
C685   C     0.83242   0.17978   0.94473   0.00000  Uiso   1.00
C686   C     0.84540   0.15936   0.51316   0.00000  Uiso   1.00
C687   C     0.88816   0.15242   0.98819   0.00000  Uiso   1.00
C688   C     0.90303   0.16118   0.94282   0.00000  Uiso   1.00
C689   C     0.87608   0.17649   0.92251   0.00000  Uiso   1.00
H690   H     0.92592   0.12707   0.57222   0.00000  Uiso   1.00
H691   H     0.98511   0.15002   0.79494   0.00000  Uiso   1.00
H692   H     0.87282   0.00337   0.71194   0.00000  Uiso   1.00
H693   H     0.94853   0.13321   0.99183   0.00000  Uiso   1.00
H694   H     0.80209   0.16002   0.58138   0.00000  Uiso   1.00
H695   H     0.76089   0.17632   0.54930   0.00000  Uiso   1.00
H696   H     0.89027   0.18657   0.88903   0.00000  Uiso   1.00
H697   H     0.75043   0.21711   0.65837   0.00000  Uiso   1.00
N698   N     0.75067   0.31924   0.82823   0.00000  Uiso   1.00
N699   N     0.98053   0.15008   0.89426   0.00000  Uiso   1.00
N700   N     0.71039   0.22736   0.90839   0.00000  Uiso   1.00
N701   N     0.67125   0.21035   0.53958   0.00000  Uiso   1.00
O702   O     0.83333   0.16667   0.75000   0.00000  Uiso   1.00
O703   O     0.82118   0.12637   0.65458   0.00000  Uiso   1.00
O704   O     0.79607   0.20391   0.84968   0.00000  Uiso   1.00
O705   O     0.87491   0.17759   0.64606   0.00000  Uiso   1.00
O706   O     0.84118   0.15880   0.84968   0.00000  Uiso   1.00
O707   O     0.67912   0.18864   0.65568   0.00000  Uiso   1.00
O708   O     0.73335   0.20772   0.68896   0.00000  Uiso   1.00
O709   O     0.84597   0.08019   0.78213   0.00000  Uiso   1.00
O710   O     0.81298   0.26085   0.77013   0.00000  Uiso   1.00
O711   O     0.74078   0.13291   0.73413   0.00000  Uiso   1.00
O712   O     0.93360   0.19272   0.71360   0.00000  Uiso   1.00
O713   O     0.73738   0.18878   0.78213   0.00000  Uiso   1.00
O714   O     0.92158   0.15226   0.77013   0.00000  Uiso   1.00
O715   O     0.80426   0.06944   0.73413   0.00000  Uiso   1.00
O716   O     0.87012   0.25620   0.71360   0.00000  Uiso   1.00
Zn717  Zn    0.86005   0.13994   0.78734   0.00000  Uiso   1.00
Zn718  Zn    0.80046   0.12458   0.71875   0.00000  Uiso   1.00
Zn719  Zn    0.87723   0.19775   0.70657   0.00000  Uiso   1.00
Zn720  Zn    0.79560   0.20439   0.78733   0.00000  Uiso   1.00
C721   C     0.05262   0.49292   0.76085   0.00000  Uiso   1.00
C722   C     0.16625   0.48689   0.55963   0.00000  Uiso   1.00
C723   C     0.23642   0.46812   0.55572   0.00000  Uiso   1.00
C724   C     0.28104   0.50659   0.73902   0.00000  Uiso   1.00
C725   C     0.13717   0.52343   0.92134   0.00000  Uiso   1.00
C726   C     0.32765   0.50757   0.73188   0.00000  Uiso   1.00
C727   C     0.00773   0.49319   0.76390   0.00000  Uiso   1.00
C728   C     0.17945   0.65580   0.73751   0.00000  Uiso   1.00
C729   C     0.15081   0.34607   0.76513   0.00000  Uiso   1.00
C730   C     0.15661   0.38951   0.75980   0.00000  Uiso   1.00
C731   C     0.17637   0.61130   0.74035   0.00000  Uiso   1.00
C732   C     0.08151   0.52870   0.99256   0.00000  Uiso   1.00
C733   C     0.18573   0.48175   0.62930   0.00000  Uiso   1.00
C734   C     0.14850   0.51840   0.87121   0.00000  Uiso   1.00
C735   C     0.24928   0.47216   0.50979   0.00000  Uiso   1.00
C736   C     0.19522   0.47608   0.58064   0.00000  Uiso   1.00
C737   C     0.09566   0.53361   0.94629   0.00000  Uiso   1.00
C738   C     0.11369   0.66441   0.80019   0.00000  Uiso   1.00
C739   C     0.27949   0.48847   0.91591   0.00000  Uiso   1.00
C740   C     0.06676   0.54853   0.92511   0.00000  Uiso   1.00
C741   C     0.03876   0.53706   0.51869   0.00000  Uiso   1.00
C742   C     0.02462   0.52366   0.68977   0.00000  Uiso   1.00
C743   C     0.10804   0.51417   0.51418   0.00000  Uiso   1.00
C744   C     0.15062   0.50648   0.99122   0.00000  Uiso   1.00
C745   C     0.16575   0.51312   0.94473   0.00000  Uiso   1.00
C746   C     0.17873   0.49269   0.51316   0.00000  Uiso   1.00
C747   C     0.22150   0.48575   0.98819   0.00000  Uiso   1.00
C748   C     0.23636   0.49451   0.94282   0.00000  Uiso   1.00
C749   C     0.20941   0.50982   0.92251   0.00000  Uiso   1.00
H750   H     0.25925   0.46040   0.57222   0.00000  Uiso   1.00
H751   H     0.31844   0.48335   0.79494   0.00000  Uiso   1.00
H752   H     0.20615   0.33670   0.71194   0.00000  Uiso   1.00
H753   H     0.28186   0.46654   0.99183   0.00000  Uiso   1.00
H754   H     0.13542   0.49335   0.58138   0.00000  Uiso   1.00
H755   H     0.09422   0.50965   0.54930   0.00000  Uiso   1.00
H756   H     0.22360   0.51990   0.88903   0.00000  Uiso   1.00
H757   H     0.08376   0.55045   0.65837   0.00000  Uiso   1.00
N758   N     0.08401   0.65257   0.82823   0.00000  Uiso   1.00
N759   N     0.31386   0.48341   0.89426   0.00000  Uiso   1.00
N760   N     0.04372   0.56069   0.90839   0.00000  Uiso   1.00
N761   N     0.00458   0.54368   0.53958   0.00000  Uiso   1.00
O762   O     0.16667   0.50000   0.75000   0.00000  Uiso   1.00
O763   O     0.15451   0.45970   0.65458   0.00000  Uiso   1.00
O764   O     0.12940   0.53724   0.84968   0.00000  Uiso   1.00
O765   O     0.20824   0.51092   0.64606   0.00000  Uiso   1.00
O766   O     0.17451   0.49213   0.84968   0.00000  Uiso   1.00
O767   O     0.01245   0.52197   0.65568   0.00000  Uiso   1.00
O768   O     0.06668   0.54105   0.68896   0.00000  Uiso   1.00
O769   O     0.17930   0.41352   0.78213   0.00000  Uiso   1.00
O770   O     0.14632   0.59418   0.77013   0.00000  Uiso   1.00
O771   O     0.07412   0.46625   0.73413   0.00000  Uiso   1.00
O772   O     0.26693   0.52605   0.71360   0.00000  Uiso   1.00
O773   O     0.07071   0.52211   0.78213   0.00000  Uiso   1.00
O774   O     0.25491   0.48559   0.77013   0.00000  Uiso   1.00
O775   O     0.13760   0.40277   0.73413   0.00000  Uiso   1.00
O776   O     0.20345   0.58953   0.71360   0.00000  Uiso   1.00
Zn777  Zn    0.19338   0.47327   0.78734   0.00000  Uiso   1.00
Zn778  Zn    0.13379   0.45791   0.71875   0.00000  Uiso   1.00
Zn779  Zn    0.21056   0.53109   0.70657   0.00000  Uiso   1.00
Zn780  Zn    0.12893   0.53773   0.78733   0.00000  Uiso   1.00
C781   C     0.38595   0.49292   0.76085   0.00000  Uiso   1.00
C782   C     0.49958   0.48689   0.55963   0.00000  Uiso   1.00
C783   C     0.56975   0.46812   0.55572   0.00000  Uiso   1.00
C784   C     0.61437   0.50659   0.73902   0.00000  Uiso   1.00
C785   C     0.47051   0.52343   0.92134   0.00000  Uiso   1.00
C786   C     0.66098   0.50757   0.73188   0.00000  Uiso   1.00
C787   C     0.34107   0.49319   0.76390   0.00000  Uiso   1.00
C788   C     0.51278   0.65580   0.73751   0.00000  Uiso   1.00
C789   C     0.48415   0.34607   0.76513   0.00000  Uiso   1.00
C790   C     0.48995   0.38951   0.75980   0.00000  Uiso   1.00
C791   C     0.50970   0.61130   0.74035   0.00000  Uiso   1.00
C792   C     0.41485   0.52870   0.99256   0.00000  Uiso   1.00
C793   C     0.51906   0.48175   0.62930   0.00000  Uiso   1.00
C794   C     0.48183   0.51840   0.87121   0.00000  Uiso   1.00
C795   C     0.58261   0.47216   0.50979   0.00000  Uiso   1.00
C796   C     0.52855   0.47608   0.58064   0.00000  Uiso   1.00
C797   C     0.42899   0.53361   0.94629   0.00000  Uiso   1.00
C798   C     0.44702   0.66441   0.80019   0.00000  Uiso   1.00
C799   C     0.61282   0.48847   0.91591   0.00000  Uiso   1.00
C800   C     0.40009   0.54853   0.92511   0.00000  Uiso   1.00
C801   C     0.37209   0.53706   0.51869   0.00000  Uiso   1.00
C802   C     0.35796   0.52366   0.68977   0.00000  Uiso   1.00
C803   C     0.44138   0.51417   0.51418   0.00000  Uiso   1.00
C804   C     0.48395   0.50648   0.99122   0.00000  Uiso   1.00
C805   C     0.49909   0.51312   0.94473   0.00000  Uiso   1.00
C806   C     0.51206   0.49269   0.51316   0.00000  Uiso   1.00
C807   C     0.55483   0.48575   0.98819   0.00000  Uiso   1.00
C808   C     0.56969   0.49451   0.94282   0.00000  Uiso   1.00
C809   C     0.54275   0.50982   0.92251   0.00000  Uiso   1.00
H810   H     0.59259   0.46040   0.57222   0.00000  Uiso   1.00
H811   H     0.65178   0.48335   0.79494   0.00000  Uiso   1.00
H812   H     0.53949   0.33670   0.71194   0.00000  Uiso   1.00
H813   H     0.61520   0.46654   0.99183   0.00000  Uiso   1.00
H814   H     0.46875   0.49335   0.58138   0.00000  Uiso   1.00
H815   H     0.42755   0.50965   0.54930   0.00000  Uiso   1.00
H816   H     0.55694   0.51990   0.88903   0.00000  Uiso   1.00
H817   H     0.41709   0.55045   0.65837   0.00000  Uiso   1.00
N818   N     0.41734   0.65257   0.82823   0.00000  Uiso   1.00
N819   N     0.64720   0.48341   0.89426   0.00000  Uiso   1.00
N820   N     0.37705   0.56069   0.90839   0.00000  Uiso   1.00
N821   N     0.33791   0.54368   0.53958   0.00000  Uiso   1.00
O822   O     0.50000   0.50000   0.75000   0.00000  Uiso   1.00
O823   O     0.48784   0.45970   0.65458   0.00000  Uiso   1.00
O824   O     0.46274   0.53724   0.84968   0.00000  Uiso   1.00
O825   O     0.54157   0.51092   0.64606   0.00000  Uiso   1.00
O826   O     0.50785   0.49213   0.84968   0.00000  Uiso   1.00
O827   O     0.34578   0.52197   0.65568   0.00000  Uiso   1.00
O828   O     0.40001   0.54105   0.68896   0.00000  Uiso   1.00
O829   O     0.51264   0.41352   0.78213   0.00000  Uiso   1.00
O830   O     0.47965   0.59418   0.77013   0.00000  Uiso   1.00
O831   O     0.40745   0.46625   0.73413   0.00000  Uiso   1.00
O832   O     0.60026   0.52605   0.71360   0.00000  Uiso   1.00
O833   O     0.40405   0.52211   0.78213   0.00000  Uiso   1.00
O834   O     0.58824   0.48559   0.77013   0.00000  Uiso   1.00
O835   O     0.47093   0.40277   0.73413   0.00000  Uiso   1.00
O836   O     0.53678   0.58953   0.71360   0.00000  Uiso   1.00
Zn837  Zn    0.52672   0.47327   0.78734   0.00000  Uiso   1.00
Zn838  Zn    0.46713   0.45791   0.71875   0.00000  Uiso   1.00
Zn839  Zn    0.54389   0.53109   0.70657   0.00000  Uiso   1.00
Zn840  Zn    0.46226   0.53773   0.78733   0.00000  Uiso   1.00
C841   C     0.71928   0.49292   0.76085   0.00000  Uiso   1.00
C842   C     0.83291   0.48689   0.55963   0.00000  Uiso   1.00
C843   C     0.90308   0.46812   0.55572   0.00000  Uiso   1.00
C844   C     0.94770   0.50659   0.73902   0.00000  Uiso   1.00
C845   C     0.80384   0.52343   0.92134   0.00000  Uiso   1.00
C846   C     0.99431   0.50757   0.73188   0.00000  Uiso   1.00
C847   C     0.67440   0.49319   0.76390   0.00000  Uiso   1.00
C848   C     0.84611   0.65580   0.73751   0.00000  Uiso   1.00
C849   C     0.81748   0.34607   0.76513   0.00000  Uiso   1.00
C850   C     0.82328   0.38951   0.75980   0.00000  Uiso   1.00
C851   C     0.84304   0.61130   0.74035   0.00000  Uiso   1.00
C852   C     0.74818   0.52870   0.99256   0.00000  Uiso   1.00
C853   C     0.85240   0.48175   0.62930   0.00000  Uiso   1.00
C854   C     0.81516   0.51840   0.87121   0.00000  Uiso   1.00
C855   C     0.91595   0.47216   0.50979   0.00000  Uiso   1.00
C856   C     0.86189   0.47608   0.58064   0.00000  Uiso   1.00
C857   C     0.76233   0.53361   0.94629   0.00000  Uiso   1.00
C858   C     0.78035   0.66441   0.80019   0.00000  Uiso   1.00
C859   C     0.94616   0.48847   0.91591   0.00000  Uiso   1.00
C860   C     0.73342   0.54853   0.92511   0.00000  Uiso   1.00
C861   C     0.70542   0.53706   0.51869   0.00000  Uiso   1.00
C862   C     0.69129   0.52366   0.68977   0.00000  Uiso   1.00
C863   C     0.77471   0.51417   0.51418   0.00000  Uiso   1.00
C864   C     0.81728   0.50648   0.99122   0.00000  Uiso   1.00
C865   C     0.83242   0.51312   0.94473   0.00000  Uiso   1.00
C866   C     0.84540   0.49269   0.51316   0.00000  Uiso   1.00
C867   C     0.88816   0.48575   0.98819   0.00000  Uiso   1.00
C868   C     0.90303   0.49451   0.94282   0.00000  Uiso   1.00
C869   C     0.87608   0.50982   0.92251   0.00000  Uiso   1.00
H870   H     0.92592   0.46040   0.57222   0.00000  Uiso   1.00
H871   H     0.98511   0.48335   0.79494   0.00000  Uiso   1.00
H872   H     0.87282   0.33670   0.71194   0.00000  Uiso   1.00
H873   H     0.94853   0.46654   0.99183   0.00000  Uiso   1.00
H874   H     0.80209   0.49335   0.58138   0.00000  Uiso   1.00
H875   H     0.76089   0.50965   0.54930   0.00000  Uiso   1.00
H876   H     0.89027   0.51990   0.88903   0.00000  Uiso   1.00
H877   H     0.75043   0.55045   0.65837   0.00000  Uiso   1.00
N878   N     0.75067   0.65257   0.82823   0.00000  Uiso   1.00
N879   N     0.98053   0.48341   0.89426   0.00000  Uiso   1.00
N880   N     0.71039   0.56069   0.90839   0.00000  Uiso   1.00
N881   N     0.67125   0.54368   0.53958   0.00000  Uiso   1.00
O882   O     0.83333   0.50000   0.75000   0.00000  Uiso   1.00
O883   O     0.82118   0.45970   0.65458   0.00000  Uiso   1.00
O884   O     0.79607   0.53724   0.84968   0.00000  Uiso   1.00
O885   O     0.87491   0.51092   0.64606   0.00000  Uiso   1.00
O886   O     0.84118   0.49213   0.84968   0.00000  Uiso   1.00
O887   O     0.67912   0.52197   0.65568   0.00000  Uiso   1.00
O888   O     0.73335   0.54105   0.68896   0.00000  Uiso   1.00
O889   O     0.84597   0.41352   0.78213   0.00000  Uiso   1.00
O890   O     0.81298   0.59418   0.77013   0.00000  Uiso   1.00
O891   O     0.74078   0.46625   0.73413   0.00000  Uiso   1.00
O892   O     0.93360   0.52605   0.71360   0.00000  Uiso   1.00
O893   O     0.73738   0.52211   0.78213   0.00000  Uiso   1.00
O894   O     0.92158   0.48559   0.77013   0.00000  Uiso   1.00
O895   O     0.80426   0.40277   0.73413   0.00000  Uiso   1.00
O896   O     0.87012   0.58953   0.71360   0.00000  Uiso   1.00
Zn897  Zn    0.86005   0.47327   0.78734   0.00000  Uiso   1.00
Zn898  Zn    0.80046   0.45791   0.71875   0.00000  Uiso   1.00
Zn899  Zn    0.87723   0.53109   0.70657   0.00000  Uiso   1.00
Zn900  Zn    0.79560   0.53773   0.78733   0.00000  Uiso   1.00
C901   C     0.05262   0.82625   0.76085   0.00000  Uiso   1.00
C902   C     0.16625   0.82023   0.55963   0.00000  Uiso   1.00
C903   C     0.23642   0.80145   0.55572   0.00000  Uiso   1.00
C904   C     0.28104   0.83992   0.73902   0.00000  Uiso   1.00
C905   C     0.13717   0.85676   0.92134   0.00000  Uiso   1.00
C906   C     0.32765   0.84090   0.73188   0.00000  Uiso   1.00
C907   C     0.00773   0.82653   0.76390   0.00000  Uiso   1.00
C908   C     0.17945   0.98913   0.73751   0.00000  Uiso   1.00
C909   C     0.15081   0.67940   0.76513   0.00000  Uiso   1.00
C910   C     0.15661   0.72284   0.75980   0.00000  Uiso   1.00
C911   C     0.17637   0.94463   0.74035   0.00000  Uiso   1.00
C912   C     0.08151   0.86203   0.99256   0.00000  Uiso   1.00
C913   C     0.18573   0.81508   0.62930   0.00000  Uiso   1.00
C914   C     0.14850   0.85173   0.87121   0.00000  Uiso   1.00
C915   C     0.24928   0.80549   0.50979   0.00000  Uiso   1.00
C916   C     0.19522   0.80941   0.58064   0.00000  Uiso   1.00
C917   C     0.09566   0.86694   0.94629   0.00000  Uiso   1.00
C918   C     0.11369   0.99774   0.80019   0.00000  Uiso   1.00
C919   C     0.27949   0.82180   0.91591   0.00000  Uiso   1.00
C920   C     0.06676   0.88186   0.92511   0.00000  Uiso   1.00
C921   C     0.03876   0.87039   0.51869   0.00000  Uiso   1.00
C922   C     0.02462   0.85699   0.68977   0.00000  Uiso   1.00
C923   C     0.10804   0.84751   0.51418   0.00000  Uiso   1.00
C924   C     0.15062   0.83982   0.99122   0.00000  Uiso   1.00
C925   C     0.16575   0.84645   0.94473   0.00000  Uiso   1.00
C926   C     0.17873   0.82603   0.51316   0.00000  Uiso   1.00
C927   C     0.22150   0.81908   0.98819   0.00000  Uiso   1.00
C928   C     0.23636   0.82784   0.94282   0.00000  Uiso   1.00
C929   C     0.20941   0.84316   0.92251   0.00000  Uiso   1.00
H930   H     0.25925   0.79374   0.57222   0.00000  Uiso   1.00
H931   H     0.31844   0.81668   0.79494   0.00000  Uiso   1.00
H932   H     0.20615   0.67003   0.71194   0.00000  Uiso   1.00
H933   H     0.28186   0.79988   0.99183   0.00000  Uiso   1.00
H934   H     0.13542   0.82668   0.58138   0.00000  Uiso   1.00
H935   H     0.09422   0.84298   0.54930   0.00000  Uiso   1.00
H936   H     0.22360   0.85323   0.88903   0.00000  Uiso   1.00
H937   H     0.08376   0.88378   0.65837   0.00000  Uiso   1.00
N938   N     0.08401   0.98591   0.82823   0.00000  Uiso   1.00
N939   N     0.31386   0.81675   0.89426   0.00000  Uiso   1.00
N940   N     0.04372   0.89403   0.90839   0.00000  Uiso   1.00
N941   N     0.00458   0.87702   0.53958   0.00000  Uiso   1.00
O942   O     0.16667   0.83333   0.75000   0.00000  Uiso   1.00
O943   O     0.15451   0.79304   0.65458   0.00000  Uiso   1.00
O944   O     0.12940   0.87058   0.84968   0.00000  Uiso   1.00
O945   O     0.20824   0.84425   0.64606   0.00000  Uiso   1.00
O946   O     0.17451   0.82546   0.84968   0.00000  Uiso   1.00
O947   O     0.01245   0.85531   0.65568   0.00000  Uiso   1.00
O948   O     0.06668   0.87439   0.68896   0.00000  Uiso   1.00
O949   O     0.17930   0.74686   0.78213   0.00000  Uiso   1.00
O950   O     0.14632   0.92751   0.77013   0.00000  Uiso   1.00
O951   O     0.07412   0.79958   0.73413   0.00000  Uiso   1.00
O952   O     0.26693   0.85939   0.71360   0.00000  Uiso   1.00
O953   O     0.07071   0.85544   0.78213   0.00000  Uiso   1.00
O954   O     0.25491   0.81892   0.77013   0.00000  Uiso   1.00
O955   O     0.13760   0.73610   0.73413   0.00000  Uiso   1.00
O956   O     0.20345   0.92286   0.71360   0.00000  Uiso   1.00
Zn957  Zn    0.19338   0.80661   0.78734   0.00000  Uiso   1.00
Zn958  Zn    0.13379   0.79124   0.71875   0.00000  Uiso   1.00
Zn959  Zn    0.21056   0.86442   0.70657   0.00000  Uiso   1.00
Zn960  Zn    0.12893   0.87106   0.78733   0.00000  Uiso   1.00
C961   C     0.38595   0.82625   0.76085   0.00000  Uiso   1.00
C962   C     0.49958   0.82023   0.55963   0.00000  Uiso   1.00
C963   C     0.56975   0.80145   0.55572   0.00000  Uiso   1.00
C964   C     0.61437   0.83992   0.73902   0.00000  Uiso   1.00
C965   C     0.47051   0.85676   0.92134   0.00000  Uiso   1.00
C966   C     0.66098   0.84090   0.73188   0.00000  Uiso   1.00
C967   C     0.34107   0.82653   0.76390   0.00000  Uiso   1.00
C968   C     0.51278   0.98913   0.73751   0.00000  Uiso   1.00
C969   C     0.48415   0.67940   0.76513   0.00000  Uiso   1.00
C970   C     0.48995   0.72284   0.75980   0.00000  Uiso   1.00
C971   C     0.50970   0.94463   0.74035   0.00000  Uiso   1.00
C972   C     0.41485   0.86203   0.99256   0.00000  Uiso   1.00
C973   C     0.51906   0.81508   0.62930   0.00000  Uiso   1.00
C974   C     0.48183   0.85173   0.87121   0.00000  Uiso   1.00
C975   C     0.58261   0.80549   0.50979   0.00000  Uiso   1.00
C976   C     0.52855   0.80941   0.58064   0.00000  Uiso   1.00
C977   C     0.42899   0.86694   0.94629   0.00000  Uiso   1.00
C978   C     0.44702   0.99774   0.80019   0.00000  Uiso   1.00
C979   C     0.61282   0.82180   0.91591   0.00000  Uiso   1.00
C980   C     0.40009   0.88186   0.92511   0.00000  Uiso   1.00
C981   C     0.37209   0.87039   0.51869   0.00000  Uiso   1.00
C982   C     0.35796   0.85699   0.68977   0.00000  Uiso   1.00
C983   C     0.44138   0.84751   0.51418   0.00000  Uiso   1.00
C984   C     0.48395   0.83982   0.99122   0.00000  Uiso   1.00
C985   C     0.49909   0.84645   0.94473   0.00000  Uiso   1.00
C986   C     0.51206   0.82603   0.51316   0.00000  Uiso   1.00
C987   C     0.55483   0.81908   0.98819   0.00000  Uiso   1.00
C988   C     0.56969   0.82784   0.94282   0.00000  Uiso   1.00
C989   C     0.54275   0.84316   0.92251   0.00000  Uiso   1.00
H990   H     0.59259   0.79374   0.57222   0.00000  Uiso   1.00
H991   H     0.65178   0.81668   0.79494   0.00000  Uiso   1.00
H992   H     0.53949   0.67003   0.71194   0.00000  Uiso   1.00
H993   H     0.61520   0.79988   0.99183   0.00000  Uiso   1.00
H994   H     0.46875   0.82668   0.58138   0.00000  Uiso   1.00
H995   H     0.42755   0.84298   0.54930   0.00000  Uiso   1.00
H996   H     0.55694   0.85323   0.88903   0.00000  Uiso   1.00
H997   H     0.41709   0.88378   0.65837   0.00000  Uiso   1.00
N998   N     0.41734   0.98591   0.82823   0.00000  Uiso   1.00
N999   N     0.64720   0.81675   0.89426   0.00000  Uiso   1.00
N1000  N     0.37705   0.89403   0.90839   0.00000  Uiso   1.00
N1001  N     0.33791   0.87702   0.53958   0.00000  Uiso   1.00
O1002  O     0.50000   0.83333   0.75000   0.00000  Uiso   1.00
O1003  O     0.48784   0.79304   0.65458   0.00000  Uiso   1.00
O1004  O     0.46274   0.87058   0.84968   0.00000  Uiso   1.00
O1005  O     0.54157   0.84425   0.64606   0.00000  Uiso   1.00
O1006  O     0.50785   0.82546   0.84968   0.00000  Uiso   1.00
O1007  O     0.34578   0.85531   0.65568   0.00000  Uiso   1.00
O1008  O     0.40001   0.87439   0.68896   0.00000  Uiso   1.00
O1009  O     0.51264   0.74686   0.78213   0.00000  Uiso   1.00
O1010  O     0.47965   0.92751   0.77013   0.00000  Uiso   1.00
O1011  O     0.40745   0.79958   0.73413   0.00000  Uiso   1.00
O1012  O     0.60026   0.85939   0.71360   0.00000  Uiso   1.00
O1013  O     0.40405   0.85544   0.78213   0.00000  Uiso   1.00
O1014  O     0.58824   0.81892   0.77013   0.00000  Uiso   1.00
O1015  O     0.47093   0.73610   0.73413   0.00000  Uiso   1.00
O1016  O     0.53678   0.92286   0.71360   0.00000  Uiso   1.00
Zn1017 Zn    0.52672   0.80661   0.78734   0.00000  Uiso   1.00
Zn1018 Zn    0.46713   0.79124   0.71875   0.00000  Uiso   1.00
Zn1019 Zn    0.54389   0.86442   0.70657   0.00000  Uiso   1.00
Zn1020 Zn    0.46226   0.87106   0.78733   0.00000  Uiso   1.00
C1021  C     0.71928   0.82625   0.76085   0.00000  Uiso   1.00
C1022  C     0.83291   0.82023   0.55963   0.00000  Uiso   1.00
C1023  C     0.90308   0.80145   0.55572   0.00000  Uiso   1.00
C1024  C     0.94770   0.83992   0.73902   0.00000  Uiso   1.00
C1025  C     0.80384   0.85676   0.92134   0.00000  Uiso   1.00
C1026  C     0.99431   0.84090   0.73188   0.00000  Uiso   1.00
C1027  C     0.67440   0.82653   0.76390   0.00000  Uiso   1.00
C1028  C     0.84611   0.98913   0.73751   0.00000  Uiso   1.00
C1029  C     0.81748   0.67940   0.76513   0.00000  Uiso   1.00
C1030  C     0.82328   0.72284   0.75980   0.00000  Uiso   1.00
C1031  C     0.84304   0.94463   0.74035   0.00000  Uiso   1.00
C1032  C     0.74818   0.86203   0.99256   0.00000  Uiso   1.00
C1033  C     0.85240   0.81508   0.62930   0.00000  Uiso   1.00
C1034  C     0.81516   0.85173   0.87121   0.00000  Uiso   1.00
C1035  C     0.91595   0.80549   0.50979   0.00000  Uiso   1.00
C1036  C     0.86189   0.80941   0.58064   0.00000  Uiso   1.00
C1037  C     0.76233   0.86694   0.94629   0.00000  Uiso   1.00
C1038  C     0.78035   0.99774   0.80019   0.00000  Uiso   1.00
C1039  C     0.94616   0.82180   0.91591   0.00000  Uiso   1.00
C1040  C     0.73342   0.88186   0.92511   0.00000  Uiso   1.00
C1041  C     0.70542   0.87039   0.51869   0.00000  Uiso   1.00
C1042  C     0.69129   0.85699   0.68977   0.00000  Uiso   1.00
C1043  C     0.77471   0.84751   0.51418   0.00000  Uiso   1.00
C1044  C     0.81728   0.83982   0.99122   0.00000  Uiso   1.00
C1045  C     0.83242   0.84645   0.94473   0.00000  Uiso   1.00
C1046  C     0.84540   0.82603   0.51316   0.00000  Uiso   1.00
C1047  C     0.88816   0.81908   0.98819   0.00000  Uiso   1.00
C1048  C     0.90303   0.82784   0.94282   0.00000  Uiso   1.00
C1049  C     0.87608   0.84316   0.92251   0.00000  Uiso   1.00
H1050  H     0.92592   0.79374   0.57222   0.00000  Uiso   1.00
H1051  H     0.98511   0.81668   0.79494   0.00000  Uiso   1.00
H1052  H     0.87282   0.67003   0.71194   0.00000  Uiso   1.00
H1053  H     0.94853   0.79988   0.99183   0.00000  Uiso   1.00
H1054  H     0.80209   0.82668   0.58138   0.00000  Uiso   1.00
H1055  H     0.76089   0.84298   0.54930   0.00000  Uiso   1.00
H1056  H     0.89027   0.85323   0.88903   0.00000  Uiso   1.00
H1057  H     0.75043   0.88378   0.65837   0.00000  Uiso   1.00
N1058  N     0.75067   0.98591   0.82823   0.00000  Uiso   1.00
N1059  N     0.98053   0.81675   0.89426   0.00000  Uiso   1.00
N1060  N     0.71039   0.89403   0.90839   0.00000  Uiso   1.00
N1061  N     0.67125   0.87702   0.53958   0.00000  Uiso   1.00
O1062  O     0.83333   0.83333   0.75000   0.00000  Uiso   1.00
O1063  O     0.82118   0.79304   0.65458   0.00000  Uiso   1.00
O1064  O     0.79607   0.87058   0.84968   0.00000  Uiso   1.00
O1065  O     0.87491   0.84425   0.64606   0.00000  Uiso   1.00
O1066  O     0.84118   0.82546   0.84968   0.00000  Uiso   1.00
O1067  O     0.67912   0.85531   0.65568   0.00000  Uiso   1.00
O1068  O     0.73335   0.87439   0.68896   0.00000  Uiso   1.00
O1069  O     0.84597   0.74686   0.78213   0.00000  Uiso   1.00
O1070  O     0.81298   0.92751   0.77013   0.00000  Uiso   1.00
O1071  O     0.74078   0.79958   0.73413   0.00000  Uiso   1.00
O1072  O     0.93360   0.85939   0.71360   0.00000  Uiso   1.00
O1073  O     0.73738   0.85544   0.78213   0.00000  Uiso   1.00
O1074  O     0.92158   0.81892   0.77013   0.00000  Uiso   1.00
O1075  O     0.80426   0.73610   0.73413   0.00000  Uiso   1.00
O1076  O     0.87012   0.92286   0.71360   0.00000  Uiso   1.00
Zn1077 Zn    0.86005   0.80661   0.78734   0.00000  Uiso   1.00
Zn1078 Zn    0.80046   0.79124   0.71875   0.00000  Uiso   1.00
Zn1079 Zn    0.87723   0.86442   0.70657   0.00000  Uiso   1.00
Zn1080 Zn    0.79560   0.87106   0.78733   0.00000  Uiso   1.00
loop_
_geom_bond_atom_site_label_1
_geom_bond_atom_site_label_2
_geom_bond_distance
_geom_bond_site_symmetry_2
_ccdc_geom_bond_type
C1     O51     1.275   .     A
C1     O53     1.268   .     A
C1     C7      1.439   .     S
C2     C16     1.390   .     A
C2     H34     1.076   .     S
C2     C26     1.413   .     A
C3     H30     1.084   .     S
C3     C15     1.386   .     A
C3     C16     1.393   .     A
C4     O52     1.280   .     A
C4     C6      1.467   .     S
C4     O54     1.285   .     A
C5     C14     1.493   .     S
C5     C25     1.425   .     A
C5     C17     1.422   .     A
C6     C67     1.345   .     S
C6     C82     1.499   .     S
C7     C126    1.345   1_455 S
C7     H151    1.087   1_455 S
C8     C11     1.453   .     S
C8     C189    1.345   .     S
C8     H212    1.088   .     S
C9     C10     1.426   .     S
C9     C368    1.345   1_545 S
C9     C378    1.450   1_545 S
C10    O55     1.280   .     A
C10    O49     1.280   .     A
C11    O56     1.269   .     A
C11    O50     1.257   .     A
C12    C17     1.402   .     A
C12    C561    1.449   .     S
C12    C563    1.391   .     S
C13    O45     1.271   .     A
C13    C16     1.452   .     S
C13    O43     1.280   .     A
C14    O44     1.284   .     A
C14    O46     1.290   .     A
C15    C567    1.410   1_554 S
C15    H573    1.083   1_554 S
C17    C20     1.451   .     S
C18    N38     1.158   .     T
C18    C189    1.450   .     S
C19    C28     1.448   .     S
C19    N39     1.157   .     T
C20    N40     1.158   .     T
C21    N41     1.157   .     T
C21    C552    1.449   1_554 S
C22    O48     1.399   .     S
C22    O47     1.223   .     D
C22    C126    1.499   1_455 S
C23    H35     1.076   .     S
C23    C552    1.391   1_554 S
C23    C564    1.414   1_554 S
C24    C25     1.421   .     A
C24    C563    1.414   .     S
C24    C566    1.429   .     S
C25    C29     1.410   .     A
C26    C564    1.429   1_554 S
C26    C567    1.428   1_554 S
C27    C28     1.405   .     A
C27    C555    1.410   .     S
C27    C566    1.428   .     S
C28    C29     1.387   .     A
C29    H36     1.081   .     S
H31    C67     1.087   .     S
H32    C368    1.088   1_545 S
H33    C555    1.083   .     S
H37    O48     1.014   .     S
O42    Zn59    1.926   .     S
O42    Zn58    1.958   .     S
O42    Zn57    1.968   .     S
O42    Zn60    1.921   .     S
O43    Zn58    1.923   .     S
O44    Zn60    1.943   .     S
O45    Zn59    1.939   .     S
O46    Zn57    1.919   .     S
O49    Zn57    1.938   .     S
O50    Zn60    1.939   .     S
O51    Zn58    1.918   .     S
O52    Zn59    1.939   .     S
O53    Zn60    1.937   .     S
O54    Zn57    1.918   .     S
O55    Zn58    1.944   .     S
O56    Zn59    1.936   .     S
C61    O111    1.275   .     A
C61    O113    1.268   .     A
C61    C67     1.439   .     S
C62    C76     1.390   .     A
C62    H94     1.076   .     S
C62    C86     1.413   .     A
C63    H90     1.084   .     S
C63    C75     1.386   .     A
C63    C76     1.393   .     A
C64    O112    1.280   .     A
C64    C66     1.467   .     S
C64    O114    1.285   .     A
C65    C74     1.493   .     S
C65    C85     1.425   .     A
C65    C77     1.422   .     A
C66    C127    1.345   .     S
C66    C142    1.499   .     S
C68    C71     1.453   .     S
C68    C249    1.345   .     S
C68    H272    1.088   .     S
C69    C70     1.426   .     S
C69    C428    1.345   1_545 S
C69    C438    1.450   1_545 S
C70    O115    1.280   .     A
C70    O109    1.280   .     A
C71    O116    1.269   .     A
C71    O110    1.257   .     A
C72    C77     1.402   .     A
C72    C621    1.449   .     S
C72    C623    1.391   .     S
C73    O105    1.271   .     A
C73    C76     1.452   .     S
C73    O103    1.280   .     A
C74    O104    1.284   .     A
C74    O106    1.290   .     A
C75    C627    1.410   1_554 S
C75    H633    1.083   1_554 S
C77    C80     1.451   .     S
C78    N98     1.158   .     T
C78    C249    1.450   .     S
C79    C88     1.448   .     S
C79    N99     1.157   .     T
C80    N100    1.158   .     T
C81    N101    1.157   .     T
C81    C612    1.449   1_554 S
C82    O108    1.399   .     S
C82    O107    1.223   .     D
C83    H95     1.076   .     S
C83    C612    1.391   1_554 S
C83    C624    1.414   1_554 S
C84    C85     1.421   .     A
C84    C623    1.414   .     S
C84    C626    1.429   .     S
C85    C89     1.410   .     A
C86    C624    1.429   1_554 S
C86    C627    1.428   1_554 S
C87    C88     1.405   .     A
C87    C615    1.410   .     S
C87    C626    1.428   .     S
C88    C89     1.387   .     A
C89    H96     1.081   .     S
H91    C127    1.087   .     S
H92    C428    1.088   1_545 S
H93    C615    1.083   .     S
H97    O108    1.014   .     S
O102   Zn119   1.926   .     S
O102   Zn118   1.958   .     S
O102   Zn117   1.968   .     S
O102   Zn120   1.921   .     S
O103   Zn118   1.923   .     S
O104   Zn120   1.943   .     S
O105   Zn119   1.939   .     S
O106   Zn117   1.919   .     S
O109   Zn117   1.938   .     S
O110   Zn120   1.939   .     S
O111   Zn118   1.918   .     S
O112   Zn119   1.939   .     S
O113   Zn120   1.937   .     S
O114   Zn117   1.918   .     S
O115   Zn118   1.944   .     S
O116   Zn119   1.936   .     S
C121   O171    1.275   .     A
C121   O173    1.268   .     A
C121   C127    1.439   .     S
C122   C136    1.390   .     A
C122   H154    1.076   .     S
C122   C146    1.413   .     A
C123   H150    1.084   .     S
C123   C135    1.386   .     A
C123   C136    1.393   .     A
C124   O172    1.280   .     A
C124   C126    1.467   .     S
C124   O174    1.285   .     A
C125   C134    1.493   .     S
C125   C145    1.425   .     A
C125   C137    1.422   .     A
C126   C7      1.345   1_655 S
C126   C22     1.499   1_655 S
C128   C131    1.453   .     S
C128   C309    1.345   .     S
C128   H332    1.088   .     S
C129   C130    1.426   .     S
C129   C488    1.345   1_545 S
C129   C498    1.450   1_545 S
C130   O175    1.280   .     A
C130   O169    1.280   .     A
C131   O176    1.269   .     A
C131   O170    1.257   .     A
C132   C137    1.402   .     A
C132   C681    1.449   .     S
C132   C683    1.391   .     S
C133   O165    1.271   .     A
C133   C136    1.452   .     S
C133   O163    1.280   .     A
C134   O164    1.284   .     A
C134   O166    1.290   .     A
C135   C687    1.410   1_554 S
C135   H693    1.083   1_554 S
C137   C140    1.451   .     S
C138   N158    1.158   .     T
C138   C309    1.450   .     S
C139   C148    1.448   .     S
C139   N159    1.157   .     T
C140   N160    1.158   .     T
C141   N161    1.157   .     T
C141   C672    1.449   1_554 S
C142   O168    1.399   .     S
C142   O167    1.223   .     D
C143   H155    1.076   .     S
C143   C672    1.391   1_554 S
C143   C684    1.414   1_554 S
C144   C145    1.421   .     A
C144   C683    1.414   .     S
C144   C686    1.429   .     S
C145   C149    1.410   .     A
C146   C684    1.429   1_554 S
C146   C687    1.428   1_554 S
C147   C148    1.405   .     A
C147   C675    1.410   .     S
C147   C686    1.428   .     S
C148   C149    1.387   .     A
C149   H156    1.081   .     S
H151   C7      1.087   1_655 S
H152   C488    1.088   1_545 S
H153   C675    1.083   .     S
H157   O168    1.014   .     S
O162   Zn179   1.926   .     S
O162   Zn178   1.958   .     S
O162   Zn177   1.968   .     S
O162   Zn180   1.921   .     S
O163   Zn178   1.923   .     S
O164   Zn180   1.943   .     S
O165   Zn179   1.939   .     S
O166   Zn177   1.919   .     S
O169   Zn177   1.938   .     S
O170   Zn180   1.939   .     S
O171   Zn178   1.918   .     S
O172   Zn179   1.939   .     S
O173   Zn180   1.937   .     S
O174   Zn177   1.918   .     S
O175   Zn178   1.944   .     S
O176   Zn179   1.936   .     S
C181   O231    1.275   .     A
C181   O233    1.268   .     A
C181   C187    1.439   .     S
C182   C196    1.390   .     A
C182   H214    1.076   .     S
C182   C206    1.413   .     A
C183   H210    1.084   .     S
C183   C195    1.386   .     A
C183   C196    1.393   .     A
C184   O232    1.280   .     A
C184   C186    1.467   .     S
C184   O234    1.285   .     A
C185   C194    1.493   .     S
C185   C205    1.425   .     A
C185   C197    1.422   .     A
C186   C247    1.345   .     S
C186   C262    1.499   .     S
C187   C306    1.345   1_455 S
C187   H331    1.087   1_455 S
C188   C191    1.453   .     S
C188   C369    1.345   .     S
C188   H392    1.088   .     S
C189   C190    1.426   .     S
C190   O235    1.280   .     A
C190   O229    1.280   .     A
C191   O236    1.269   .     A
C191   O230    1.257   .     A
C192   C197    1.402   .     A
C192   C741    1.449   .     S
C192   C743    1.391   .     S
C193   O225    1.271   .     A
C193   C196    1.452   .     S
C193   O223    1.280   .     A
C194   O224    1.284   .     A
C194   O226    1.290   .     A
C195   C747    1.410   1_554 S
C195   H753    1.083   1_554 S
C197   C200    1.451   .     S
C198   N218    1.158   .     T
C198   C369    1.450   .     S
C199   C208    1.448   .     S
C199   N219    1.157   .     T
C200   N220    1.158   .     T
C201   N221    1.157   .     T
C201   C732    1.449   1_554 S
C202   O228    1.399   .     S
C202   O227    1.223   .     D
C202   C306    1.499   1_455 S
C203   H215    1.076   .     S
C203   C732    1.391   1_554 S
C203   C744    1.414   1_554 S
C204   C205    1.421   .     A
C204   C743    1.414   .     S
C204   C746    1.429   .     S
C205   C209    1.410   .     A
C206   C744    1.429   1_554 S
C206   C747    1.428   1_554 S
C207   C208    1.405   .     A
C207   C735    1.410   .     S
C207   C746    1.428   .     S
C208   C209    1.387   .     A
C209   H216    1.081   .     S
H211   C247    1.087   .     S
H213   C735    1.083   .     S
H217   O228    1.014   .     S
O222   Zn239   1.926   .     S
O222   Zn238   1.958   .     S
O222   Zn237   1.968   .     S
O222   Zn240   1.921   .     S
O223   Zn238   1.923   .     S
O224   Zn240   1.943   .     S
O225   Zn239   1.939   .     S
O226   Zn237   1.919   .     S
O229   Zn237   1.938   .     S
O230   Zn240   1.939   .     S
O231   Zn238   1.918   .     S
O232   Zn239   1.939   .     S
O233   Zn240   1.937   .     S
O234   Zn237   1.918   .     S
O235   Zn238   1.944   .     S
O236   Zn239   1.936   .     S
C241   O291    1.275   .     A
C241   O293    1.268   .     A
C241   C247    1.439   .     S
C242   C256    1.390   .     A
C242   H274    1.076   .     S
C242   C266    1.413   .     A
C243   H270    1.084   .     S
C243   C255    1.386   .     A
C243   C256    1.393   .     A
C244   O292    1.280   .     A
C244   C246    1.467   .     S
C244   O294    1.285   .     A
C245   C254    1.493   .     S
C245   C265    1.425   .     A
C245   C257    1.422   .     A
C246   C307    1.345   .     S
C246   C322    1.499   .     S
C248   C251    1.453   .     S
C248   C429    1.345   .     S
C248   H452    1.088   .     S
C249   C250    1.426   .     S
C250   O295    1.280   .     A
C250   O289    1.280   .     A
C251   O296    1.269   .     A
C251   O290    1.257   .     A
C252   C257    1.402   .     A
C252   C801    1.449   .     S
C252   C803    1.391   .     S
C253   O285    1.271   .     A
C253   C256    1.452   .     S
C253   O283    1.280   .     A
C254   O284    1.284   .     A
C254   O286    1.290   .     A
C255   C807    1.410   1_554 S
C255   H813    1.083   1_554 S
C257   C260    1.451   .     S
C258   N278    1.158   .     T
C258   C429    1.450   .     S
C259   C268    1.448   .     S
C259   N279    1.157   .     T
C260   N280    1.158   .     T
C261   N281    1.157   .     T
C261   C792    1.449   1_554 S
C262   O288    1.399   .     S
C262   O287    1.223   .     D
C263   H275    1.076   .     S
C263   C792    1.391   1_554 S
C263   C804    1.414   1_554 S
C264   C265    1.421   .     A
C264   C803    1.414   .     S
C264   C806    1.429   .     S
C265   C269    1.410   .     A
C266   C804    1.429   1_554 S
C266   C807    1.428   1_554 S
C267   C268    1.405   .     A
C267   C795    1.410   .     S
C267   C806    1.428   .     S
C268   C269    1.387   .     A
C269   H276    1.081   .     S
H271   C307    1.087   .     S
H273   C795    1.083   .     S
H277   O288    1.014   .     S
O282   Zn299   1.926   .     S
O282   Zn298   1.958   .     S
O282   Zn297   1.968   .     S
O282   Zn300   1.921   .     S
O283   Zn298   1.923   .     S
O284   Zn300   1.943   .     S
O285   Zn299   1.939   .     S
O286   Zn297   1.919   .     S
O289   Zn297   1.938   .     S
O290   Zn300   1.939   .     S
O291   Zn298   1.918   .     S
O292   Zn299   1.939   .     S
O293   Zn300   1.937   .     S
O294   Zn297   1.918   .     S
O295   Zn298   1.944   .     S
O296   Zn299   1.936   .     S
C301   O351    1.275   .     A
C301   O353    1.268   .     A
C301   C307    1.439   .     S
C302   C316    1.390   .     A
C302   H334    1.076   .     S
C302   C326    1.413   .     A
C303   H330    1.084   .     S
C303   C315    1.386   .     A
C303   C316    1.393   .     A
C304   O352    1.280   .     A
C304   C306    1.467   .     S
C304   O354    1.285   .     A
C305   C314    1.493   .     S
C305   C325    1.425   .     A
C305   C317    1.422   .     A
C306   C187    1.345   1_655 S
C306   C202    1.499   1_655 S
C308   C311    1.453   .     S
C308   C489    1.345   .     S
C308   H512    1.088   .     S
C309   C310    1.426   .     S
C310   O355    1.280   .     A
C310   O349    1.280   .     A
C311   O356    1.269   .     A
C311   O350    1.257   .     A
C312   C317    1.402   .     A
C312   C861    1.449   .     S
C312   C863    1.391   .     S
C313   O345    1.271   .     A
C313   C316    1.452   .     S
C313   O343    1.280   .     A
C314   O344    1.284   .     A
C314   O346    1.290   .     A
C315   C867    1.410   1_554 S
C315   H873    1.083   1_554 S
C317   C320    1.451   .     S
C318   N338    1.158   .     T
C318   C489    1.450   .     S
C319   C328    1.448   .     S
C319   N339    1.157   .     T
C320   N340    1.158   .     T
C321   N341    1.157   .     T
C321   C852    1.449   1_554 S
C322   O348    1.399   .     S
C322   O347    1.223   .     D
C323   H335    1.076   .     S
C323   C852    1.391   1_554 S
C323   C864    1.414   1_554 S
C324   C325    1.421   .     A
C324   C863    1.414   .     S
C324   C866    1.429   .     S
C325   C329    1.410   .     A
C326   C864    1.429   1_554 S
C326   C867    1.428   1_554 S
C327   C328    1.405   .     A
C327   C855    1.410   .     S
C327   C866    1.428   .     S
C328   C329    1.387   .     A
C329   H336    1.081   .     S
H331   C187    1.087   1_655 S
H333   C855    1.083   .     S
H337   O348    1.014   .     S
O342   Zn359   1.926   .     S
O342   Zn358   1.958   .     S
O342   Zn357   1.968   .     S
O342   Zn360   1.921   .     S
O343   Zn358   1.923   .     S
O344   Zn360   1.943   .     S
O345   Zn359   1.939   .     S
O346   Zn357   1.919   .     S
O349   Zn357   1.938   .     S
O350   Zn360   1.939   .     S
O351   Zn358   1.918   .     S
O352   Zn359   1.939   .     S
O353   Zn360   1.937   .     S
O354   Zn357   1.918   .     S
O355   Zn358   1.944   .     S
O356   Zn359   1.936   .     S
C361   O411    1.275   .     A
C361   O413    1.268   .     A
C361   C367    1.439   .     S
C362   C376    1.390   .     A
C362   H394    1.076   .     S
C362   C386    1.413   .     A
C363   H390    1.084   .     S
C363   C375    1.386   .     A
C363   C376    1.393   .     A
C364   O412    1.280   .     A
C364   C366    1.467   .     S
C364   O414    1.285   .     A
C365   C374    1.493   .     S
C365   C385    1.425   .     A
C365   C377    1.422   .     A
C366   C427    1.345   .     S
C366   C442    1.499   .     S
C367   C486    1.345   1_455 S
C367   H511    1.087   1_455 S
C368   C371    1.453   .     S
C368   C9      1.345   1_565 S
C368   H32     1.088   1_565 S
C369   C370    1.426   .     S
C370   O415    1.280   .     A
C370   O409    1.280   .     A
C371   O416    1.269   .     A
C371   O410    1.257   .     A
C372   C377    1.402   .     A
C372   C921    1.449   .     S
C372   C923    1.391   .     S
C373   O405    1.271   .     A
C373   C376    1.452   .     S
C373   O403    1.280   .     A
C374   O404    1.284   .     A
C374   O406    1.290   .     A
C375   C927    1.410   1_554 S
C375   H933    1.083   1_554 S
C377   C380    1.451   .     S
C378   N398    1.158   .     T
C378   C9      1.450   1_565 S
C379   C388    1.448   .     S
C379   N399    1.157   .     T
C380   N400    1.158   .     T
C381   N401    1.157   .     T
C381   C912    1.449   1_554 S
C382   O408    1.399   .     S
C382   O407    1.223   .     D
C382   C486    1.499   1_455 S
C383   H395    1.076   .     S
C383   C912    1.391   1_554 S
C383   C924    1.414   1_554 S
C384   C385    1.421   .     A
C384   C923    1.414   .     S
C384   C926    1.429   .     S
C385   C389    1.410   .     A
C386   C924    1.429   1_554 S
C386   C927    1.428   1_554 S
C387   C388    1.405   .     A
C387   C915    1.410   .     S
C387   C926    1.428   .     S
C388   C389    1.387   .     A
C389   H396    1.081   .     S
H391   C427    1.087   .     S
H393   C915    1.083   .     S
H397   O408    1.014   .     S
O402   Zn419   1.926   .     S
O402   Zn418   1.958   .     S
O402   Zn417   1.968   .     S
O402   Zn420   1.921   .     S
O403   Zn418   1.923   .     S
O404   Zn420   1.943   .     S
O405   Zn419   1.939   .     S
O406   Zn417   1.919   .     S
O409   Zn417   1.938   .     S
O410   Zn420   1.939   .     S
O411   Zn418   1.918   .     S
O412   Zn419   1.939   .     S
O413   Zn420   1.937   .     S
O414   Zn417   1.918   .     S
O415   Zn418   1.944   .     S
O416   Zn419   1.936   .     S
C421   O471    1.275   .     A
C421   O473    1.268   .     A
C421   C427    1.439   .     S
C422   C436    1.390   .     A
C422   H454    1.076   .     S
C422   C446    1.413   .     A
C423   H450    1.084   .     S
C423   C435    1.386   .     A
C423   C436    1.393   .     A
C424   O472    1.280   .     A
C424   C426    1.467   .     S
C424   O474    1.285   .     A
C425   C434    1.493   .     S
C425   C445    1.425   .     A
C425   C437    1.422   .     A
C426   C487    1.345   .     S
C426   C502    1.499   .     S
C428   C431    1.453   .     S
C428   C69     1.345   1_565 S
C428   H92     1.088   1_565 S
C429   C430    1.426   .     S
C430   O475    1.280   .     A
C430   O469    1.280   .     A
C431   O476    1.269   .     A
C431   O470    1.257   .     A
C432   C437    1.402   .     A
C432   C981    1.449   .     S
C432   C983    1.391   .     S
C433   O465    1.271   .     A
C433   C436    1.452   .     S
C433   O463    1.280   .     A
C434   O464    1.284   .     A
C434   O466    1.290   .     A
C435   C987    1.410   1_554 S
C435   H993    1.083   1_554 S
C437   C440    1.451   .     S
C438   N458    1.158   .     T
C438   C69     1.450   1_565 S
C439   C448    1.448   .     S
C439   N459    1.157   .     T
C440   N460    1.158   .     T
C441   N461    1.157   .     T
C441   C972    1.449   1_554 S
C442   O468    1.399   .     S
C442   O467    1.223   .     D
C443   H455    1.076   .     S
C443   C972    1.391   1_554 S
C443   C984    1.414   1_554 S
C444   C445    1.421   .     A
C444   C983    1.414   .     S
C444   C986    1.429   .     S
C445   C449    1.410   .     A
C446   C984    1.429   1_554 S
C446   C987    1.428   1_554 S
C447   C448    1.405   .     A
C447   C975    1.410   .     S
C447   C986    1.428   .     S
C448   C449    1.387   .     A
C449   H456    1.081   .     S
H451   C487    1.087   .     S
H453   C975    1.083   .     S
H457   O468    1.014   .     S
O462   Zn479   1.926   .     S
O462   Zn478   1.958   .     S
O462   Zn477   1.968   .     S
O462   Zn480   1.921   .     S
O463   Zn478   1.923   .     S
O464   Zn480   1.943   .     S
O465   Zn479   1.939   .     S
O466   Zn477   1.919   .     S
O469   Zn477   1.938   .     S
O470   Zn480   1.939   .     S
O471   Zn478   1.918   .     S
O472   Zn479   1.939   .     S
O473   Zn480   1.937   .     S
O474   Zn477   1.918   .     S
O475   Zn478   1.944   .     S
O476   Zn479   1.936   .     S
C481   O531    1.275   .     A
C481   O533    1.268   .     A
C481   C487    1.439   .     S
C482   C496    1.390   .     A
C482   H514    1.076   .     S
C482   C506    1.413   .     A
C483   H510    1.084   .     S
C483   C495    1.386   .     A
C483   C496    1.393   .     A
C484   O532    1.280   .     A
C484   C486    1.467   .     S
C484   O534    1.285   .     A
C485   C494    1.493   .     S
C485   C505    1.425   .     A
C485   C497    1.422   .     A
C486   C367    1.345   1_655 S
C486   C382    1.499   1_655 S
C488   C491    1.453   .     S
C488   C129    1.345   1_565 S
C488   H152    1.088   1_565 S
C489   C490    1.426   .     S
C490   O535    1.280   .     A
C490   O529    1.280   .     A
C491   O536    1.269   .     A
C491   O530    1.257   .     A
C492   C497    1.402   .     A
C492   C1041   1.449   .     S
C492   C1043   1.391   .     S
C493   O525    1.271   .     A
C493   C496    1.452   .     S
C493   O523    1.280   .     A
C494   O524    1.284   .     A
C494   O526    1.290   .     A
C495   C1047   1.410   1_554 S
C495   H1053   1.083   1_554 S
C497   C500    1.451   .     S
C498   N518    1.158   .     T
C498   C129    1.450   1_565 S
C499   C508    1.448   .     S
C499   N519    1.157   .     T
C500   N520    1.158   .     T
C501   N521    1.157   .     T
C501   C1032   1.449   1_554 S
C502   O528    1.399   .     S
C502   O527    1.223   .     D
C503   H515    1.076   .     S
C503   C1032   1.391   1_554 S
C503   C1044   1.414   1_554 S
C504   C505    1.421   .     A
C504   C1043   1.414   .     S
C504   C1046   1.429   .     S
C505   C509    1.410   .     A
C506   C1044   1.429   1_554 S
C506   C1047   1.428   1_554 S
C507   C508    1.405   .     A
C507   C1035   1.410   .     S
C507   C1046   1.428   .     S
C508   C509    1.387   .     A
C509   H516    1.081   .     S
H511   C367    1.087   1_655 S
H513   C1035   1.083   .     S
H517   O528    1.014   .     S
O522   Zn539   1.926   .     S
O522   Zn538   1.958   .     S
O522   Zn537   1.968   .     S
O522   Zn540   1.921   .     S
O523   Zn538   1.923   .     S
O524   Zn540   1.943   .     S
O525   Zn539   1.939   .     S
O526   Zn537   1.919   .     S
O529   Zn537   1.938   .     S
O530   Zn540   1.939   .     S
O531   Zn538   1.918   .     S
O532   Zn539   1.939   .     S
O533   Zn540   1.937   .     S
O534   Zn537   1.918   .     S
O535   Zn538   1.944   .     S
O536   Zn539   1.936   .     S
C541   O591    1.275   .     A
C541   O593    1.268   .     A
C541   C547    1.439   .     S
C542   C556    1.390   .     A
C542   H574    1.076   .     S
C542   C566    1.413   .     A
C543   H570    1.084   .     S
C543   C555    1.386   .     A
C543   C556    1.393   .     A
C544   O592    1.280   .     A
C544   C546    1.467   .     S
C544   O594    1.285   .     A
C545   C554    1.493   .     S
C545   C565    1.425   .     A
C545   C557    1.422   .     A
C546   C607    1.345   .     S
C546   C622    1.499   .     S
C547   C666    1.345   1_455 S
C547   H691    1.087   1_455 S
C548   C551    1.453   .     S
C548   C729    1.345   .     S
C548   H752    1.088   .     S
C549   C550    1.426   .     S
C549   C908    1.345   1_545 S
C549   C918    1.450   1_545 S
C550   O595    1.280   .     A
C550   O589    1.280   .     A
C551   O596    1.269   .     A
C551   O590    1.257   .     A
C552   C557    1.402   .     A
C552   C21     1.449   1_556 S
C552   C23     1.391   1_556 S
C553   O585    1.271   .     A
C553   C556    1.452   .     S
C553   O583    1.280   .     A
C554   O584    1.284   .     A
C554   O586    1.290   .     A
C557   C560    1.451   .     S
C558   N578    1.158   .     T
C558   C729    1.450   .     S
C559   C568    1.448   .     S
C559   N579    1.157   .     T
C560   N580    1.158   .     T
C561   N581    1.157   .     T
C562   O588    1.399   .     S
C562   O587    1.223   .     D
C562   C666    1.499   1_455 S
C563   H575    1.076   .     S
C564   C565    1.421   .     A
C564   C23     1.414   1_556 S
C564   C26     1.429   1_556 S
C565   C569    1.410   .     A
C567   C568    1.405   .     A
C567   C15     1.410   1_556 S
C567   C26     1.428   1_556 S
C568   C569    1.387   .     A
C569   H576    1.081   .     S
H571   C607    1.087   .     S
H572   C908    1.088   1_545 S
H573   C15     1.083   1_556 S
H577   O588    1.014   .     S
O582   Zn599   1.926   .     S
O582   Zn598   1.958   .     S
O582   Zn597   1.968   .     S
O582   Zn600   1.921   .     S
O583   Zn598   1.923   .     S
O584   Zn600   1.943   .     S
O585   Zn599   1.939   .     S
O586   Zn597   1.919   .     S
O589   Zn597   1.938   .     S
O590   Zn600   1.939   .     S
O591   Zn598   1.918   .     S
O592   Zn599   1.939   .     S
O593   Zn600   1.937   .     S
O594   Zn597   1.918   .     S
O595   Zn598   1.944   .     S
O596   Zn599   1.936   .     S
C601   O651    1.275   .     A
C601   O653    1.268   .     A
C601   C607    1.439   .     S
C602   C616    1.390   .     A
C602   H634    1.076   .     S
C602   C626    1.413   .     A
C603   H630    1.084   .     S
C603   C615    1.386   .     A
C603   C616    1.393   .     A
C604   O652    1.280   .     A
C604   C606    1.467   .     S
C604   O654    1.285   .     A
C605   C614    1.493   .     S
C605   C625    1.425   .     A
C605   C617    1.422   .     A
C606   C667    1.345   .     S
C606   C682    1.499   .     S
C608   C611    1.453   .     S
C608   C789    1.345   .     S
C608   H812    1.088   .     S
C609   C610    1.426   .     S
C609   C968    1.345   1_545 S
C609   C978    1.450   1_545 S
C610   O655    1.280   .     A
C610   O649    1.280   .     A
C611   O656    1.269   .     A
C611   O650    1.257   .     A
C612   C617    1.402   .     A
C612   C81     1.449   1_556 S
C612   C83     1.391   1_556 S
C613   O645    1.271   .     A
C613   C616    1.452   .     S
C613   O643    1.280   .     A
C614   O644    1.284   .     A
C614   O646    1.290   .     A
C617   C620    1.451   .     S
C618   N638    1.158   .     T
C618   C789    1.450   .     S
C619   C628    1.448   .     S
C619   N639    1.157   .     T
C620   N640    1.158   .     T
C621   N641    1.157   .     T
C622   O648    1.399   .     S
C622   O647    1.223   .     D
C623   H635    1.076   .     S
C624   C625    1.421   .     A
C624   C83     1.414   1_556 S
C624   C86     1.429   1_556 S
C625   C629    1.410   .     A
C627   C628    1.405   .     A
C627   C75     1.410   1_556 S
C627   C86     1.428   1_556 S
C628   C629    1.387   .     A
C629   H636    1.081   .     S
H631   C667    1.087   .     S
H632   C968    1.088   1_545 S
H633   C75     1.083   1_556 S
H637   O648    1.014   .     S
O642   Zn659   1.926   .     S
O642   Zn658   1.958   .     S
O642   Zn657   1.968   .     S
O642   Zn660   1.921   .     S
O643   Zn658   1.923   .     S
O644   Zn660   1.943   .     S
O645   Zn659   1.939   .     S
O646   Zn657   1.919   .     S
O649   Zn657   1.938   .     S
O650   Zn660   1.939   .     S
O651   Zn658   1.918   .     S
O652   Zn659   1.939   .     S
O653   Zn660   1.937   .     S
O654   Zn657   1.918   .     S
O655   Zn658   1.944   .     S
O656   Zn659   1.936   .     S
C661   O711    1.275   .     A
C661   O713    1.268   .     A
C661   C667    1.439   .     S
C662   C676    1.390   .     A
C662   H694    1.076   .     S
C662   C686    1.413   .     A
C663   H690    1.084   .     S
C663   C675    1.386   .     A
C663   C676    1.393   .     A
C664   O712    1.280   .     A
C664   C666    1.467   .     S
C664   O714    1.285   .     A
C665   C674    1.493   .     S
C665   C685    1.425   .     A
C665   C677    1.422   .     A
C666   C547    1.345   1_655 S
C666   C562    1.499   1_655 S
C668   C671    1.453   .     S
C668   C849    1.345   .     S
C668   H872    1.088   .     S
C669   C670    1.426   .     S
C669   C1028   1.345   1_545 S
C669   C1038   1.450   1_545 S
C670   O715    1.280   .     A
C670   O709    1.280   .     A
C671   O716    1.269   .     A
C671   O710    1.257   .     A
C672   C677    1.402   .     A
C672   C141    1.449   1_556 S
C672   C143    1.391   1_556 S
C673   O705    1.271   .     A
C673   C676    1.452   .     S
C673   O703    1.280   .     A
C674   O704    1.284   .     A
C674   O706    1.290   .     A
C677   C680    1.451   .     S
C678   N698    1.158   .     T
C678   C849    1.450   .     S
C679   C688    1.448   .     S
C679   N699    1.157   .     T
C680   N700    1.158   .     T
C681   N701    1.157   .     T
C682   O708    1.399   .     S
C682   O707    1.223   .     D
C683   H695    1.076   .     S
C684   C685    1.421   .     A
C684   C143    1.414   1_556 S
C684   C146    1.429   1_556 S
C685   C689    1.410   .     A
C687   C688    1.405   .     A
C687   C135    1.410   1_556 S
C687   C146    1.428   1_556 S
C688   C689    1.387   .     A
C689   H696    1.081   .     S
H691   C547    1.087   1_655 S
H692   C1028   1.088   1_545 S
H693   C135    1.083   1_556 S
H697   O708    1.014   .     S
O702   Zn719   1.926   .     S
O702   Zn718   1.958   .     S
O702   Zn717   1.968   .     S
O702   Zn720   1.921   .     S
O703   Zn718   1.923   .     S
O704   Zn720   1.943   .     S
O705   Zn719   1.939   .     S
O706   Zn717   1.919   .     S
O709   Zn717   1.938   .     S
O710   Zn720   1.939   .     S
O711   Zn718   1.918   .     S
O712   Zn719   1.939   .     S
O713   Zn720   1.937   .     S
O714   Zn717   1.918   .     S
O715   Zn718   1.944   .     S
O716   Zn719   1.936   .     S
C721   O771    1.275   .     A
C721   O773    1.268   .     A
C721   C727    1.439   .     S
C722   C736    1.390   .     A
C722   H754    1.076   .     S
C722   C746    1.413   .     A
C723   H750    1.084   .     S
C723   C735    1.386   .     A
C723   C736    1.393   .     A
C724   O772    1.280   .     A
C724   C726    1.467   .     S
C724   O774    1.285   .     A
C725   C734    1.493   .     S
C725   C745    1.425   .     A
C725   C737    1.422   .     A
C726   C787    1.345   .     S
C726   C802    1.499   .     S
C727   C846    1.345   1_455 S
C727   H871    1.087   1_455 S
C728   C731    1.453   .     S
C728   C909    1.345   .     S
C728   H932    1.088   .     S
C729   C730    1.426   .     S
C730   O775    1.280   .     A
C730   O769    1.280   .     A
C731   O776    1.269   .     A
C731   O770    1.257   .     A
C732   C737    1.402   .     A
C732   C201    1.449   1_556 S
C732   C203    1.391   1_556 S
C733   O765    1.271   .     A
C733   C736    1.452   .     S
C733   O763    1.280   .     A
C734   O764    1.284   .     A
C734   O766    1.290   .     A
C737   C740    1.451   .     S
C738   N758    1.158   .     T
C738   C909    1.450   .     S
C739   C748    1.448   .     S
C739   N759    1.157   .     T
C740   N760    1.158   .     T
C741   N761    1.157   .     T
C742   O768    1.399   .     S
C742   O767    1.223   .     D
C742   C846    1.499   1_455 S
C743   H755    1.076   .     S
C744   C745    1.421   .     A
C744   C203    1.414   1_556 S
C744   C206    1.429   1_556 S
C745   C749    1.410   .     A
C747   C748    1.405   .     A
C747   C195    1.410   1_556 S
C747   C206    1.428   1_556 S
C748   C749    1.387   .     A
C749   H756    1.081   .     S
H751   C787    1.087   .     S
H753   C195    1.083   1_556 S
H757   O768    1.014   .     S
O762   Zn779   1.926   .     S
O762   Zn778   1.958   .     S
O762   Zn777   1.968   .     S
O762   Zn780   1.921   .     S
O763   Zn778   1.923   .     S
O764   Zn780   1.943   .     S
O765   Zn779   1.939   .     S
O766   Zn777   1.919   .     S
O769   Zn777   1.938   .     S
O770   Zn780   1.939   .     S
O771   Zn778   1.918   .     S
O772   Zn779   1.939   .     S
O773   Zn780   1.937   .     S
O774   Zn777   1.918   .     S
O775   Zn778   1.944   .     S
O776   Zn779   1.936   .     S
C781   O831    1.275   .     A
C781   O833    1.268   .     A
C781   C787    1.439   .     S
C782   C796    1.390   .     A
C782   H814    1.076   .     S
C782   C806    1.413   .     A
C783   H810    1.084   .     S
C783   C795    1.386   .     A
C783   C796    1.393   .     A
C784   O832    1.280   .     A
C784   C786    1.467   .     S
C784   O834    1.285   .     A
C785   C794    1.493   .     S
C785   C805    1.425   .     A
C785   C797    1.422   .     A
C786   C847    1.345   .     S
C786   C862    1.499   .     S
C788   C791    1.453   .     S
C788   C969    1.345   .     S
C788   H992    1.088   .     S
C789   C790    1.426   .     S
C790   O835    1.280   .     A
C790   O829    1.280   .     A
C791   O836    1.269   .     A
C791   O830    1.257   .     A
C792   C797    1.402   .     A
C792   C261    1.449   1_556 S
C792   C263    1.391   1_556 S
C793   O825    1.271   .     A
C793   C796    1.452   .     S
C793   O823    1.280   .     A
C794   O824    1.284   .     A
C794   O826    1.290   .     A
C797   C800    1.451   .     S
C798   N818    1.158   .     T
C798   C969    1.450   .     S
C799   C808    1.448   .     S
C799   N819    1.157   .     T
C800   N820    1.158   .     T
C801   N821    1.157   .     T
C802   O828    1.399   .     S
C802   O827    1.223   .     D
C803   H815    1.076   .     S
C804   C805    1.421   .     A
C804   C263    1.414   1_556 S
C804   C266    1.429   1_556 S
C805   C809    1.410   .     A
C807   C808    1.405   .     A
C807   C255    1.410   1_556 S
C807   C266    1.428   1_556 S
C808   C809    1.387   .     A
C809   H816    1.081   .     S
H811   C847    1.087   .     S
H813   C255    1.083   1_556 S
H817   O828    1.014   .     S
O822   Zn839   1.926   .     S
O822   Zn838   1.958   .     S
O822   Zn837   1.968   .     S
O822   Zn840   1.921   .     S
O823   Zn838   1.923   .     S
O824   Zn840   1.943   .     S
O825   Zn839   1.939   .     S
O826   Zn837   1.919   .     S
O829   Zn837   1.938   .     S
O830   Zn840   1.939   .     S
O831   Zn838   1.918   .     S
O832   Zn839   1.939   .     S
O833   Zn840   1.937   .     S
O834   Zn837   1.918   .     S
O835   Zn838   1.944   .     S
O836   Zn839   1.936   .     S
C841   O891    1.275   .     A
C841   O893    1.268   .     A
C841   C847    1.439   .     S
C842   C856    1.390   .     A
C842   H874    1.076   .     S
C842   C866    1.413   .     A
C843   H870    1.084   .     S
C843   C855    1.386   .     A
C843   C856    1.393   .     A
C844   O892    1.280   .     A
C844   C846    1.467   .     S
C844   O894    1.285   .     A
C845   C854    1.493   .     S
C845   C865    1.425   .     A
C845   C857    1.422   .     A
C846   C727    1.345   1_655 S
C846   C742    1.499   1_655 S
C848   C851    1.453   .     S
C848   C1029   1.345   .     S
C848   H1052   1.088   .     S
C849   C850    1.426   .     S
C850   O895    1.280   .     A
C850   O889    1.280   .     A
C851   O896    1.269   .     A
C851   O890    1.257   .     A
C852   C857    1.402   .     A
C852   C321    1.449   1_556 S
C852   C323    1.391   1_556 S
C853   O885    1.271   .     A
C853   C856    1.452   .     S
C853   O883    1.280   .     A
C854   O884    1.284   .     A
C854   O886    1.290   .     A
C857   C860    1.451   .     S
C858   N878    1.158   .     T
C858   C1029   1.450   .     S
C859   C868    1.448   .     S
C859   N879    1.157   .     T
C860   N880    1.158   .     T
C861   N881    1.157   .     T
C862   O888    1.399   .     S
C862   O887    1.223   .     D
C863   H875    1.076   .     S
C864   C865    1.421   .     A
C864   C323    1.414   1_556 S
C864   C326    1.429   1_556 S
C865   C869    1.410   .     A
C867   C868    1.405   .     A
C867   C315    1.410   1_556 S
C867   C326    1.428   1_556 S
C868   C869    1.387   .     A
C869   H876    1.081   .     S
H871   C727    1.087   1_655 S
H873   C315    1.083   1_556 S
H877   O888    1.014   .     S
O882   Zn899   1.926   .     S
O882   Zn898   1.958   .     S
O882   Zn897   1.968   .     S
O882   Zn900   1.921   .     S
O883   Zn898   1.923   .     S
O884   Zn900   1.943   .     S
O885   Zn899   1.939   .     S
O886   Zn897   1.919   .     S
O889   Zn897   1.938   .     S
O890   Zn900   1.939   .     S
O891   Zn898   1.918   .     S
O892   Zn899   1.939   .     S
O893   Zn900   1.937   .     S
O894   Zn897   1.918   .     S
O895   Zn898   1.944   .     S
O896   Zn899   1.936   .     S
C901   O951    1.275   .     A
C901   O953    1.268   .     A
C901   C907    1.439   .     S
C902   C916    1.390   .     A
C902   H934    1.076   .     S
C902   C926    1.413   .     A
C903   H930    1.084   .     S
C903   C915    1.386   .     A
C903   C916    1.393   .     A
C904   O952    1.280   .     A
C904   C906    1.467   .     S
C904   O954    1.285   .     A
C905   C914    1.493   .     S
C905   C925    1.425   .     A
C905   C917    1.422   .     A
C906   C967    1.345   .     S
C906   C982    1.499   .     S
C907   C1026   1.345   1_455 S
C907   H1051   1.087   1_455 S
C908   C911    1.453   .     S
C908   C549    1.345   1_565 S
C908   H572    1.088   1_565 S
C909   C910    1.426   .     S
C910   O955    1.280   .     A
C910   O949    1.280   .     A
C911   O956    1.269   .     A
C911   O950    1.257   .     A
C912   C917    1.402   .     A
C912   C381    1.449   1_556 S
C912   C383    1.391   1_556 S
C913   O945    1.271   .     A
C913   C916    1.452   .     S
C913   O943    1.280   .     A
C914   O944    1.284   .     A
C914   O946    1.290   .     A
C917   C920    1.451   .     S
C918   N938    1.158   .     T
C918   C549    1.450   1_565 S
C919   C928    1.448   .     S
C919   N939    1.157   .     T
C920   N940    1.158   .     T
C921   N941    1.157   .     T
C922   O948    1.399   .     S
C922   O947    1.223   .     D
C922   C1026   1.499   1_455 S
C923   H935    1.076   .     S
C924   C925    1.421   .     A
C924   C383    1.414   1_556 S
C924   C386    1.429   1_556 S
C925   C929    1.410   .     A
C927   C928    1.405   .     A
C927   C375    1.410   1_556 S
C927   C386    1.428   1_556 S
C928   C929    1.387   .     A
C929   H936    1.081   .     S
H931   C967    1.087   .     S
H933   C375    1.083   1_556 S
H937   O948    1.014   .     S
O942   Zn959   1.926   .     S
O942   Zn958   1.958   .     S
O942   Zn957   1.968   .     S
O942   Zn960   1.921   .     S
O943   Zn958   1.923   .     S
O944   Zn960   1.943   .     S
O945   Zn959   1.939   .     S
O946   Zn957   1.919   .     S
O949   Zn957   1.938   .     S
O950   Zn960   1.939   .     S
O951   Zn958   1.918   .     S
O952   Zn959   1.939   .     S
O953   Zn960   1.937   .     S
O954   Zn957   1.918   .     S
O955   Zn958   1.944   .     S
O956   Zn959   1.936   .     S
C961   O1011   1.275   .     A
C961   O1013   1.268   .     A
C961   C967    1.439   .     S
C962   C976    1.390   .     A
C962   H994    1.076   .     S
C962   C986    1.413   .     A
C963   H990    1.084   .     S
C963   C975    1.386   .     A
C963   C976    1.393   .     A
C964   O1012   1.280   .     A
C964   C966    1.467   .     S
C964   O1014   1.285   .     A
C965   C974    1.493   .     S
C965   C985    1.425   .     A
C965   C977    1.422   .     A
C966   C1027   1.345   .     S
C966   C1042   1.499   .     S
C968   C971    1.453   .     S
C968   C609    1.345   1_565 S
C968   H632    1.088   1_565 S
C969   C970    1.426   .     S
C970   O1015   1.280   .     A
C970   O1009   1.280   .     A
C971   O1016   1.269   .     A
C971   O1010   1.257   .     A
C972   C977    1.402   .     A
C972   C441    1.449   1_556 S
C972   C443    1.391   1_556 S
C973   O1005   1.271   .     A
C973   C976    1.452   .     S
C973   O1003   1.280   .     A
C974   O1004   1.284   .     A
C974   O1006   1.290   .     A
C977   C980    1.451   .     S
C978   N998    1.158   .     T
C978   C609    1.450   1_565 S
C979   C988    1.448   .     S
C979   N999    1.157   .     T
C980   N1000   1.158   .     T
C981   N1001   1.157   .     T
C982   O1008   1.399   .     S
C982   O1007   1.223   .     D
C983   H995    1.076   .     S
C984   C985    1.421   .     A
C984   C443    1.414   1_556 S
C984   C446    1.429   1_556 S
C985   C989    1.410   .     A
C987   C988    1.405   .     A
C987   C435    1.410   1_556 S
C987   C446    1.428   1_556 S
C988   C989    1.387   .     A
C989   H996    1.081   .     S
H991   C1027   1.087   .     S
H993   C435    1.083   1_556 S
H997   O1008   1.014   .     S
O1002  Zn1019  1.926   .     S
O1002  Zn1018  1.958   .     S
O1002  Zn1017  1.968   .     S
O1002  Zn1020  1.921   .     S
O1003  Zn1018  1.923   .     S
O1004  Zn1020  1.943   .     S
O1005  Zn1019  1.939   .     S
O1006  Zn1017  1.919   .     S
O1009  Zn1017  1.938   .     S
O1010  Zn1020  1.939   .     S
O1011  Zn1018  1.918   .     S
O1012  Zn1019  1.939   .     S
O1013  Zn1020  1.937   .     S
O1014  Zn1017  1.918   .     S
O1015  Zn1018  1.944   .     S
O1016  Zn1019  1.936   .     S
C1021  O1071   1.275   .     A
C1021  O1073   1.268   .     A
C1021  C1027   1.439   .     S
C1022  C1036   1.390   .     A
C1022  H1054   1.076   .     S
C1022  C1046   1.413   .     A
C1023  H1050   1.084   .     S
C1023  C1035   1.386   .     A
C1023  C1036   1.393   .     A
C1024  O1072   1.280   .     A
C1024  C1026   1.467   .     S
C1024  O1074   1.285   .     A
C1025  C1034   1.493   .     S
C1025  C1045   1.425   .     A
C1025  C1037   1.422   .     A
C1026  C907    1.345   1_655 S
C1026  C922    1.499   1_655 S
C1028  C1031   1.453   .     S
C1028  C669    1.345   1_565 S
C1028  H692    1.088   1_565 S
C1029  C1030   1.426   .     S
C1030  O1075   1.280   .     A
C1030  O1069   1.280   .     A
C1031  O1076   1.269   .     A
C1031  O1070   1.257   .     A
C1032  C1037   1.402   .     A
C1032  C501    1.449   1_556 S
C1032  C503    1.391   1_556 S
C1033  O1065   1.271   .     A
C1033  C1036   1.452   .     S
C1033  O1063   1.280   .     A
C1034  O1064   1.284   .     A
C1034  O1066   1.290   .     A
C1037  C1040   1.451   .     S
C1038  N1058   1.158   .     T
C1038  C669    1.450   1_565 S
C1039  C1048   1.448   .     S
C1039  N1059   1.157   .     T
C1040  N1060   1.158   .     T
C1041  N1061   1.157   .     T
C1042  O1068   1.399   .     S
C1042  O1067   1.223   .     D
C1043  H1055   1.076   .     S
C1044  C1045   1.421   .     A
C1044  C503    1.414   1_556 S
C1044  C506    1.429   1_556 S
C1045  C1049   1.410   .     A
C1047  C1048   1.405   .     A
C1047  C495    1.410   1_556 S
C1047  C506    1.428   1_556 S
C1048  C1049   1.387   .     A
C1049  H1056   1.081   .     S
H1051  C907    1.087   1_655 S
H1053  C495    1.083   1_556 S
H1057  O1068   1.014   .     S
O1062  Zn1079  1.926   .     S
O1062  Zn1078  1.958   .     S
O1062  Zn1077  1.968   .     S
O1062  Zn1080  1.921   .     S
O1063  Zn1078  1.923   .     S
O1064  Zn1080  1.943   .     S
O1065  Zn1079  1.939   .     S
O1066  Zn1077  1.919   .     S
O1069  Zn1077  1.938   .     S
O1070  Zn1080  1.939   .     S
O1071  Zn1078  1.918   .     S
O1072  Zn1079  1.939   .     S
O1073  Zn1080  1.937   .     S
O1074  Zn1077  1.918   .     S
O1075  Zn1078  1.944   .     S
O1076  Zn1079  1.936   .     S
