data_str_m2_o1_o18_pcu_sym.101
_audit_creation_date              2020-01-03
_audit_creation_method            'Materials Studio'
_symmetry_space_group_name_H-M    'P1'
_symmetry_Int_Tables_number       1
_symmetry_cell_setting            triclinic
loop_
_symmetry_equiv_pos_as_xyz
  x,y,z
_cell_length_a                    28.7259
_cell_length_b                    32.3428
_cell_length_c                    31.0016
_cell_angle_alpha                 89.3248
_cell_angle_beta                  74.2013
_cell_angle_gamma                 90.7745
loop_
_atom_site_label
_atom_site_type_symbol
_atom_site_fract_x
_atom_site_fract_y
_atom_site_fract_z
_atom_site_U_iso_or_equiv
_atom_site_adp_type
_atom_site_occupancy
C1     C     0.33260   0.08749   0.25159   0.00000  Uiso   1.00
C2     C     0.00073   0.24584   0.24842   0.00000  Uiso   1.00
C3     C     0.18877   0.14051   0.04415   0.00000  Uiso   1.00
C4     C     0.14426   0.19255   0.45569   0.00000  Uiso   1.00
C5     C     0.23752   0.13411   0.02273   0.00000  Uiso   1.00
C6     C     0.09552   0.19891   0.47707   0.00000  Uiso   1.00
C7     C     0.30961   0.02250   0.22390   0.00000  Uiso   1.00
C8     C     0.02372   0.31083   0.27613   0.00000  Uiso   1.00
C9     C     0.31156   0.31308   0.22001   0.00000  Uiso   1.00
C10    C     0.02177   0.02025   0.28001   0.00000  Uiso   1.00
C11    C     0.00166   0.29056   0.24709   0.00000  Uiso   1.00
C12    C     0.33167   0.04277   0.25293   0.00000  Uiso   1.00
C13    C     0.18322   0.13729   0.27392   0.00000  Uiso   1.00
C14    C     0.15010   0.19606   0.22609   0.00000  Uiso   1.00
C15    C     0.13400   0.13752   0.27367   0.00000  Uiso   1.00
C16    C     0.19933   0.19582   0.22634   0.00000  Uiso   1.00
C17    C     0.30606   0.16623   0.33601   0.00000  Uiso   1.00
C18    C     0.02727   0.16710   0.16399   0.00000  Uiso   1.00
C19    C     0.29088   0.16328   0.38512   0.00000  Uiso   1.00
C20    C     0.04239   0.17000   0.11487   0.00000  Uiso   1.00
C21    C     0.30591   0.14343   0.45530   0.00000  Uiso   1.00
C22    C     0.02713   0.18955   0.04469   0.00000  Uiso   1.00
C23    C     0.32289   0.15119   0.40942   0.00000  Uiso   1.00
C24    C     0.01026   0.18183   0.09059   0.00000  Uiso   1.00
C25    C     0.24263   0.17030   0.40751   0.00000  Uiso   1.00
C26    C     0.09065   0.16311   0.09242   0.00000  Uiso   1.00
C27    C     0.22459   0.16390   0.45406   0.00000  Uiso   1.00
C28    C     0.10854   0.16932   0.04583   0.00000  Uiso   1.00
C29    C     0.25631   0.14716   0.47771   0.00000  Uiso   1.00
C30    C     0.07674   0.18591   0.02217   0.00000  Uiso   1.00
C31    C     0.17552   0.17225   0.47702   0.00000  Uiso   1.00
C32    C     0.15758   0.16092   0.02284   0.00000  Uiso   1.00
Cu33   Cu    0.04689   0.16667   0.25000   0.00000  Uiso   1.00
Cu34   Cu    0.28645   0.16666   0.25000   0.00000  Uiso   1.00
H35    H     0.30579   0.18674   0.10730   0.00000  Uiso   1.00
H36    H     0.02734   0.14614   0.39274   0.00000  Uiso   1.00
H37    H     0.17567   0.12719   0.07731   0.00000  Uiso   1.00
H38    H     0.15733   0.20578   0.42250   0.00000  Uiso   1.00
H39    H     0.29274   0.04043   0.20264   0.00000  Uiso   1.00
H40    H     0.04058   0.29290   0.29739   0.00000  Uiso   1.00
N41    N     0.11736   0.16668   0.24999   0.00000  Uiso   1.00
N42    N     0.21597   0.16666   0.25001   0.00000  Uiso   1.00
O43    O     0.03958   0.10655   0.25000   0.00000  Uiso   1.00
O44    O     0.29375   0.22678   0.25000   0.00000  Uiso   1.00
O45    O     0.29372   0.10654   0.25001   0.00000  Uiso   1.00
O46    O     0.03961   0.22679   0.25000   0.00000  Uiso   1.00
O47    O     0.01852   0.16668   0.31492   0.00000  Uiso   1.00
O48    O     0.31481   0.16666   0.18509   0.00000  Uiso   1.00
O49    O     0.27267   0.16667   0.31492   0.00000  Uiso   1.00
O50    O     0.06067   0.16667   0.18508   0.00000  Uiso   1.00
C51    C     0.26627   0.11064   0.04788   0.00000  Uiso   1.00
O52    O     0.25987   0.11634   0.08800   0.00000  Uiso   1.00
O53    O     0.29854   0.08046   0.02655   0.00000  Uiso   1.00
H54    H     0.31537   0.06651   0.04748   0.00000  Uiso   1.00
C55    C     0.06702   0.22212   0.45145   0.00000  Uiso   1.00
O56    O     0.03747   0.24763   0.46993   0.00000  Uiso   1.00
O57    O     0.07629   0.21645   0.40524   0.00000  Uiso   1.00
H58    H     0.05528   0.23422   0.39126   0.00000  Uiso   1.00
H59    H     0.11414   0.15476   0.11268   0.00000  Uiso   1.00
H60    H     0.21929   0.17893   0.38722   0.00000  Uiso   1.00
H61    H     0.33205   0.13419   0.47268   0.00000  Uiso   1.00
H62    H     0.00084   0.19865   0.02742   0.00000  Uiso   1.00
C63    C     0.29110   0.29362   0.18583   0.00000  Uiso   1.00
O64    O     0.31007   0.26332   0.16554   0.00000  Uiso   1.00
O65    O     0.25088   0.31094   0.17575   0.00000  Uiso   1.00
H66    H     0.24030   0.29507   0.15193   0.00000  Uiso   1.00
C67    C     0.04223   0.03971   0.31419   0.00000  Uiso   1.00
O68    O     0.02329   0.07003   0.33446   0.00000  Uiso   1.00
O69    O     0.08244   0.02238   0.32428   0.00000  Uiso   1.00
H70    H     0.09303   0.03824   0.34811   0.00000  Uiso   1.00
C71    C     0.19752   0.10393   0.29997   0.00000  Uiso   1.00
O72    O     0.20122   0.11044   0.33763   0.00000  Uiso   1.00
O73    O     0.20289   0.06399   0.28279   0.00000  Uiso   1.00
H74    H     0.21174   0.04334   0.30399   0.00000  Uiso   1.00
C75    C     0.13580   0.22945   0.20009   0.00000  Uiso   1.00
O76    O     0.13203   0.22297   0.16245   0.00000  Uiso   1.00
O77    O     0.13049   0.26938   0.21730   0.00000  Uiso   1.00
H78    H     0.12161   0.29005   0.19613   0.00000  Uiso   1.00
H79    H     0.10899   0.11435   0.29271   0.00000  Uiso   1.00
H80    H     0.22434   0.21900   0.20731   0.00000  Uiso   1.00
C81    C     0.66594   0.08749   0.25159   0.00000  Uiso   1.00
C82    C     0.33406   0.24584   0.24842   0.00000  Uiso   1.00
C83    C     0.52210   0.14051   0.04415   0.00000  Uiso   1.00
C84    C     0.47760   0.19255   0.45569   0.00000  Uiso   1.00
C85    C     0.57086   0.13411   0.02273   0.00000  Uiso   1.00
C86    C     0.42885   0.19891   0.47707   0.00000  Uiso   1.00
C87    C     0.64294   0.02250   0.22390   0.00000  Uiso   1.00
C88    C     0.35705   0.31083   0.27613   0.00000  Uiso   1.00
C89    C     0.64489   0.31308   0.22001   0.00000  Uiso   1.00
C90    C     0.35511   0.02025   0.28001   0.00000  Uiso   1.00
C91    C     0.33499   0.29056   0.24709   0.00000  Uiso   1.00
C92    C     0.66500   0.04277   0.25293   0.00000  Uiso   1.00
C93    C     0.51656   0.13729   0.27392   0.00000  Uiso   1.00
C94    C     0.48344   0.19606   0.22609   0.00000  Uiso   1.00
C95    C     0.46733   0.13752   0.27367   0.00000  Uiso   1.00
C96    C     0.53267   0.19582   0.22634   0.00000  Uiso   1.00
C97    C     0.63939   0.16623   0.33601   0.00000  Uiso   1.00
C98    C     0.36061   0.16710   0.16399   0.00000  Uiso   1.00
C99    C     0.62422   0.16328   0.38512   0.00000  Uiso   1.00
C100   C     0.37573   0.17000   0.11487   0.00000  Uiso   1.00
C101   C     0.63924   0.14343   0.45530   0.00000  Uiso   1.00
C102   C     0.36047   0.18955   0.04469   0.00000  Uiso   1.00
C103   C     0.65623   0.15119   0.40942   0.00000  Uiso   1.00
C104   C     0.34360   0.18183   0.09059   0.00000  Uiso   1.00
C105   C     0.57596   0.17030   0.40751   0.00000  Uiso   1.00
C106   C     0.42399   0.16311   0.09242   0.00000  Uiso   1.00
C107   C     0.55793   0.16390   0.45406   0.00000  Uiso   1.00
C108   C     0.44187   0.16932   0.04583   0.00000  Uiso   1.00
C109   C     0.58964   0.14716   0.47771   0.00000  Uiso   1.00
C110   C     0.41007   0.18591   0.02217   0.00000  Uiso   1.00
C111   C     0.50885   0.17225   0.47702   0.00000  Uiso   1.00
C112   C     0.49091   0.16092   0.02284   0.00000  Uiso   1.00
Cu113  Cu    0.38022   0.16667   0.25000   0.00000  Uiso   1.00
Cu114  Cu    0.61978   0.16666   0.25000   0.00000  Uiso   1.00
H115   H     0.63913   0.18674   0.10730   0.00000  Uiso   1.00
H116   H     0.36067   0.14614   0.39274   0.00000  Uiso   1.00
H117   H     0.50901   0.12719   0.07731   0.00000  Uiso   1.00
H118   H     0.49067   0.20578   0.42250   0.00000  Uiso   1.00
H119   H     0.62608   0.04043   0.20264   0.00000  Uiso   1.00
H120   H     0.37391   0.29290   0.29739   0.00000  Uiso   1.00
N121   N     0.45069   0.16668   0.24999   0.00000  Uiso   1.00
N122   N     0.54931   0.16666   0.25001   0.00000  Uiso   1.00
O123   O     0.37291   0.10655   0.25000   0.00000  Uiso   1.00
O124   O     0.62709   0.22678   0.25000   0.00000  Uiso   1.00
O125   O     0.62706   0.10654   0.25001   0.00000  Uiso   1.00
O126   O     0.37294   0.22679   0.25000   0.00000  Uiso   1.00
O127   O     0.35186   0.16668   0.31492   0.00000  Uiso   1.00
O128   O     0.64814   0.16666   0.18509   0.00000  Uiso   1.00
O129   O     0.60600   0.16667   0.31492   0.00000  Uiso   1.00
O130   O     0.39400   0.16667   0.18508   0.00000  Uiso   1.00
C131   C     0.59960   0.11064   0.04788   0.00000  Uiso   1.00
O132   O     0.59320   0.11634   0.08800   0.00000  Uiso   1.00
O133   O     0.63187   0.08046   0.02655   0.00000  Uiso   1.00
H134   H     0.64870   0.06651   0.04748   0.00000  Uiso   1.00
C135   C     0.40036   0.22212   0.45145   0.00000  Uiso   1.00
O136   O     0.37080   0.24763   0.46993   0.00000  Uiso   1.00
O137   O     0.40962   0.21645   0.40524   0.00000  Uiso   1.00
H138   H     0.38862   0.23422   0.39126   0.00000  Uiso   1.00
H139   H     0.44748   0.15476   0.11268   0.00000  Uiso   1.00
H140   H     0.55262   0.17893   0.38722   0.00000  Uiso   1.00
H141   H     0.66539   0.13419   0.47268   0.00000  Uiso   1.00
H142   H     0.33417   0.19865   0.02742   0.00000  Uiso   1.00
C143   C     0.62443   0.29362   0.18583   0.00000  Uiso   1.00
O144   O     0.64340   0.26332   0.16554   0.00000  Uiso   1.00
O145   O     0.58421   0.31094   0.17575   0.00000  Uiso   1.00
H146   H     0.57363   0.29507   0.15193   0.00000  Uiso   1.00
C147   C     0.37557   0.03971   0.31419   0.00000  Uiso   1.00
O148   O     0.35662   0.07003   0.33446   0.00000  Uiso   1.00
O149   O     0.41577   0.02238   0.32428   0.00000  Uiso   1.00
H150   H     0.42636   0.03824   0.34811   0.00000  Uiso   1.00
C151   C     0.53086   0.10393   0.29997   0.00000  Uiso   1.00
O152   O     0.53455   0.11044   0.33763   0.00000  Uiso   1.00
O153   O     0.53622   0.06399   0.28279   0.00000  Uiso   1.00
H154   H     0.54508   0.04334   0.30399   0.00000  Uiso   1.00
C155   C     0.46913   0.22945   0.20009   0.00000  Uiso   1.00
O156   O     0.46537   0.22297   0.16245   0.00000  Uiso   1.00
O157   O     0.46382   0.26938   0.21730   0.00000  Uiso   1.00
H158   H     0.45494   0.29005   0.19613   0.00000  Uiso   1.00
H159   H     0.44232   0.11435   0.29271   0.00000  Uiso   1.00
H160   H     0.55767   0.21900   0.20731   0.00000  Uiso   1.00
C161   C     0.99927   0.08749   0.25159   0.00000  Uiso   1.00
C162   C     0.66739   0.24584   0.24842   0.00000  Uiso   1.00
C163   C     0.85544   0.14051   0.04415   0.00000  Uiso   1.00
C164   C     0.81093   0.19255   0.45569   0.00000  Uiso   1.00
C165   C     0.90419   0.13411   0.02273   0.00000  Uiso   1.00
C166   C     0.76219   0.19891   0.47707   0.00000  Uiso   1.00
C167   C     0.97627   0.02250   0.22390   0.00000  Uiso   1.00
C168   C     0.69039   0.31083   0.27613   0.00000  Uiso   1.00
C169   C     0.97822   0.31308   0.22001   0.00000  Uiso   1.00
C170   C     0.68844   0.02025   0.28001   0.00000  Uiso   1.00
C171   C     0.66832   0.29056   0.24709   0.00000  Uiso   1.00
C172   C     0.99834   0.04277   0.25293   0.00000  Uiso   1.00
C173   C     0.84989   0.13729   0.27392   0.00000  Uiso   1.00
C174   C     0.81677   0.19606   0.22609   0.00000  Uiso   1.00
C175   C     0.80066   0.13752   0.27367   0.00000  Uiso   1.00
C176   C     0.86600   0.19582   0.22634   0.00000  Uiso   1.00
C177   C     0.97272   0.16623   0.33601   0.00000  Uiso   1.00
C178   C     0.69394   0.16710   0.16399   0.00000  Uiso   1.00
C179   C     0.95755   0.16328   0.38512   0.00000  Uiso   1.00
C180   C     0.70906   0.17000   0.11487   0.00000  Uiso   1.00
C181   C     0.97257   0.14343   0.45530   0.00000  Uiso   1.00
C182   C     0.69380   0.18955   0.04469   0.00000  Uiso   1.00
C183   C     0.98956   0.15119   0.40942   0.00000  Uiso   1.00
C184   C     0.67693   0.18183   0.09059   0.00000  Uiso   1.00
C185   C     0.90930   0.17030   0.40751   0.00000  Uiso   1.00
C186   C     0.75732   0.16311   0.09242   0.00000  Uiso   1.00
C187   C     0.89126   0.16390   0.45406   0.00000  Uiso   1.00
C188   C     0.77520   0.16932   0.04583   0.00000  Uiso   1.00
C189   C     0.92298   0.14716   0.47771   0.00000  Uiso   1.00
C190   C     0.74340   0.18591   0.02217   0.00000  Uiso   1.00
C191   C     0.84218   0.17225   0.47702   0.00000  Uiso   1.00
C192   C     0.82424   0.16092   0.02284   0.00000  Uiso   1.00
Cu193  Cu    0.71355   0.16667   0.25000   0.00000  Uiso   1.00
Cu194  Cu    0.95311   0.16666   0.25000   0.00000  Uiso   1.00
H195   H     0.97246   0.18674   0.10730   0.00000  Uiso   1.00
H196   H     0.69400   0.14614   0.39274   0.00000  Uiso   1.00
H197   H     0.84234   0.12719   0.07731   0.00000  Uiso   1.00
H198   H     0.82400   0.20578   0.42250   0.00000  Uiso   1.00
H199   H     0.95941   0.04043   0.20264   0.00000  Uiso   1.00
H200   H     0.70724   0.29290   0.29739   0.00000  Uiso   1.00
N201   N     0.78403   0.16668   0.24999   0.00000  Uiso   1.00
N202   N     0.88264   0.16666   0.25001   0.00000  Uiso   1.00
O203   O     0.70625   0.10655   0.25000   0.00000  Uiso   1.00
O204   O     0.96042   0.22678   0.25000   0.00000  Uiso   1.00
O205   O     0.96039   0.10654   0.25001   0.00000  Uiso   1.00
O206   O     0.70628   0.22679   0.25000   0.00000  Uiso   1.00
O207   O     0.68519   0.16668   0.31492   0.00000  Uiso   1.00
O208   O     0.98148   0.16666   0.18509   0.00000  Uiso   1.00
O209   O     0.93933   0.16667   0.31492   0.00000  Uiso   1.00
O210   O     0.72733   0.16667   0.18508   0.00000  Uiso   1.00
C211   C     0.93293   0.11064   0.04788   0.00000  Uiso   1.00
O212   O     0.92653   0.11634   0.08800   0.00000  Uiso   1.00
O213   O     0.96521   0.08046   0.02655   0.00000  Uiso   1.00
H214   H     0.98204   0.06651   0.04748   0.00000  Uiso   1.00
C215   C     0.73369   0.22212   0.45145   0.00000  Uiso   1.00
O216   O     0.70414   0.24763   0.46993   0.00000  Uiso   1.00
O217   O     0.74296   0.21645   0.40524   0.00000  Uiso   1.00
H218   H     0.72195   0.23422   0.39126   0.00000  Uiso   1.00
H219   H     0.78081   0.15476   0.11268   0.00000  Uiso   1.00
H220   H     0.88595   0.17893   0.38722   0.00000  Uiso   1.00
H221   H     0.99872   0.13419   0.47268   0.00000  Uiso   1.00
H222   H     0.66750   0.19865   0.02742   0.00000  Uiso   1.00
C223   C     0.95777   0.29362   0.18583   0.00000  Uiso   1.00
O224   O     0.97673   0.26332   0.16554   0.00000  Uiso   1.00
O225   O     0.91754   0.31094   0.17575   0.00000  Uiso   1.00
H226   H     0.90696   0.29507   0.15193   0.00000  Uiso   1.00
C227   C     0.70890   0.03971   0.31419   0.00000  Uiso   1.00
O228   O     0.68996   0.07003   0.33446   0.00000  Uiso   1.00
O229   O     0.74911   0.02238   0.32428   0.00000  Uiso   1.00
H230   H     0.75969   0.03824   0.34811   0.00000  Uiso   1.00
C231   C     0.86419   0.10393   0.29997   0.00000  Uiso   1.00
O232   O     0.86788   0.11044   0.33763   0.00000  Uiso   1.00
O233   O     0.86955   0.06399   0.28279   0.00000  Uiso   1.00
H234   H     0.87841   0.04334   0.30399   0.00000  Uiso   1.00
C235   C     0.80246   0.22945   0.20009   0.00000  Uiso   1.00
O236   O     0.79870   0.22297   0.16245   0.00000  Uiso   1.00
O237   O     0.79715   0.26938   0.21730   0.00000  Uiso   1.00
H238   H     0.78828   0.29005   0.19613   0.00000  Uiso   1.00
H239   H     0.77565   0.11435   0.29271   0.00000  Uiso   1.00
H240   H     0.89101   0.21900   0.20731   0.00000  Uiso   1.00
C241   C     0.33260   0.42082   0.25159   0.00000  Uiso   1.00
C242   C     0.00073   0.57918   0.24842   0.00000  Uiso   1.00
C243   C     0.18877   0.47384   0.04415   0.00000  Uiso   1.00
C244   C     0.14426   0.52588   0.45569   0.00000  Uiso   1.00
C245   C     0.23752   0.46745   0.02273   0.00000  Uiso   1.00
C246   C     0.09552   0.53225   0.47707   0.00000  Uiso   1.00
C247   C     0.30961   0.35584   0.22390   0.00000  Uiso   1.00
C248   C     0.02372   0.64416   0.27613   0.00000  Uiso   1.00
C249   C     0.31156   0.64642   0.22001   0.00000  Uiso   1.00
C250   C     0.02177   0.35358   0.28001   0.00000  Uiso   1.00
C251   C     0.00166   0.62389   0.24709   0.00000  Uiso   1.00
C252   C     0.33167   0.37611   0.25293   0.00000  Uiso   1.00
C253   C     0.18322   0.47062   0.27392   0.00000  Uiso   1.00
C254   C     0.15010   0.52939   0.22609   0.00000  Uiso   1.00
C255   C     0.13400   0.47085   0.27367   0.00000  Uiso   1.00
C256   C     0.19933   0.52916   0.22634   0.00000  Uiso   1.00
C257   C     0.30606   0.49956   0.33601   0.00000  Uiso   1.00
C258   C     0.02727   0.50044   0.16399   0.00000  Uiso   1.00
C259   C     0.29088   0.49662   0.38512   0.00000  Uiso   1.00
C260   C     0.04239   0.50333   0.11487   0.00000  Uiso   1.00
C261   C     0.30591   0.47676   0.45530   0.00000  Uiso   1.00
C262   C     0.02713   0.52289   0.04469   0.00000  Uiso   1.00
C263   C     0.32289   0.48453   0.40942   0.00000  Uiso   1.00
C264   C     0.01026   0.51517   0.09059   0.00000  Uiso   1.00
C265   C     0.24263   0.50364   0.40751   0.00000  Uiso   1.00
C266   C     0.09065   0.49645   0.09242   0.00000  Uiso   1.00
C267   C     0.22459   0.49724   0.45406   0.00000  Uiso   1.00
C268   C     0.10854   0.50265   0.04583   0.00000  Uiso   1.00
C269   C     0.25631   0.48049   0.47771   0.00000  Uiso   1.00
C270   C     0.07674   0.51925   0.02217   0.00000  Uiso   1.00
C271   C     0.17552   0.50558   0.47702   0.00000  Uiso   1.00
C272   C     0.15758   0.49425   0.02284   0.00000  Uiso   1.00
Cu273  Cu    0.04689   0.50001   0.25000   0.00000  Uiso   1.00
Cu274  Cu    0.28645   0.49999   0.25000   0.00000  Uiso   1.00
H275   H     0.30579   0.52007   0.10730   0.00000  Uiso   1.00
H276   H     0.02734   0.47947   0.39274   0.00000  Uiso   1.00
H277   H     0.17567   0.46052   0.07731   0.00000  Uiso   1.00
H278   H     0.15733   0.53911   0.42250   0.00000  Uiso   1.00
H279   H     0.29274   0.37376   0.20264   0.00000  Uiso   1.00
H280   H     0.04058   0.62623   0.29739   0.00000  Uiso   1.00
N281   N     0.11736   0.50001   0.24999   0.00000  Uiso   1.00
N282   N     0.21597   0.49999   0.25001   0.00000  Uiso   1.00
O283   O     0.03958   0.43989   0.25000   0.00000  Uiso   1.00
O284   O     0.29375   0.56011   0.25000   0.00000  Uiso   1.00
O285   O     0.29372   0.43988   0.25001   0.00000  Uiso   1.00
O286   O     0.03961   0.56012   0.25000   0.00000  Uiso   1.00
O287   O     0.01852   0.50001   0.31492   0.00000  Uiso   1.00
O288   O     0.31481   0.49999   0.18509   0.00000  Uiso   1.00
O289   O     0.27267   0.50000   0.31492   0.00000  Uiso   1.00
O290   O     0.06067   0.50000   0.18508   0.00000  Uiso   1.00
C291   C     0.26627   0.44398   0.04788   0.00000  Uiso   1.00
O292   O     0.25987   0.44967   0.08800   0.00000  Uiso   1.00
O293   O     0.29854   0.41379   0.02655   0.00000  Uiso   1.00
H294   H     0.31537   0.39985   0.04748   0.00000  Uiso   1.00
C295   C     0.06702   0.55546   0.45145   0.00000  Uiso   1.00
O296   O     0.03747   0.58097   0.46993   0.00000  Uiso   1.00
O297   O     0.07629   0.54978   0.40524   0.00000  Uiso   1.00
H298   H     0.05528   0.56756   0.39126   0.00000  Uiso   1.00
H299   H     0.11414   0.48809   0.11268   0.00000  Uiso   1.00
H300   H     0.21929   0.51226   0.38722   0.00000  Uiso   1.00
H301   H     0.33205   0.46753   0.47268   0.00000  Uiso   1.00
H302   H     0.00084   0.53199   0.02742   0.00000  Uiso   1.00
C303   C     0.29110   0.62696   0.18583   0.00000  Uiso   1.00
O304   O     0.31007   0.59665   0.16554   0.00000  Uiso   1.00
O305   O     0.25088   0.64427   0.17575   0.00000  Uiso   1.00
H306   H     0.24030   0.62840   0.15193   0.00000  Uiso   1.00
C307   C     0.04223   0.37304   0.31419   0.00000  Uiso   1.00
O308   O     0.02329   0.40336   0.33446   0.00000  Uiso   1.00
O309   O     0.08244   0.35571   0.32428   0.00000  Uiso   1.00
H310   H     0.09303   0.37158   0.34811   0.00000  Uiso   1.00
C311   C     0.19752   0.43726   0.29997   0.00000  Uiso   1.00
O312   O     0.20122   0.44377   0.33763   0.00000  Uiso   1.00
O313   O     0.20289   0.39732   0.28279   0.00000  Uiso   1.00
H314   H     0.21174   0.37667   0.30399   0.00000  Uiso   1.00
C315   C     0.13580   0.56278   0.20009   0.00000  Uiso   1.00
O316   O     0.13203   0.55630   0.16245   0.00000  Uiso   1.00
O317   O     0.13049   0.60271   0.21730   0.00000  Uiso   1.00
H318   H     0.12161   0.62338   0.19613   0.00000  Uiso   1.00
H319   H     0.10899   0.44768   0.29271   0.00000  Uiso   1.00
H320   H     0.22434   0.55233   0.20731   0.00000  Uiso   1.00
C321   C     0.66594   0.42082   0.25159   0.00000  Uiso   1.00
C322   C     0.33406   0.57918   0.24842   0.00000  Uiso   1.00
C323   C     0.52210   0.47384   0.04415   0.00000  Uiso   1.00
C324   C     0.47760   0.52588   0.45569   0.00000  Uiso   1.00
C325   C     0.57086   0.46745   0.02273   0.00000  Uiso   1.00
C326   C     0.42885   0.53225   0.47707   0.00000  Uiso   1.00
C327   C     0.64294   0.35584   0.22390   0.00000  Uiso   1.00
C328   C     0.35705   0.64416   0.27613   0.00000  Uiso   1.00
C329   C     0.64489   0.64642   0.22001   0.00000  Uiso   1.00
C330   C     0.35511   0.35358   0.28001   0.00000  Uiso   1.00
C331   C     0.33499   0.62389   0.24709   0.00000  Uiso   1.00
C332   C     0.66500   0.37611   0.25293   0.00000  Uiso   1.00
C333   C     0.51656   0.47062   0.27392   0.00000  Uiso   1.00
C334   C     0.48344   0.52939   0.22609   0.00000  Uiso   1.00
C335   C     0.46733   0.47085   0.27367   0.00000  Uiso   1.00
C336   C     0.53267   0.52916   0.22634   0.00000  Uiso   1.00
C337   C     0.63939   0.49956   0.33601   0.00000  Uiso   1.00
C338   C     0.36061   0.50044   0.16399   0.00000  Uiso   1.00
C339   C     0.62422   0.49662   0.38512   0.00000  Uiso   1.00
C340   C     0.37573   0.50333   0.11487   0.00000  Uiso   1.00
C341   C     0.63924   0.47676   0.45530   0.00000  Uiso   1.00
C342   C     0.36047   0.52289   0.04469   0.00000  Uiso   1.00
C343   C     0.65623   0.48453   0.40942   0.00000  Uiso   1.00
C344   C     0.34360   0.51517   0.09059   0.00000  Uiso   1.00
C345   C     0.57596   0.50364   0.40751   0.00000  Uiso   1.00
C346   C     0.42399   0.49645   0.09242   0.00000  Uiso   1.00
C347   C     0.55793   0.49724   0.45406   0.00000  Uiso   1.00
C348   C     0.44187   0.50265   0.04583   0.00000  Uiso   1.00
C349   C     0.58964   0.48049   0.47771   0.00000  Uiso   1.00
C350   C     0.41007   0.51925   0.02217   0.00000  Uiso   1.00
C351   C     0.50885   0.50558   0.47702   0.00000  Uiso   1.00
C352   C     0.49091   0.49425   0.02284   0.00000  Uiso   1.00
Cu353  Cu    0.38022   0.50001   0.25000   0.00000  Uiso   1.00
Cu354  Cu    0.61978   0.49999   0.25000   0.00000  Uiso   1.00
H355   H     0.63913   0.52007   0.10730   0.00000  Uiso   1.00
H356   H     0.36067   0.47947   0.39274   0.00000  Uiso   1.00
H357   H     0.50901   0.46052   0.07731   0.00000  Uiso   1.00
H358   H     0.49067   0.53911   0.42250   0.00000  Uiso   1.00
H359   H     0.62608   0.37376   0.20264   0.00000  Uiso   1.00
H360   H     0.37391   0.62623   0.29739   0.00000  Uiso   1.00
N361   N     0.45069   0.50001   0.24999   0.00000  Uiso   1.00
N362   N     0.54931   0.49999   0.25001   0.00000  Uiso   1.00
O363   O     0.37291   0.43989   0.25000   0.00000  Uiso   1.00
O364   O     0.62709   0.56011   0.25000   0.00000  Uiso   1.00
O365   O     0.62706   0.43988   0.25001   0.00000  Uiso   1.00
O366   O     0.37294   0.56012   0.25000   0.00000  Uiso   1.00
O367   O     0.35186   0.50001   0.31492   0.00000  Uiso   1.00
O368   O     0.64814   0.49999   0.18509   0.00000  Uiso   1.00
O369   O     0.60600   0.50000   0.31492   0.00000  Uiso   1.00
O370   O     0.39400   0.50000   0.18508   0.00000  Uiso   1.00
C371   C     0.59960   0.44398   0.04788   0.00000  Uiso   1.00
O372   O     0.59320   0.44967   0.08800   0.00000  Uiso   1.00
O373   O     0.63187   0.41379   0.02655   0.00000  Uiso   1.00
H374   H     0.64870   0.39985   0.04748   0.00000  Uiso   1.00
C375   C     0.40036   0.55546   0.45145   0.00000  Uiso   1.00
O376   O     0.37080   0.58097   0.46993   0.00000  Uiso   1.00
O377   O     0.40962   0.54978   0.40524   0.00000  Uiso   1.00
H378   H     0.38862   0.56756   0.39126   0.00000  Uiso   1.00
H379   H     0.44748   0.48809   0.11268   0.00000  Uiso   1.00
H380   H     0.55262   0.51226   0.38722   0.00000  Uiso   1.00
H381   H     0.66539   0.46753   0.47268   0.00000  Uiso   1.00
H382   H     0.33417   0.53199   0.02742   0.00000  Uiso   1.00
C383   C     0.62443   0.62696   0.18583   0.00000  Uiso   1.00
O384   O     0.64340   0.59665   0.16554   0.00000  Uiso   1.00
O385   O     0.58421   0.64427   0.17575   0.00000  Uiso   1.00
H386   H     0.57363   0.62840   0.15193   0.00000  Uiso   1.00
C387   C     0.37557   0.37304   0.31419   0.00000  Uiso   1.00
O388   O     0.35662   0.40336   0.33446   0.00000  Uiso   1.00
O389   O     0.41577   0.35571   0.32428   0.00000  Uiso   1.00
H390   H     0.42636   0.37158   0.34811   0.00000  Uiso   1.00
C391   C     0.53086   0.43726   0.29997   0.00000  Uiso   1.00
O392   O     0.53455   0.44377   0.33763   0.00000  Uiso   1.00
O393   O     0.53622   0.39732   0.28279   0.00000  Uiso   1.00
H394   H     0.54508   0.37667   0.30399   0.00000  Uiso   1.00
C395   C     0.46913   0.56278   0.20009   0.00000  Uiso   1.00
O396   O     0.46537   0.55630   0.16245   0.00000  Uiso   1.00
O397   O     0.46382   0.60271   0.21730   0.00000  Uiso   1.00
H398   H     0.45494   0.62338   0.19613   0.00000  Uiso   1.00
H399   H     0.44232   0.44768   0.29271   0.00000  Uiso   1.00
H400   H     0.55767   0.55233   0.20731   0.00000  Uiso   1.00
C401   C     0.99927   0.42082   0.25159   0.00000  Uiso   1.00
C402   C     0.66739   0.57918   0.24842   0.00000  Uiso   1.00
C403   C     0.85544   0.47384   0.04415   0.00000  Uiso   1.00
C404   C     0.81093   0.52588   0.45569   0.00000  Uiso   1.00
C405   C     0.90419   0.46745   0.02273   0.00000  Uiso   1.00
C406   C     0.76219   0.53225   0.47707   0.00000  Uiso   1.00
C407   C     0.97627   0.35584   0.22390   0.00000  Uiso   1.00
C408   C     0.69039   0.64416   0.27613   0.00000  Uiso   1.00
C409   C     0.97822   0.64642   0.22001   0.00000  Uiso   1.00
C410   C     0.68844   0.35358   0.28001   0.00000  Uiso   1.00
C411   C     0.66832   0.62389   0.24709   0.00000  Uiso   1.00
C412   C     0.99834   0.37611   0.25293   0.00000  Uiso   1.00
C413   C     0.84989   0.47062   0.27392   0.00000  Uiso   1.00
C414   C     0.81677   0.52939   0.22609   0.00000  Uiso   1.00
C415   C     0.80066   0.47085   0.27367   0.00000  Uiso   1.00
C416   C     0.86600   0.52916   0.22634   0.00000  Uiso   1.00
C417   C     0.97272   0.49956   0.33601   0.00000  Uiso   1.00
C418   C     0.69394   0.50044   0.16399   0.00000  Uiso   1.00
C419   C     0.95755   0.49662   0.38512   0.00000  Uiso   1.00
C420   C     0.70906   0.50333   0.11487   0.00000  Uiso   1.00
C421   C     0.97257   0.47676   0.45530   0.00000  Uiso   1.00
C422   C     0.69380   0.52289   0.04469   0.00000  Uiso   1.00
C423   C     0.98956   0.48453   0.40942   0.00000  Uiso   1.00
C424   C     0.67693   0.51517   0.09059   0.00000  Uiso   1.00
C425   C     0.90930   0.50364   0.40751   0.00000  Uiso   1.00
C426   C     0.75732   0.49645   0.09242   0.00000  Uiso   1.00
C427   C     0.89126   0.49724   0.45406   0.00000  Uiso   1.00
C428   C     0.77520   0.50265   0.04583   0.00000  Uiso   1.00
C429   C     0.92298   0.48049   0.47771   0.00000  Uiso   1.00
C430   C     0.74340   0.51925   0.02217   0.00000  Uiso   1.00
C431   C     0.84218   0.50558   0.47702   0.00000  Uiso   1.00
C432   C     0.82424   0.49425   0.02284   0.00000  Uiso   1.00
Cu433  Cu    0.71355   0.50001   0.25000   0.00000  Uiso   1.00
Cu434  Cu    0.95311   0.49999   0.25000   0.00000  Uiso   1.00
H435   H     0.97246   0.52007   0.10730   0.00000  Uiso   1.00
H436   H     0.69400   0.47947   0.39274   0.00000  Uiso   1.00
H437   H     0.84234   0.46052   0.07731   0.00000  Uiso   1.00
H438   H     0.82400   0.53911   0.42250   0.00000  Uiso   1.00
H439   H     0.95941   0.37376   0.20264   0.00000  Uiso   1.00
H440   H     0.70724   0.62623   0.29739   0.00000  Uiso   1.00
N441   N     0.78403   0.50001   0.24999   0.00000  Uiso   1.00
N442   N     0.88264   0.49999   0.25001   0.00000  Uiso   1.00
O443   O     0.70625   0.43989   0.25000   0.00000  Uiso   1.00
O444   O     0.96042   0.56011   0.25000   0.00000  Uiso   1.00
O445   O     0.96039   0.43988   0.25001   0.00000  Uiso   1.00
O446   O     0.70628   0.56012   0.25000   0.00000  Uiso   1.00
O447   O     0.68519   0.50001   0.31492   0.00000  Uiso   1.00
O448   O     0.98148   0.49999   0.18509   0.00000  Uiso   1.00
O449   O     0.93933   0.50000   0.31492   0.00000  Uiso   1.00
O450   O     0.72733   0.50000   0.18508   0.00000  Uiso   1.00
C451   C     0.93293   0.44398   0.04788   0.00000  Uiso   1.00
O452   O     0.92653   0.44967   0.08800   0.00000  Uiso   1.00
O453   O     0.96521   0.41379   0.02655   0.00000  Uiso   1.00
H454   H     0.98204   0.39985   0.04748   0.00000  Uiso   1.00
C455   C     0.73369   0.55546   0.45145   0.00000  Uiso   1.00
O456   O     0.70414   0.58097   0.46993   0.00000  Uiso   1.00
O457   O     0.74296   0.54978   0.40524   0.00000  Uiso   1.00
H458   H     0.72195   0.56756   0.39126   0.00000  Uiso   1.00
H459   H     0.78081   0.48809   0.11268   0.00000  Uiso   1.00
H460   H     0.88595   0.51226   0.38722   0.00000  Uiso   1.00
H461   H     0.99872   0.46753   0.47268   0.00000  Uiso   1.00
H462   H     0.66750   0.53199   0.02742   0.00000  Uiso   1.00
C463   C     0.95777   0.62696   0.18583   0.00000  Uiso   1.00
O464   O     0.97673   0.59665   0.16554   0.00000  Uiso   1.00
O465   O     0.91754   0.64427   0.17575   0.00000  Uiso   1.00
H466   H     0.90696   0.62840   0.15193   0.00000  Uiso   1.00
C467   C     0.70890   0.37304   0.31419   0.00000  Uiso   1.00
O468   O     0.68996   0.40336   0.33446   0.00000  Uiso   1.00
O469   O     0.74911   0.35571   0.32428   0.00000  Uiso   1.00
H470   H     0.75969   0.37158   0.34811   0.00000  Uiso   1.00
C471   C     0.86419   0.43726   0.29997   0.00000  Uiso   1.00
O472   O     0.86788   0.44377   0.33763   0.00000  Uiso   1.00
O473   O     0.86955   0.39732   0.28279   0.00000  Uiso   1.00
H474   H     0.87841   0.37667   0.30399   0.00000  Uiso   1.00
C475   C     0.80246   0.56278   0.20009   0.00000  Uiso   1.00
O476   O     0.79870   0.55630   0.16245   0.00000  Uiso   1.00
O477   O     0.79715   0.60271   0.21730   0.00000  Uiso   1.00
H478   H     0.78828   0.62338   0.19613   0.00000  Uiso   1.00
H479   H     0.77565   0.44768   0.29271   0.00000  Uiso   1.00
H480   H     0.89101   0.55233   0.20731   0.00000  Uiso   1.00
C481   C     0.33260   0.75416   0.25159   0.00000  Uiso   1.00
C482   C     0.00073   0.91251   0.24842   0.00000  Uiso   1.00
C483   C     0.18877   0.80717   0.04415   0.00000  Uiso   1.00
C484   C     0.14426   0.85921   0.45569   0.00000  Uiso   1.00
C485   C     0.23752   0.80078   0.02273   0.00000  Uiso   1.00
C486   C     0.09552   0.86558   0.47707   0.00000  Uiso   1.00
C487   C     0.30961   0.68917   0.22390   0.00000  Uiso   1.00
C488   C     0.02372   0.97749   0.27613   0.00000  Uiso   1.00
C489   C     0.31156   0.97975   0.22001   0.00000  Uiso   1.00
C490   C     0.02177   0.68691   0.28001   0.00000  Uiso   1.00
C491   C     0.00166   0.95722   0.24709   0.00000  Uiso   1.00
C492   C     0.33167   0.70944   0.25293   0.00000  Uiso   1.00
C493   C     0.18322   0.80395   0.27392   0.00000  Uiso   1.00
C494   C     0.15010   0.86273   0.22609   0.00000  Uiso   1.00
C495   C     0.13400   0.80418   0.27367   0.00000  Uiso   1.00
C496   C     0.19933   0.86249   0.22634   0.00000  Uiso   1.00
C497   C     0.30606   0.83290   0.33601   0.00000  Uiso   1.00
C498   C     0.02727   0.83377   0.16399   0.00000  Uiso   1.00
C499   C     0.29088   0.82995   0.38512   0.00000  Uiso   1.00
C500   C     0.04239   0.83667   0.11487   0.00000  Uiso   1.00
C501   C     0.30591   0.81009   0.45530   0.00000  Uiso   1.00
C502   C     0.02713   0.85622   0.04469   0.00000  Uiso   1.00
C503   C     0.32289   0.81786   0.40942   0.00000  Uiso   1.00
C504   C     0.01026   0.84850   0.09059   0.00000  Uiso   1.00
C505   C     0.24263   0.83697   0.40751   0.00000  Uiso   1.00
C506   C     0.09065   0.82978   0.09242   0.00000  Uiso   1.00
C507   C     0.22459   0.83057   0.45406   0.00000  Uiso   1.00
C508   C     0.10854   0.83598   0.04583   0.00000  Uiso   1.00
C509   C     0.25631   0.81383   0.47771   0.00000  Uiso   1.00
C510   C     0.07674   0.85258   0.02217   0.00000  Uiso   1.00
C511   C     0.17552   0.83891   0.47702   0.00000  Uiso   1.00
C512   C     0.15758   0.82759   0.02284   0.00000  Uiso   1.00
Cu513  Cu    0.04689   0.83334   0.25000   0.00000  Uiso   1.00
Cu514  Cu    0.28645   0.83333   0.25000   0.00000  Uiso   1.00
H515   H     0.30579   0.85340   0.10730   0.00000  Uiso   1.00
H516   H     0.02734   0.81281   0.39274   0.00000  Uiso   1.00
H517   H     0.17567   0.79386   0.07731   0.00000  Uiso   1.00
H518   H     0.15733   0.87244   0.42250   0.00000  Uiso   1.00
H519   H     0.29274   0.70709   0.20264   0.00000  Uiso   1.00
H520   H     0.04058   0.95957   0.29739   0.00000  Uiso   1.00
N521   N     0.11736   0.83334   0.24999   0.00000  Uiso   1.00
N522   N     0.21597   0.83332   0.25001   0.00000  Uiso   1.00
O523   O     0.03958   0.77322   0.25000   0.00000  Uiso   1.00
O524   O     0.29375   0.89345   0.25000   0.00000  Uiso   1.00
O525   O     0.29372   0.77321   0.25001   0.00000  Uiso   1.00
O526   O     0.03961   0.89346   0.25000   0.00000  Uiso   1.00
O527   O     0.01852   0.83334   0.31492   0.00000  Uiso   1.00
O528   O     0.31481   0.83332   0.18509   0.00000  Uiso   1.00
O529   O     0.27267   0.83333   0.31492   0.00000  Uiso   1.00
O530   O     0.06067   0.83333   0.18508   0.00000  Uiso   1.00
C531   C     0.26627   0.77731   0.04788   0.00000  Uiso   1.00
O532   O     0.25987   0.78301   0.08800   0.00000  Uiso   1.00
O533   O     0.29854   0.74713   0.02655   0.00000  Uiso   1.00
H534   H     0.31537   0.73318   0.04748   0.00000  Uiso   1.00
C535   C     0.06702   0.88879   0.45145   0.00000  Uiso   1.00
O536   O     0.03747   0.91430   0.46993   0.00000  Uiso   1.00
O537   O     0.07629   0.88311   0.40524   0.00000  Uiso   1.00
H538   H     0.05528   0.90089   0.39126   0.00000  Uiso   1.00
H539   H     0.11414   0.82142   0.11268   0.00000  Uiso   1.00
H540   H     0.21929   0.84559   0.38722   0.00000  Uiso   1.00
H541   H     0.33205   0.80086   0.47268   0.00000  Uiso   1.00
H542   H     0.00084   0.86532   0.02742   0.00000  Uiso   1.00
C543   C     0.29110   0.96029   0.18583   0.00000  Uiso   1.00
O544   O     0.31007   0.92999   0.16554   0.00000  Uiso   1.00
O545   O     0.25088   0.97760   0.17575   0.00000  Uiso   1.00
H546   H     0.24030   0.96174   0.15193   0.00000  Uiso   1.00
C547   C     0.04223   0.70637   0.31419   0.00000  Uiso   1.00
O548   O     0.02329   0.73669   0.33446   0.00000  Uiso   1.00
O549   O     0.08244   0.68904   0.32428   0.00000  Uiso   1.00
H550   H     0.09303   0.70491   0.34811   0.00000  Uiso   1.00
C551   C     0.19752   0.77059   0.29997   0.00000  Uiso   1.00
O552   O     0.20122   0.77710   0.33763   0.00000  Uiso   1.00
O553   O     0.20289   0.73065   0.28279   0.00000  Uiso   1.00
H554   H     0.21174   0.71001   0.30399   0.00000  Uiso   1.00
C555   C     0.13580   0.89611   0.20009   0.00000  Uiso   1.00
O556   O     0.13203   0.88964   0.16245   0.00000  Uiso   1.00
O557   O     0.13049   0.93605   0.21730   0.00000  Uiso   1.00
H558   H     0.12161   0.95672   0.19613   0.00000  Uiso   1.00
H559   H     0.10899   0.78101   0.29271   0.00000  Uiso   1.00
H560   H     0.22434   0.88567   0.20731   0.00000  Uiso   1.00
C561   C     0.66594   0.75416   0.25159   0.00000  Uiso   1.00
C562   C     0.33406   0.91251   0.24842   0.00000  Uiso   1.00
C563   C     0.52210   0.80717   0.04415   0.00000  Uiso   1.00
C564   C     0.47760   0.85921   0.45569   0.00000  Uiso   1.00
C565   C     0.57086   0.80078   0.02273   0.00000  Uiso   1.00
C566   C     0.42885   0.86558   0.47707   0.00000  Uiso   1.00
C567   C     0.64294   0.68917   0.22390   0.00000  Uiso   1.00
C568   C     0.35705   0.97749   0.27613   0.00000  Uiso   1.00
C569   C     0.64489   0.97975   0.22001   0.00000  Uiso   1.00
C570   C     0.35511   0.68691   0.28001   0.00000  Uiso   1.00
C571   C     0.33499   0.95722   0.24709   0.00000  Uiso   1.00
C572   C     0.66500   0.70944   0.25293   0.00000  Uiso   1.00
C573   C     0.51656   0.80395   0.27392   0.00000  Uiso   1.00
C574   C     0.48344   0.86273   0.22609   0.00000  Uiso   1.00
C575   C     0.46733   0.80418   0.27367   0.00000  Uiso   1.00
C576   C     0.53267   0.86249   0.22634   0.00000  Uiso   1.00
C577   C     0.63939   0.83290   0.33601   0.00000  Uiso   1.00
C578   C     0.36061   0.83377   0.16399   0.00000  Uiso   1.00
C579   C     0.62422   0.82995   0.38512   0.00000  Uiso   1.00
C580   C     0.37573   0.83667   0.11487   0.00000  Uiso   1.00
C581   C     0.63924   0.81009   0.45530   0.00000  Uiso   1.00
C582   C     0.36047   0.85622   0.04469   0.00000  Uiso   1.00
C583   C     0.65623   0.81786   0.40942   0.00000  Uiso   1.00
C584   C     0.34360   0.84850   0.09059   0.00000  Uiso   1.00
C585   C     0.57596   0.83697   0.40751   0.00000  Uiso   1.00
C586   C     0.42399   0.82978   0.09242   0.00000  Uiso   1.00
C587   C     0.55793   0.83057   0.45406   0.00000  Uiso   1.00
C588   C     0.44187   0.83598   0.04583   0.00000  Uiso   1.00
C589   C     0.58964   0.81383   0.47771   0.00000  Uiso   1.00
C590   C     0.41007   0.85258   0.02217   0.00000  Uiso   1.00
C591   C     0.50885   0.83891   0.47702   0.00000  Uiso   1.00
C592   C     0.49091   0.82759   0.02284   0.00000  Uiso   1.00
Cu593  Cu    0.38022   0.83334   0.25000   0.00000  Uiso   1.00
Cu594  Cu    0.61978   0.83333   0.25000   0.00000  Uiso   1.00
H595   H     0.63913   0.85340   0.10730   0.00000  Uiso   1.00
H596   H     0.36067   0.81281   0.39274   0.00000  Uiso   1.00
H597   H     0.50901   0.79386   0.07731   0.00000  Uiso   1.00
H598   H     0.49067   0.87244   0.42250   0.00000  Uiso   1.00
H599   H     0.62608   0.70709   0.20264   0.00000  Uiso   1.00
H600   H     0.37391   0.95957   0.29739   0.00000  Uiso   1.00
N601   N     0.45069   0.83334   0.24999   0.00000  Uiso   1.00
N602   N     0.54931   0.83332   0.25001   0.00000  Uiso   1.00
O603   O     0.37291   0.77322   0.25000   0.00000  Uiso   1.00
O604   O     0.62709   0.89345   0.25000   0.00000  Uiso   1.00
O605   O     0.62706   0.77321   0.25001   0.00000  Uiso   1.00
O606   O     0.37294   0.89346   0.25000   0.00000  Uiso   1.00
O607   O     0.35186   0.83334   0.31492   0.00000  Uiso   1.00
O608   O     0.64814   0.83332   0.18509   0.00000  Uiso   1.00
O609   O     0.60600   0.83333   0.31492   0.00000  Uiso   1.00
O610   O     0.39400   0.83333   0.18508   0.00000  Uiso   1.00
C611   C     0.59960   0.77731   0.04788   0.00000  Uiso   1.00
O612   O     0.59320   0.78301   0.08800   0.00000  Uiso   1.00
O613   O     0.63187   0.74713   0.02655   0.00000  Uiso   1.00
H614   H     0.64870   0.73318   0.04748   0.00000  Uiso   1.00
C615   C     0.40036   0.88879   0.45145   0.00000  Uiso   1.00
O616   O     0.37080   0.91430   0.46993   0.00000  Uiso   1.00
O617   O     0.40962   0.88311   0.40524   0.00000  Uiso   1.00
H618   H     0.38862   0.90089   0.39126   0.00000  Uiso   1.00
H619   H     0.44748   0.82142   0.11268   0.00000  Uiso   1.00
H620   H     0.55262   0.84559   0.38722   0.00000  Uiso   1.00
H621   H     0.66539   0.80086   0.47268   0.00000  Uiso   1.00
H622   H     0.33417   0.86532   0.02742   0.00000  Uiso   1.00
C623   C     0.62443   0.96029   0.18583   0.00000  Uiso   1.00
O624   O     0.64340   0.92999   0.16554   0.00000  Uiso   1.00
O625   O     0.58421   0.97760   0.17575   0.00000  Uiso   1.00
H626   H     0.57363   0.96174   0.15193   0.00000  Uiso   1.00
C627   C     0.37557   0.70637   0.31419   0.00000  Uiso   1.00
O628   O     0.35662   0.73669   0.33446   0.00000  Uiso   1.00
O629   O     0.41577   0.68904   0.32428   0.00000  Uiso   1.00
H630   H     0.42636   0.70491   0.34811   0.00000  Uiso   1.00
C631   C     0.53086   0.77059   0.29997   0.00000  Uiso   1.00
O632   O     0.53455   0.77710   0.33763   0.00000  Uiso   1.00
O633   O     0.53622   0.73065   0.28279   0.00000  Uiso   1.00
H634   H     0.54508   0.71001   0.30399   0.00000  Uiso   1.00
C635   C     0.46913   0.89611   0.20009   0.00000  Uiso   1.00
O636   O     0.46537   0.88964   0.16245   0.00000  Uiso   1.00
O637   O     0.46382   0.93605   0.21730   0.00000  Uiso   1.00
H638   H     0.45494   0.95672   0.19613   0.00000  Uiso   1.00
H639   H     0.44232   0.78101   0.29271   0.00000  Uiso   1.00
H640   H     0.55767   0.88567   0.20731   0.00000  Uiso   1.00
C641   C     0.99927   0.75416   0.25159   0.00000  Uiso   1.00
C642   C     0.66739   0.91251   0.24842   0.00000  Uiso   1.00
C643   C     0.85544   0.80717   0.04415   0.00000  Uiso   1.00
C644   C     0.81093   0.85921   0.45569   0.00000  Uiso   1.00
C645   C     0.90419   0.80078   0.02273   0.00000  Uiso   1.00
C646   C     0.76219   0.86558   0.47707   0.00000  Uiso   1.00
C647   C     0.97627   0.68917   0.22390   0.00000  Uiso   1.00
C648   C     0.69039   0.97749   0.27613   0.00000  Uiso   1.00
C649   C     0.97822   0.97975   0.22001   0.00000  Uiso   1.00
C650   C     0.68844   0.68691   0.28001   0.00000  Uiso   1.00
C651   C     0.66832   0.95722   0.24709   0.00000  Uiso   1.00
C652   C     0.99834   0.70944   0.25293   0.00000  Uiso   1.00
C653   C     0.84989   0.80395   0.27392   0.00000  Uiso   1.00
C654   C     0.81677   0.86273   0.22609   0.00000  Uiso   1.00
C655   C     0.80066   0.80418   0.27367   0.00000  Uiso   1.00
C656   C     0.86600   0.86249   0.22634   0.00000  Uiso   1.00
C657   C     0.97272   0.83290   0.33601   0.00000  Uiso   1.00
C658   C     0.69394   0.83377   0.16399   0.00000  Uiso   1.00
C659   C     0.95755   0.82995   0.38512   0.00000  Uiso   1.00
C660   C     0.70906   0.83667   0.11487   0.00000  Uiso   1.00
C661   C     0.97257   0.81009   0.45530   0.00000  Uiso   1.00
C662   C     0.69380   0.85622   0.04469   0.00000  Uiso   1.00
C663   C     0.98956   0.81786   0.40942   0.00000  Uiso   1.00
C664   C     0.67693   0.84850   0.09059   0.00000  Uiso   1.00
C665   C     0.90930   0.83697   0.40751   0.00000  Uiso   1.00
C666   C     0.75732   0.82978   0.09242   0.00000  Uiso   1.00
C667   C     0.89126   0.83057   0.45406   0.00000  Uiso   1.00
C668   C     0.77520   0.83598   0.04583   0.00000  Uiso   1.00
C669   C     0.92298   0.81383   0.47771   0.00000  Uiso   1.00
C670   C     0.74340   0.85258   0.02217   0.00000  Uiso   1.00
C671   C     0.84218   0.83891   0.47702   0.00000  Uiso   1.00
C672   C     0.82424   0.82759   0.02284   0.00000  Uiso   1.00
Cu673  Cu    0.71355   0.83334   0.25000   0.00000  Uiso   1.00
Cu674  Cu    0.95311   0.83333   0.25000   0.00000  Uiso   1.00
H675   H     0.97246   0.85340   0.10730   0.00000  Uiso   1.00
H676   H     0.69400   0.81281   0.39274   0.00000  Uiso   1.00
H677   H     0.84234   0.79386   0.07731   0.00000  Uiso   1.00
H678   H     0.82400   0.87244   0.42250   0.00000  Uiso   1.00
H679   H     0.95941   0.70709   0.20264   0.00000  Uiso   1.00
H680   H     0.70724   0.95957   0.29739   0.00000  Uiso   1.00
N681   N     0.78403   0.83334   0.24999   0.00000  Uiso   1.00
N682   N     0.88264   0.83332   0.25001   0.00000  Uiso   1.00
O683   O     0.70625   0.77322   0.25000   0.00000  Uiso   1.00
O684   O     0.96042   0.89345   0.25000   0.00000  Uiso   1.00
O685   O     0.96039   0.77321   0.25001   0.00000  Uiso   1.00
O686   O     0.70628   0.89346   0.25000   0.00000  Uiso   1.00
O687   O     0.68519   0.83334   0.31492   0.00000  Uiso   1.00
O688   O     0.98148   0.83332   0.18509   0.00000  Uiso   1.00
O689   O     0.93933   0.83333   0.31492   0.00000  Uiso   1.00
O690   O     0.72733   0.83333   0.18508   0.00000  Uiso   1.00
C691   C     0.93293   0.77731   0.04788   0.00000  Uiso   1.00
O692   O     0.92653   0.78301   0.08800   0.00000  Uiso   1.00
O693   O     0.96521   0.74713   0.02655   0.00000  Uiso   1.00
H694   H     0.98204   0.73318   0.04748   0.00000  Uiso   1.00
C695   C     0.73369   0.88879   0.45145   0.00000  Uiso   1.00
O696   O     0.70414   0.91430   0.46993   0.00000  Uiso   1.00
O697   O     0.74296   0.88311   0.40524   0.00000  Uiso   1.00
H698   H     0.72195   0.90089   0.39126   0.00000  Uiso   1.00
H699   H     0.78081   0.82142   0.11268   0.00000  Uiso   1.00
H700   H     0.88595   0.84559   0.38722   0.00000  Uiso   1.00
H701   H     0.99872   0.80086   0.47268   0.00000  Uiso   1.00
H702   H     0.66750   0.86532   0.02742   0.00000  Uiso   1.00
C703   C     0.95777   0.96029   0.18583   0.00000  Uiso   1.00
O704   O     0.97673   0.92999   0.16554   0.00000  Uiso   1.00
O705   O     0.91754   0.97760   0.17575   0.00000  Uiso   1.00
H706   H     0.90696   0.96174   0.15193   0.00000  Uiso   1.00
C707   C     0.70890   0.70637   0.31419   0.00000  Uiso   1.00
O708   O     0.68996   0.73669   0.33446   0.00000  Uiso   1.00
O709   O     0.74911   0.68904   0.32428   0.00000  Uiso   1.00
H710   H     0.75969   0.70491   0.34811   0.00000  Uiso   1.00
C711   C     0.86419   0.77059   0.29997   0.00000  Uiso   1.00
O712   O     0.86788   0.77710   0.33763   0.00000  Uiso   1.00
O713   O     0.86955   0.73065   0.28279   0.00000  Uiso   1.00
H714   H     0.87841   0.71001   0.30399   0.00000  Uiso   1.00
C715   C     0.80246   0.89611   0.20009   0.00000  Uiso   1.00
O716   O     0.79870   0.88964   0.16245   0.00000  Uiso   1.00
O717   O     0.79715   0.93605   0.21730   0.00000  Uiso   1.00
H718   H     0.78828   0.95672   0.19613   0.00000  Uiso   1.00
H719   H     0.77565   0.78101   0.29271   0.00000  Uiso   1.00
H720   H     0.89101   0.88567   0.20731   0.00000  Uiso   1.00
C721   C     0.33260   0.08749   0.75159   0.00000  Uiso   1.00
C722   C     0.00073   0.24584   0.74842   0.00000  Uiso   1.00
C723   C     0.18877   0.14051   0.54415   0.00000  Uiso   1.00
C724   C     0.14426   0.19255   0.95569   0.00000  Uiso   1.00
C725   C     0.23752   0.13411   0.52273   0.00000  Uiso   1.00
C726   C     0.09552   0.19891   0.97707   0.00000  Uiso   1.00
C727   C     0.30961   0.02250   0.72390   0.00000  Uiso   1.00
C728   C     0.02372   0.31083   0.77613   0.00000  Uiso   1.00
C729   C     0.31156   0.31308   0.72001   0.00000  Uiso   1.00
C730   C     0.02177   0.02025   0.78001   0.00000  Uiso   1.00
C731   C     0.00166   0.29056   0.74709   0.00000  Uiso   1.00
C732   C     0.33167   0.04277   0.75293   0.00000  Uiso   1.00
C733   C     0.18322   0.13729   0.77392   0.00000  Uiso   1.00
C734   C     0.15010   0.19606   0.72609   0.00000  Uiso   1.00
C735   C     0.13400   0.13752   0.77367   0.00000  Uiso   1.00
C736   C     0.19933   0.19582   0.72634   0.00000  Uiso   1.00
C737   C     0.30606   0.16623   0.83601   0.00000  Uiso   1.00
C738   C     0.02727   0.16710   0.66399   0.00000  Uiso   1.00
C739   C     0.29088   0.16328   0.88512   0.00000  Uiso   1.00
C740   C     0.04239   0.17000   0.61487   0.00000  Uiso   1.00
C741   C     0.30591   0.14343   0.95530   0.00000  Uiso   1.00
C742   C     0.02713   0.18955   0.54469   0.00000  Uiso   1.00
C743   C     0.32289   0.15119   0.90942   0.00000  Uiso   1.00
C744   C     0.01026   0.18183   0.59059   0.00000  Uiso   1.00
C745   C     0.24263   0.17030   0.90751   0.00000  Uiso   1.00
C746   C     0.09065   0.16311   0.59242   0.00000  Uiso   1.00
C747   C     0.22459   0.16390   0.95406   0.00000  Uiso   1.00
C748   C     0.10854   0.16932   0.54583   0.00000  Uiso   1.00
C749   C     0.25631   0.14716   0.97771   0.00000  Uiso   1.00
C750   C     0.07674   0.18591   0.52217   0.00000  Uiso   1.00
C751   C     0.17552   0.17225   0.97702   0.00000  Uiso   1.00
C752   C     0.15758   0.16092   0.52284   0.00000  Uiso   1.00
Cu753  Cu    0.04689   0.16667   0.75000   0.00000  Uiso   1.00
Cu754  Cu    0.28645   0.16666   0.75000   0.00000  Uiso   1.00
H755   H     0.30579   0.18674   0.60730   0.00000  Uiso   1.00
H756   H     0.02734   0.14614   0.89274   0.00000  Uiso   1.00
H757   H     0.17567   0.12719   0.57731   0.00000  Uiso   1.00
H758   H     0.15733   0.20578   0.92250   0.00000  Uiso   1.00
H759   H     0.29274   0.04043   0.70264   0.00000  Uiso   1.00
H760   H     0.04058   0.29290   0.79739   0.00000  Uiso   1.00
N761   N     0.11736   0.16668   0.74999   0.00000  Uiso   1.00
N762   N     0.21597   0.16666   0.75001   0.00000  Uiso   1.00
O763   O     0.03958   0.10655   0.75000   0.00000  Uiso   1.00
O764   O     0.29375   0.22678   0.75000   0.00000  Uiso   1.00
O765   O     0.29372   0.10654   0.75001   0.00000  Uiso   1.00
O766   O     0.03961   0.22679   0.75000   0.00000  Uiso   1.00
O767   O     0.01852   0.16668   0.81492   0.00000  Uiso   1.00
O768   O     0.31481   0.16666   0.68509   0.00000  Uiso   1.00
O769   O     0.27267   0.16667   0.81492   0.00000  Uiso   1.00
O770   O     0.06067   0.16667   0.68508   0.00000  Uiso   1.00
C771   C     0.26627   0.11064   0.54788   0.00000  Uiso   1.00
O772   O     0.25987   0.11634   0.58800   0.00000  Uiso   1.00
O773   O     0.29854   0.08046   0.52655   0.00000  Uiso   1.00
H774   H     0.31537   0.06651   0.54748   0.00000  Uiso   1.00
C775   C     0.06702   0.22212   0.95145   0.00000  Uiso   1.00
O776   O     0.03747   0.24763   0.96993   0.00000  Uiso   1.00
O777   O     0.07629   0.21645   0.90524   0.00000  Uiso   1.00
H778   H     0.05528   0.23422   0.89126   0.00000  Uiso   1.00
H779   H     0.11414   0.15476   0.61268   0.00000  Uiso   1.00
H780   H     0.21929   0.17893   0.88722   0.00000  Uiso   1.00
H781   H     0.33205   0.13419   0.97268   0.00000  Uiso   1.00
H782   H     0.00084   0.19865   0.52742   0.00000  Uiso   1.00
C783   C     0.29110   0.29362   0.68583   0.00000  Uiso   1.00
O784   O     0.31007   0.26332   0.66554   0.00000  Uiso   1.00
O785   O     0.25088   0.31094   0.67575   0.00000  Uiso   1.00
H786   H     0.24030   0.29507   0.65193   0.00000  Uiso   1.00
C787   C     0.04223   0.03971   0.81419   0.00000  Uiso   1.00
O788   O     0.02329   0.07003   0.83446   0.00000  Uiso   1.00
O789   O     0.08244   0.02238   0.82428   0.00000  Uiso   1.00
H790   H     0.09303   0.03824   0.84811   0.00000  Uiso   1.00
C791   C     0.19752   0.10393   0.79997   0.00000  Uiso   1.00
O792   O     0.20122   0.11044   0.83763   0.00000  Uiso   1.00
O793   O     0.20289   0.06399   0.78279   0.00000  Uiso   1.00
H794   H     0.21174   0.04334   0.80399   0.00000  Uiso   1.00
C795   C     0.13580   0.22945   0.70009   0.00000  Uiso   1.00
O796   O     0.13203   0.22297   0.66245   0.00000  Uiso   1.00
O797   O     0.13049   0.26938   0.71730   0.00000  Uiso   1.00
H798   H     0.12161   0.29005   0.69613   0.00000  Uiso   1.00
H799   H     0.10899   0.11435   0.79271   0.00000  Uiso   1.00
H800   H     0.22434   0.21900   0.70731   0.00000  Uiso   1.00
C801   C     0.66594   0.08749   0.75159   0.00000  Uiso   1.00
C802   C     0.33406   0.24584   0.74842   0.00000  Uiso   1.00
C803   C     0.52210   0.14051   0.54415   0.00000  Uiso   1.00
C804   C     0.47760   0.19255   0.95569   0.00000  Uiso   1.00
C805   C     0.57086   0.13411   0.52273   0.00000  Uiso   1.00
C806   C     0.42885   0.19891   0.97707   0.00000  Uiso   1.00
C807   C     0.64294   0.02250   0.72390   0.00000  Uiso   1.00
C808   C     0.35705   0.31083   0.77613   0.00000  Uiso   1.00
C809   C     0.64489   0.31308   0.72001   0.00000  Uiso   1.00
C810   C     0.35511   0.02025   0.78001   0.00000  Uiso   1.00
C811   C     0.33499   0.29056   0.74709   0.00000  Uiso   1.00
C812   C     0.66500   0.04277   0.75293   0.00000  Uiso   1.00
C813   C     0.51656   0.13729   0.77392   0.00000  Uiso   1.00
C814   C     0.48344   0.19606   0.72609   0.00000  Uiso   1.00
C815   C     0.46733   0.13752   0.77367   0.00000  Uiso   1.00
C816   C     0.53267   0.19582   0.72634   0.00000  Uiso   1.00
C817   C     0.63939   0.16623   0.83601   0.00000  Uiso   1.00
C818   C     0.36061   0.16710   0.66399   0.00000  Uiso   1.00
C819   C     0.62422   0.16328   0.88512   0.00000  Uiso   1.00
C820   C     0.37573   0.17000   0.61487   0.00000  Uiso   1.00
C821   C     0.63924   0.14343   0.95530   0.00000  Uiso   1.00
C822   C     0.36047   0.18955   0.54469   0.00000  Uiso   1.00
C823   C     0.65623   0.15119   0.90942   0.00000  Uiso   1.00
C824   C     0.34360   0.18183   0.59059   0.00000  Uiso   1.00
C825   C     0.57596   0.17030   0.90751   0.00000  Uiso   1.00
C826   C     0.42399   0.16311   0.59242   0.00000  Uiso   1.00
C827   C     0.55793   0.16390   0.95406   0.00000  Uiso   1.00
C828   C     0.44187   0.16932   0.54583   0.00000  Uiso   1.00
C829   C     0.58964   0.14716   0.97771   0.00000  Uiso   1.00
C830   C     0.41007   0.18591   0.52217   0.00000  Uiso   1.00
C831   C     0.50885   0.17225   0.97702   0.00000  Uiso   1.00
C832   C     0.49091   0.16092   0.52284   0.00000  Uiso   1.00
Cu833  Cu    0.38022   0.16667   0.75000   0.00000  Uiso   1.00
Cu834  Cu    0.61978   0.16666   0.75000   0.00000  Uiso   1.00
H835   H     0.63913   0.18674   0.60730   0.00000  Uiso   1.00
H836   H     0.36067   0.14614   0.89274   0.00000  Uiso   1.00
H837   H     0.50901   0.12719   0.57731   0.00000  Uiso   1.00
H838   H     0.49067   0.20578   0.92250   0.00000  Uiso   1.00
H839   H     0.62608   0.04043   0.70264   0.00000  Uiso   1.00
H840   H     0.37391   0.29290   0.79739   0.00000  Uiso   1.00
N841   N     0.45069   0.16668   0.74999   0.00000  Uiso   1.00
N842   N     0.54931   0.16666   0.75001   0.00000  Uiso   1.00
O843   O     0.37291   0.10655   0.75000   0.00000  Uiso   1.00
O844   O     0.62709   0.22678   0.75000   0.00000  Uiso   1.00
O845   O     0.62706   0.10654   0.75001   0.00000  Uiso   1.00
O846   O     0.37294   0.22679   0.75000   0.00000  Uiso   1.00
O847   O     0.35186   0.16668   0.81492   0.00000  Uiso   1.00
O848   O     0.64814   0.16666   0.68509   0.00000  Uiso   1.00
O849   O     0.60600   0.16667   0.81492   0.00000  Uiso   1.00
O850   O     0.39400   0.16667   0.68508   0.00000  Uiso   1.00
C851   C     0.59960   0.11064   0.54788   0.00000  Uiso   1.00
O852   O     0.59320   0.11634   0.58800   0.00000  Uiso   1.00
O853   O     0.63187   0.08046   0.52655   0.00000  Uiso   1.00
H854   H     0.64870   0.06651   0.54748   0.00000  Uiso   1.00
C855   C     0.40036   0.22212   0.95145   0.00000  Uiso   1.00
O856   O     0.37080   0.24763   0.96993   0.00000  Uiso   1.00
O857   O     0.40962   0.21645   0.90524   0.00000  Uiso   1.00
H858   H     0.38862   0.23422   0.89126   0.00000  Uiso   1.00
H859   H     0.44748   0.15476   0.61268   0.00000  Uiso   1.00
H860   H     0.55262   0.17893   0.88722   0.00000  Uiso   1.00
H861   H     0.66539   0.13419   0.97268   0.00000  Uiso   1.00
H862   H     0.33417   0.19865   0.52742   0.00000  Uiso   1.00
C863   C     0.62443   0.29362   0.68583   0.00000  Uiso   1.00
O864   O     0.64340   0.26332   0.66554   0.00000  Uiso   1.00
O865   O     0.58421   0.31094   0.67575   0.00000  Uiso   1.00
H866   H     0.57363   0.29507   0.65193   0.00000  Uiso   1.00
C867   C     0.37557   0.03971   0.81419   0.00000  Uiso   1.00
O868   O     0.35662   0.07003   0.83446   0.00000  Uiso   1.00
O869   O     0.41577   0.02238   0.82428   0.00000  Uiso   1.00
H870   H     0.42636   0.03824   0.84811   0.00000  Uiso   1.00
C871   C     0.53086   0.10393   0.79997   0.00000  Uiso   1.00
O872   O     0.53455   0.11044   0.83763   0.00000  Uiso   1.00
O873   O     0.53622   0.06399   0.78279   0.00000  Uiso   1.00
H874   H     0.54508   0.04334   0.80399   0.00000  Uiso   1.00
C875   C     0.46913   0.22945   0.70009   0.00000  Uiso   1.00
O876   O     0.46537   0.22297   0.66245   0.00000  Uiso   1.00
O877   O     0.46382   0.26938   0.71730   0.00000  Uiso   1.00
H878   H     0.45494   0.29005   0.69613   0.00000  Uiso   1.00
H879   H     0.44232   0.11435   0.79271   0.00000  Uiso   1.00
H880   H     0.55767   0.21900   0.70731   0.00000  Uiso   1.00
C881   C     0.99927   0.08749   0.75159   0.00000  Uiso   1.00
C882   C     0.66739   0.24584   0.74842   0.00000  Uiso   1.00
C883   C     0.85544   0.14051   0.54415   0.00000  Uiso   1.00
C884   C     0.81093   0.19255   0.95569   0.00000  Uiso   1.00
C885   C     0.90419   0.13411   0.52273   0.00000  Uiso   1.00
C886   C     0.76219   0.19891   0.97707   0.00000  Uiso   1.00
C887   C     0.97627   0.02250   0.72390   0.00000  Uiso   1.00
C888   C     0.69039   0.31083   0.77613   0.00000  Uiso   1.00
C889   C     0.97822   0.31308   0.72001   0.00000  Uiso   1.00
C890   C     0.68844   0.02025   0.78001   0.00000  Uiso   1.00
C891   C     0.66832   0.29056   0.74709   0.00000  Uiso   1.00
C892   C     0.99834   0.04277   0.75293   0.00000  Uiso   1.00
C893   C     0.84989   0.13729   0.77392   0.00000  Uiso   1.00
C894   C     0.81677   0.19606   0.72609   0.00000  Uiso   1.00
C895   C     0.80066   0.13752   0.77367   0.00000  Uiso   1.00
C896   C     0.86600   0.19582   0.72634   0.00000  Uiso   1.00
C897   C     0.97272   0.16623   0.83601   0.00000  Uiso   1.00
C898   C     0.69394   0.16710   0.66399   0.00000  Uiso   1.00
C899   C     0.95755   0.16328   0.88512   0.00000  Uiso   1.00
C900   C     0.70906   0.17000   0.61487   0.00000  Uiso   1.00
C901   C     0.97257   0.14343   0.95530   0.00000  Uiso   1.00
C902   C     0.69380   0.18955   0.54469   0.00000  Uiso   1.00
C903   C     0.98956   0.15119   0.90942   0.00000  Uiso   1.00
C904   C     0.67693   0.18183   0.59059   0.00000  Uiso   1.00
C905   C     0.90930   0.17030   0.90751   0.00000  Uiso   1.00
C906   C     0.75732   0.16311   0.59242   0.00000  Uiso   1.00
C907   C     0.89126   0.16390   0.95406   0.00000  Uiso   1.00
C908   C     0.77520   0.16932   0.54583   0.00000  Uiso   1.00
C909   C     0.92298   0.14716   0.97771   0.00000  Uiso   1.00
C910   C     0.74340   0.18591   0.52217   0.00000  Uiso   1.00
C911   C     0.84218   0.17225   0.97702   0.00000  Uiso   1.00
C912   C     0.82424   0.16092   0.52284   0.00000  Uiso   1.00
Cu913  Cu    0.71355   0.16667   0.75000   0.00000  Uiso   1.00
Cu914  Cu    0.95311   0.16666   0.75000   0.00000  Uiso   1.00
H915   H     0.97246   0.18674   0.60730   0.00000  Uiso   1.00
H916   H     0.69400   0.14614   0.89274   0.00000  Uiso   1.00
H917   H     0.84234   0.12719   0.57731   0.00000  Uiso   1.00
H918   H     0.82400   0.20578   0.92250   0.00000  Uiso   1.00
H919   H     0.95941   0.04043   0.70264   0.00000  Uiso   1.00
H920   H     0.70724   0.29290   0.79739   0.00000  Uiso   1.00
N921   N     0.78403   0.16668   0.74999   0.00000  Uiso   1.00
N922   N     0.88264   0.16666   0.75001   0.00000  Uiso   1.00
O923   O     0.70625   0.10655   0.75000   0.00000  Uiso   1.00
O924   O     0.96042   0.22678   0.75000   0.00000  Uiso   1.00
O925   O     0.96039   0.10654   0.75001   0.00000  Uiso   1.00
O926   O     0.70628   0.22679   0.75000   0.00000  Uiso   1.00
O927   O     0.68519   0.16668   0.81492   0.00000  Uiso   1.00
O928   O     0.98148   0.16666   0.68509   0.00000  Uiso   1.00
O929   O     0.93933   0.16667   0.81492   0.00000  Uiso   1.00
O930   O     0.72733   0.16667   0.68508   0.00000  Uiso   1.00
C931   C     0.93293   0.11064   0.54788   0.00000  Uiso   1.00
O932   O     0.92653   0.11634   0.58800   0.00000  Uiso   1.00
O933   O     0.96521   0.08046   0.52655   0.00000  Uiso   1.00
H934   H     0.98204   0.06651   0.54748   0.00000  Uiso   1.00
C935   C     0.73369   0.22212   0.95145   0.00000  Uiso   1.00
O936   O     0.70414   0.24763   0.96993   0.00000  Uiso   1.00
O937   O     0.74296   0.21645   0.90524   0.00000  Uiso   1.00
H938   H     0.72195   0.23422   0.89126   0.00000  Uiso   1.00
H939   H     0.78081   0.15476   0.61268   0.00000  Uiso   1.00
H940   H     0.88595   0.17893   0.88722   0.00000  Uiso   1.00
H941   H     0.99872   0.13419   0.97268   0.00000  Uiso   1.00
H942   H     0.66750   0.19865   0.52742   0.00000  Uiso   1.00
C943   C     0.95777   0.29362   0.68583   0.00000  Uiso   1.00
O944   O     0.97673   0.26332   0.66554   0.00000  Uiso   1.00
O945   O     0.91754   0.31094   0.67575   0.00000  Uiso   1.00
H946   H     0.90696   0.29507   0.65193   0.00000  Uiso   1.00
C947   C     0.70890   0.03971   0.81419   0.00000  Uiso   1.00
O948   O     0.68996   0.07003   0.83446   0.00000  Uiso   1.00
O949   O     0.74911   0.02238   0.82428   0.00000  Uiso   1.00
H950   H     0.75969   0.03824   0.84811   0.00000  Uiso   1.00
C951   C     0.86419   0.10393   0.79997   0.00000  Uiso   1.00
O952   O     0.86788   0.11044   0.83763   0.00000  Uiso   1.00
O953   O     0.86955   0.06399   0.78279   0.00000  Uiso   1.00
H954   H     0.87841   0.04334   0.80399   0.00000  Uiso   1.00
C955   C     0.80246   0.22945   0.70009   0.00000  Uiso   1.00
O956   O     0.79870   0.22297   0.66245   0.00000  Uiso   1.00
O957   O     0.79715   0.26938   0.71730   0.00000  Uiso   1.00
H958   H     0.78828   0.29005   0.69613   0.00000  Uiso   1.00
H959   H     0.77565   0.11435   0.79271   0.00000  Uiso   1.00
H960   H     0.89101   0.21900   0.70731   0.00000  Uiso   1.00
C961   C     0.33260   0.42082   0.75159   0.00000  Uiso   1.00
C962   C     0.00073   0.57918   0.74842   0.00000  Uiso   1.00
C963   C     0.18877   0.47384   0.54415   0.00000  Uiso   1.00
C964   C     0.14426   0.52588   0.95569   0.00000  Uiso   1.00
C965   C     0.23752   0.46745   0.52273   0.00000  Uiso   1.00
C966   C     0.09552   0.53225   0.97707   0.00000  Uiso   1.00
C967   C     0.30961   0.35584   0.72390   0.00000  Uiso   1.00
C968   C     0.02372   0.64416   0.77613   0.00000  Uiso   1.00
C969   C     0.31156   0.64642   0.72001   0.00000  Uiso   1.00
C970   C     0.02177   0.35358   0.78001   0.00000  Uiso   1.00
C971   C     0.00166   0.62389   0.74709   0.00000  Uiso   1.00
C972   C     0.33167   0.37611   0.75293   0.00000  Uiso   1.00
C973   C     0.18322   0.47062   0.77392   0.00000  Uiso   1.00
C974   C     0.15010   0.52939   0.72609   0.00000  Uiso   1.00
C975   C     0.13400   0.47085   0.77367   0.00000  Uiso   1.00
C976   C     0.19933   0.52916   0.72634   0.00000  Uiso   1.00
C977   C     0.30606   0.49956   0.83601   0.00000  Uiso   1.00
C978   C     0.02727   0.50044   0.66399   0.00000  Uiso   1.00
C979   C     0.29088   0.49662   0.88512   0.00000  Uiso   1.00
C980   C     0.04239   0.50333   0.61487   0.00000  Uiso   1.00
C981   C     0.30591   0.47676   0.95530   0.00000  Uiso   1.00
C982   C     0.02713   0.52289   0.54469   0.00000  Uiso   1.00
C983   C     0.32289   0.48453   0.90942   0.00000  Uiso   1.00
C984   C     0.01026   0.51517   0.59059   0.00000  Uiso   1.00
C985   C     0.24263   0.50364   0.90751   0.00000  Uiso   1.00
C986   C     0.09065   0.49645   0.59242   0.00000  Uiso   1.00
C987   C     0.22459   0.49724   0.95406   0.00000  Uiso   1.00
C988   C     0.10854   0.50265   0.54583   0.00000  Uiso   1.00
C989   C     0.25631   0.48049   0.97771   0.00000  Uiso   1.00
C990   C     0.07674   0.51925   0.52217   0.00000  Uiso   1.00
C991   C     0.17552   0.50558   0.97702   0.00000  Uiso   1.00
C992   C     0.15758   0.49425   0.52284   0.00000  Uiso   1.00
Cu993  Cu    0.04689   0.50001   0.75000   0.00000  Uiso   1.00
Cu994  Cu    0.28645   0.49999   0.75000   0.00000  Uiso   1.00
H995   H     0.30579   0.52007   0.60730   0.00000  Uiso   1.00
H996   H     0.02734   0.47947   0.89274   0.00000  Uiso   1.00
H997   H     0.17567   0.46052   0.57731   0.00000  Uiso   1.00
H998   H     0.15733   0.53911   0.92250   0.00000  Uiso   1.00
H999   H     0.29274   0.37376   0.70264   0.00000  Uiso   1.00
H1000  H     0.04058   0.62623   0.79739   0.00000  Uiso   1.00
N1001  N     0.11736   0.50001   0.74999   0.00000  Uiso   1.00
N1002  N     0.21597   0.49999   0.75001   0.00000  Uiso   1.00
O1003  O     0.03958   0.43989   0.75000   0.00000  Uiso   1.00
O1004  O     0.29375   0.56011   0.75000   0.00000  Uiso   1.00
O1005  O     0.29372   0.43988   0.75001   0.00000  Uiso   1.00
O1006  O     0.03961   0.56012   0.75000   0.00000  Uiso   1.00
O1007  O     0.01852   0.50001   0.81492   0.00000  Uiso   1.00
O1008  O     0.31481   0.49999   0.68509   0.00000  Uiso   1.00
O1009  O     0.27267   0.50000   0.81492   0.00000  Uiso   1.00
O1010  O     0.06067   0.50000   0.68508   0.00000  Uiso   1.00
C1011  C     0.26627   0.44398   0.54788   0.00000  Uiso   1.00
O1012  O     0.25987   0.44967   0.58800   0.00000  Uiso   1.00
O1013  O     0.29854   0.41379   0.52655   0.00000  Uiso   1.00
H1014  H     0.31537   0.39985   0.54748   0.00000  Uiso   1.00
C1015  C     0.06702   0.55546   0.95145   0.00000  Uiso   1.00
O1016  O     0.03747   0.58097   0.96993   0.00000  Uiso   1.00
O1017  O     0.07629   0.54978   0.90524   0.00000  Uiso   1.00
H1018  H     0.05528   0.56756   0.89126   0.00000  Uiso   1.00
H1019  H     0.11414   0.48809   0.61268   0.00000  Uiso   1.00
H1020  H     0.21929   0.51226   0.88722   0.00000  Uiso   1.00
H1021  H     0.33205   0.46753   0.97268   0.00000  Uiso   1.00
H1022  H     0.00084   0.53199   0.52742   0.00000  Uiso   1.00
C1023  C     0.29110   0.62696   0.68583   0.00000  Uiso   1.00
O1024  O     0.31007   0.59665   0.66554   0.00000  Uiso   1.00
O1025  O     0.25088   0.64427   0.67575   0.00000  Uiso   1.00
H1026  H     0.24030   0.62840   0.65193   0.00000  Uiso   1.00
C1027  C     0.04223   0.37304   0.81419   0.00000  Uiso   1.00
O1028  O     0.02329   0.40336   0.83446   0.00000  Uiso   1.00
O1029  O     0.08244   0.35571   0.82428   0.00000  Uiso   1.00
H1030  H     0.09303   0.37158   0.84811   0.00000  Uiso   1.00
C1031  C     0.19752   0.43726   0.79997   0.00000  Uiso   1.00
O1032  O     0.20122   0.44377   0.83763   0.00000  Uiso   1.00
O1033  O     0.20289   0.39732   0.78279   0.00000  Uiso   1.00
H1034  H     0.21174   0.37667   0.80399   0.00000  Uiso   1.00
C1035  C     0.13580   0.56278   0.70009   0.00000  Uiso   1.00
O1036  O     0.13203   0.55630   0.66245   0.00000  Uiso   1.00
O1037  O     0.13049   0.60271   0.71730   0.00000  Uiso   1.00
H1038  H     0.12161   0.62338   0.69613   0.00000  Uiso   1.00
H1039  H     0.10899   0.44768   0.79271   0.00000  Uiso   1.00
H1040  H     0.22434   0.55233   0.70731   0.00000  Uiso   1.00
C1041  C     0.66594   0.42082   0.75159   0.00000  Uiso   1.00
C1042  C     0.33406   0.57918   0.74842   0.00000  Uiso   1.00
C1043  C     0.52210   0.47384   0.54415   0.00000  Uiso   1.00
C1044  C     0.47760   0.52588   0.95569   0.00000  Uiso   1.00
C1045  C     0.57086   0.46745   0.52273   0.00000  Uiso   1.00
C1046  C     0.42885   0.53225   0.97707   0.00000  Uiso   1.00
C1047  C     0.64294   0.35584   0.72390   0.00000  Uiso   1.00
C1048  C     0.35705   0.64416   0.77613   0.00000  Uiso   1.00
C1049  C     0.64489   0.64642   0.72001   0.00000  Uiso   1.00
C1050  C     0.35511   0.35358   0.78001   0.00000  Uiso   1.00
C1051  C     0.33499   0.62389   0.74709   0.00000  Uiso   1.00
C1052  C     0.66500   0.37611   0.75293   0.00000  Uiso   1.00
C1053  C     0.51656   0.47062   0.77392   0.00000  Uiso   1.00
C1054  C     0.48344   0.52939   0.72609   0.00000  Uiso   1.00
C1055  C     0.46733   0.47085   0.77367   0.00000  Uiso   1.00
C1056  C     0.53267   0.52916   0.72634   0.00000  Uiso   1.00
C1057  C     0.63939   0.49956   0.83601   0.00000  Uiso   1.00
C1058  C     0.36061   0.50044   0.66399   0.00000  Uiso   1.00
C1059  C     0.62422   0.49662   0.88512   0.00000  Uiso   1.00
C1060  C     0.37573   0.50333   0.61487   0.00000  Uiso   1.00
C1061  C     0.63924   0.47676   0.95530   0.00000  Uiso   1.00
C1062  C     0.36047   0.52289   0.54469   0.00000  Uiso   1.00
C1063  C     0.65623   0.48453   0.90942   0.00000  Uiso   1.00
C1064  C     0.34360   0.51517   0.59059   0.00000  Uiso   1.00
C1065  C     0.57596   0.50364   0.90751   0.00000  Uiso   1.00
C1066  C     0.42399   0.49645   0.59242   0.00000  Uiso   1.00
C1067  C     0.55793   0.49724   0.95406   0.00000  Uiso   1.00
C1068  C     0.44187   0.50265   0.54583   0.00000  Uiso   1.00
C1069  C     0.58964   0.48049   0.97771   0.00000  Uiso   1.00
C1070  C     0.41007   0.51925   0.52217   0.00000  Uiso   1.00
C1071  C     0.50885   0.50558   0.97702   0.00000  Uiso   1.00
C1072  C     0.49091   0.49425   0.52284   0.00000  Uiso   1.00
Cu1073 Cu    0.38022   0.50001   0.75000   0.00000  Uiso   1.00
Cu1074 Cu    0.61978   0.49999   0.75000   0.00000  Uiso   1.00
H1075  H     0.63913   0.52007   0.60730   0.00000  Uiso   1.00
H1076  H     0.36067   0.47947   0.89274   0.00000  Uiso   1.00
H1077  H     0.50901   0.46052   0.57731   0.00000  Uiso   1.00
H1078  H     0.49067   0.53911   0.92250   0.00000  Uiso   1.00
H1079  H     0.62608   0.37376   0.70264   0.00000  Uiso   1.00
H1080  H     0.37391   0.62623   0.79739   0.00000  Uiso   1.00
N1081  N     0.45069   0.50001   0.74999   0.00000  Uiso   1.00
N1082  N     0.54931   0.49999   0.75001   0.00000  Uiso   1.00
O1083  O     0.37291   0.43989   0.75000   0.00000  Uiso   1.00
O1084  O     0.62709   0.56011   0.75000   0.00000  Uiso   1.00
O1085  O     0.62706   0.43988   0.75001   0.00000  Uiso   1.00
O1086  O     0.37294   0.56012   0.75000   0.00000  Uiso   1.00
O1087  O     0.35186   0.50001   0.81492   0.00000  Uiso   1.00
O1088  O     0.64814   0.49999   0.68509   0.00000  Uiso   1.00
O1089  O     0.60600   0.50000   0.81492   0.00000  Uiso   1.00
O1090  O     0.39400   0.50000   0.68508   0.00000  Uiso   1.00
C1091  C     0.59960   0.44398   0.54788   0.00000  Uiso   1.00
O1092  O     0.59320   0.44967   0.58800   0.00000  Uiso   1.00
O1093  O     0.63187   0.41379   0.52655   0.00000  Uiso   1.00
H1094  H     0.64870   0.39985   0.54748   0.00000  Uiso   1.00
C1095  C     0.40036   0.55546   0.95145   0.00000  Uiso   1.00
O1096  O     0.37080   0.58097   0.96993   0.00000  Uiso   1.00
O1097  O     0.40962   0.54978   0.90524   0.00000  Uiso   1.00
H1098  H     0.38862   0.56756   0.89126   0.00000  Uiso   1.00
H1099  H     0.44748   0.48809   0.61268   0.00000  Uiso   1.00
H1100  H     0.55262   0.51226   0.88722   0.00000  Uiso   1.00
H1101  H     0.66539   0.46753   0.97268   0.00000  Uiso   1.00
H1102  H     0.33417   0.53199   0.52742   0.00000  Uiso   1.00
C1103  C     0.62443   0.62696   0.68583   0.00000  Uiso   1.00
O1104  O     0.64340   0.59665   0.66554   0.00000  Uiso   1.00
O1105  O     0.58421   0.64427   0.67575   0.00000  Uiso   1.00
H1106  H     0.57363   0.62840   0.65193   0.00000  Uiso   1.00
C1107  C     0.37557   0.37304   0.81419   0.00000  Uiso   1.00
O1108  O     0.35662   0.40336   0.83446   0.00000  Uiso   1.00
O1109  O     0.41577   0.35571   0.82428   0.00000  Uiso   1.00
H1110  H     0.42636   0.37158   0.84811   0.00000  Uiso   1.00
C1111  C     0.53086   0.43726   0.79997   0.00000  Uiso   1.00
O1112  O     0.53455   0.44377   0.83763   0.00000  Uiso   1.00
O1113  O     0.53622   0.39732   0.78279   0.00000  Uiso   1.00
H1114  H     0.54508   0.37667   0.80399   0.00000  Uiso   1.00
C1115  C     0.46913   0.56278   0.70009   0.00000  Uiso   1.00
O1116  O     0.46537   0.55630   0.66245   0.00000  Uiso   1.00
O1117  O     0.46382   0.60271   0.71730   0.00000  Uiso   1.00
H1118  H     0.45494   0.62338   0.69613   0.00000  Uiso   1.00
H1119  H     0.44232   0.44768   0.79271   0.00000  Uiso   1.00
H1120  H     0.55767   0.55233   0.70731   0.00000  Uiso   1.00
C1121  C     0.99927   0.42082   0.75159   0.00000  Uiso   1.00
C1122  C     0.66739   0.57918   0.74842   0.00000  Uiso   1.00
C1123  C     0.85544   0.47384   0.54415   0.00000  Uiso   1.00
C1124  C     0.81093   0.52588   0.95569   0.00000  Uiso   1.00
C1125  C     0.90419   0.46745   0.52273   0.00000  Uiso   1.00
C1126  C     0.76219   0.53225   0.97707   0.00000  Uiso   1.00
C1127  C     0.97627   0.35584   0.72390   0.00000  Uiso   1.00
C1128  C     0.69039   0.64416   0.77613   0.00000  Uiso   1.00
C1129  C     0.97822   0.64642   0.72001   0.00000  Uiso   1.00
C1130  C     0.68844   0.35358   0.78001   0.00000  Uiso   1.00
C1131  C     0.66832   0.62389   0.74709   0.00000  Uiso   1.00
C1132  C     0.99834   0.37611   0.75293   0.00000  Uiso   1.00
C1133  C     0.84989   0.47062   0.77392   0.00000  Uiso   1.00
C1134  C     0.81677   0.52939   0.72609   0.00000  Uiso   1.00
C1135  C     0.80066   0.47085   0.77367   0.00000  Uiso   1.00
C1136  C     0.86600   0.52916   0.72634   0.00000  Uiso   1.00
C1137  C     0.97272   0.49956   0.83601   0.00000  Uiso   1.00
C1138  C     0.69394   0.50044   0.66399   0.00000  Uiso   1.00
C1139  C     0.95755   0.49662   0.88512   0.00000  Uiso   1.00
C1140  C     0.70906   0.50333   0.61487   0.00000  Uiso   1.00
C1141  C     0.97257   0.47676   0.95530   0.00000  Uiso   1.00
C1142  C     0.69380   0.52289   0.54469   0.00000  Uiso   1.00
C1143  C     0.98956   0.48453   0.90942   0.00000  Uiso   1.00
C1144  C     0.67693   0.51517   0.59059   0.00000  Uiso   1.00
C1145  C     0.90930   0.50364   0.90751   0.00000  Uiso   1.00
C1146  C     0.75732   0.49645   0.59242   0.00000  Uiso   1.00
C1147  C     0.89126   0.49724   0.95406   0.00000  Uiso   1.00
C1148  C     0.77520   0.50265   0.54583   0.00000  Uiso   1.00
C1149  C     0.92298   0.48049   0.97771   0.00000  Uiso   1.00
C1150  C     0.74340   0.51925   0.52217   0.00000  Uiso   1.00
C1151  C     0.84218   0.50558   0.97702   0.00000  Uiso   1.00
C1152  C     0.82424   0.49425   0.52284   0.00000  Uiso   1.00
Cu1153 Cu    0.71355   0.50001   0.75000   0.00000  Uiso   1.00
Cu1154 Cu    0.95311   0.49999   0.75000   0.00000  Uiso   1.00
H1155  H     0.97246   0.52007   0.60730   0.00000  Uiso   1.00
H1156  H     0.69400   0.47947   0.89274   0.00000  Uiso   1.00
H1157  H     0.84234   0.46052   0.57731   0.00000  Uiso   1.00
H1158  H     0.82400   0.53911   0.92250   0.00000  Uiso   1.00
H1159  H     0.95941   0.37376   0.70264   0.00000  Uiso   1.00
H1160  H     0.70724   0.62623   0.79739   0.00000  Uiso   1.00
N1161  N     0.78403   0.50001   0.74999   0.00000  Uiso   1.00
N1162  N     0.88264   0.49999   0.75001   0.00000  Uiso   1.00
O1163  O     0.70625   0.43989   0.75000   0.00000  Uiso   1.00
O1164  O     0.96042   0.56011   0.75000   0.00000  Uiso   1.00
O1165  O     0.96039   0.43988   0.75001   0.00000  Uiso   1.00
O1166  O     0.70628   0.56012   0.75000   0.00000  Uiso   1.00
O1167  O     0.68519   0.50001   0.81492   0.00000  Uiso   1.00
O1168  O     0.98148   0.49999   0.68509   0.00000  Uiso   1.00
O1169  O     0.93933   0.50000   0.81492   0.00000  Uiso   1.00
O1170  O     0.72733   0.50000   0.68508   0.00000  Uiso   1.00
C1171  C     0.93293   0.44398   0.54788   0.00000  Uiso   1.00
O1172  O     0.92653   0.44967   0.58800   0.00000  Uiso   1.00
O1173  O     0.96521   0.41379   0.52655   0.00000  Uiso   1.00
H1174  H     0.98204   0.39985   0.54748   0.00000  Uiso   1.00
C1175  C     0.73369   0.55546   0.95145   0.00000  Uiso   1.00
O1176  O     0.70414   0.58097   0.96993   0.00000  Uiso   1.00
O1177  O     0.74296   0.54978   0.90524   0.00000  Uiso   1.00
H1178  H     0.72195   0.56756   0.89126   0.00000  Uiso   1.00
H1179  H     0.78081   0.48809   0.61268   0.00000  Uiso   1.00
H1180  H     0.88595   0.51226   0.88722   0.00000  Uiso   1.00
H1181  H     0.99872   0.46753   0.97268   0.00000  Uiso   1.00
H1182  H     0.66750   0.53199   0.52742   0.00000  Uiso   1.00
C1183  C     0.95777   0.62696   0.68583   0.00000  Uiso   1.00
O1184  O     0.97673   0.59665   0.66554   0.00000  Uiso   1.00
O1185  O     0.91754   0.64427   0.67575   0.00000  Uiso   1.00
H1186  H     0.90696   0.62840   0.65193   0.00000  Uiso   1.00
C1187  C     0.70890   0.37304   0.81419   0.00000  Uiso   1.00
O1188  O     0.68996   0.40336   0.83446   0.00000  Uiso   1.00
O1189  O     0.74911   0.35571   0.82428   0.00000  Uiso   1.00
H1190  H     0.75969   0.37158   0.84811   0.00000  Uiso   1.00
C1191  C     0.86419   0.43726   0.79997   0.00000  Uiso   1.00
O1192  O     0.86788   0.44377   0.83763   0.00000  Uiso   1.00
O1193  O     0.86955   0.39732   0.78279   0.00000  Uiso   1.00
H1194  H     0.87841   0.37667   0.80399   0.00000  Uiso   1.00
C1195  C     0.80246   0.56278   0.70009   0.00000  Uiso   1.00
O1196  O     0.79870   0.55630   0.66245   0.00000  Uiso   1.00
O1197  O     0.79715   0.60271   0.71730   0.00000  Uiso   1.00
H1198  H     0.78828   0.62338   0.69613   0.00000  Uiso   1.00
H1199  H     0.77565   0.44768   0.79271   0.00000  Uiso   1.00
H1200  H     0.89101   0.55233   0.70731   0.00000  Uiso   1.00
C1201  C     0.33260   0.75416   0.75159   0.00000  Uiso   1.00
C1202  C     0.00073   0.91251   0.74842   0.00000  Uiso   1.00
C1203  C     0.18877   0.80717   0.54415   0.00000  Uiso   1.00
C1204  C     0.14426   0.85921   0.95569   0.00000  Uiso   1.00
C1205  C     0.23752   0.80078   0.52273   0.00000  Uiso   1.00
C1206  C     0.09552   0.86558   0.97707   0.00000  Uiso   1.00
C1207  C     0.30961   0.68917   0.72390   0.00000  Uiso   1.00
C1208  C     0.02372   0.97749   0.77613   0.00000  Uiso   1.00
C1209  C     0.31156   0.97975   0.72001   0.00000  Uiso   1.00
C1210  C     0.02177   0.68691   0.78001   0.00000  Uiso   1.00
C1211  C     0.00166   0.95722   0.74709   0.00000  Uiso   1.00
C1212  C     0.33167   0.70944   0.75293   0.00000  Uiso   1.00
C1213  C     0.18322   0.80395   0.77392   0.00000  Uiso   1.00
C1214  C     0.15010   0.86273   0.72609   0.00000  Uiso   1.00
C1215  C     0.13400   0.80418   0.77367   0.00000  Uiso   1.00
C1216  C     0.19933   0.86249   0.72634   0.00000  Uiso   1.00
C1217  C     0.30606   0.83290   0.83601   0.00000  Uiso   1.00
C1218  C     0.02727   0.83377   0.66399   0.00000  Uiso   1.00
C1219  C     0.29088   0.82995   0.88512   0.00000  Uiso   1.00
C1220  C     0.04239   0.83667   0.61487   0.00000  Uiso   1.00
C1221  C     0.30591   0.81009   0.95530   0.00000  Uiso   1.00
C1222  C     0.02713   0.85622   0.54469   0.00000  Uiso   1.00
C1223  C     0.32289   0.81786   0.90942   0.00000  Uiso   1.00
C1224  C     0.01026   0.84850   0.59059   0.00000  Uiso   1.00
C1225  C     0.24263   0.83697   0.90751   0.00000  Uiso   1.00
C1226  C     0.09065   0.82978   0.59242   0.00000  Uiso   1.00
C1227  C     0.22459   0.83057   0.95406   0.00000  Uiso   1.00
C1228  C     0.10854   0.83598   0.54583   0.00000  Uiso   1.00
C1229  C     0.25631   0.81383   0.97771   0.00000  Uiso   1.00
C1230  C     0.07674   0.85258   0.52217   0.00000  Uiso   1.00
C1231  C     0.17552   0.83891   0.97702   0.00000  Uiso   1.00
C1232  C     0.15758   0.82759   0.52284   0.00000  Uiso   1.00
Cu1233 Cu    0.04689   0.83334   0.75000   0.00000  Uiso   1.00
Cu1234 Cu    0.28645   0.83333   0.75000   0.00000  Uiso   1.00
H1235  H     0.30579   0.85340   0.60730   0.00000  Uiso   1.00
H1236  H     0.02734   0.81281   0.89274   0.00000  Uiso   1.00
H1237  H     0.17567   0.79386   0.57731   0.00000  Uiso   1.00
H1238  H     0.15733   0.87244   0.92250   0.00000  Uiso   1.00
H1239  H     0.29274   0.70709   0.70264   0.00000  Uiso   1.00
H1240  H     0.04058   0.95957   0.79739   0.00000  Uiso   1.00
N1241  N     0.11736   0.83334   0.74999   0.00000  Uiso   1.00
N1242  N     0.21597   0.83332   0.75001   0.00000  Uiso   1.00
O1243  O     0.03958   0.77322   0.75000   0.00000  Uiso   1.00
O1244  O     0.29375   0.89345   0.75000   0.00000  Uiso   1.00
O1245  O     0.29372   0.77321   0.75001   0.00000  Uiso   1.00
O1246  O     0.03961   0.89346   0.75000   0.00000  Uiso   1.00
O1247  O     0.01852   0.83334   0.81492   0.00000  Uiso   1.00
O1248  O     0.31481   0.83332   0.68509   0.00000  Uiso   1.00
O1249  O     0.27267   0.83333   0.81492   0.00000  Uiso   1.00
O1250  O     0.06067   0.83333   0.68508   0.00000  Uiso   1.00
C1251  C     0.26627   0.77731   0.54788   0.00000  Uiso   1.00
O1252  O     0.25987   0.78301   0.58800   0.00000  Uiso   1.00
O1253  O     0.29854   0.74713   0.52655   0.00000  Uiso   1.00
H1254  H     0.31537   0.73318   0.54748   0.00000  Uiso   1.00
C1255  C     0.06702   0.88879   0.95145   0.00000  Uiso   1.00
O1256  O     0.03747   0.91430   0.96993   0.00000  Uiso   1.00
O1257  O     0.07629   0.88311   0.90524   0.00000  Uiso   1.00
H1258  H     0.05528   0.90089   0.89126   0.00000  Uiso   1.00
H1259  H     0.11414   0.82142   0.61268   0.00000  Uiso   1.00
H1260  H     0.21929   0.84559   0.88722   0.00000  Uiso   1.00
H1261  H     0.33205   0.80086   0.97268   0.00000  Uiso   1.00
H1262  H     0.00084   0.86532   0.52742   0.00000  Uiso   1.00
C1263  C     0.29110   0.96029   0.68583   0.00000  Uiso   1.00
O1264  O     0.31007   0.92999   0.66554   0.00000  Uiso   1.00
O1265  O     0.25088   0.97760   0.67575   0.00000  Uiso   1.00
H1266  H     0.24030   0.96174   0.65193   0.00000  Uiso   1.00
C1267  C     0.04223   0.70637   0.81419   0.00000  Uiso   1.00
O1268  O     0.02329   0.73669   0.83446   0.00000  Uiso   1.00
O1269  O     0.08244   0.68904   0.82428   0.00000  Uiso   1.00
H1270  H     0.09303   0.70491   0.84811   0.00000  Uiso   1.00
C1271  C     0.19752   0.77059   0.79997   0.00000  Uiso   1.00
O1272  O     0.20122   0.77710   0.83763   0.00000  Uiso   1.00
O1273  O     0.20289   0.73065   0.78279   0.00000  Uiso   1.00
H1274  H     0.21174   0.71001   0.80399   0.00000  Uiso   1.00
C1275  C     0.13580   0.89611   0.70009   0.00000  Uiso   1.00
O1276  O     0.13203   0.88964   0.66245   0.00000  Uiso   1.00
O1277  O     0.13049   0.93605   0.71730   0.00000  Uiso   1.00
H1278  H     0.12161   0.95672   0.69613   0.00000  Uiso   1.00
H1279  H     0.10899   0.78101   0.79271   0.00000  Uiso   1.00
H1280  H     0.22434   0.88567   0.70731   0.00000  Uiso   1.00
C1281  C     0.66594   0.75416   0.75159   0.00000  Uiso   1.00
C1282  C     0.33406   0.91251   0.74842   0.00000  Uiso   1.00
C1283  C     0.52210   0.80717   0.54415   0.00000  Uiso   1.00
C1284  C     0.47760   0.85921   0.95569   0.00000  Uiso   1.00
C1285  C     0.57086   0.80078   0.52273   0.00000  Uiso   1.00
C1286  C     0.42885   0.86558   0.97707   0.00000  Uiso   1.00
C1287  C     0.64294   0.68917   0.72390   0.00000  Uiso   1.00
C1288  C     0.35705   0.97749   0.77613   0.00000  Uiso   1.00
C1289  C     0.64489   0.97975   0.72001   0.00000  Uiso   1.00
C1290  C     0.35511   0.68691   0.78001   0.00000  Uiso   1.00
C1291  C     0.33499   0.95722   0.74709   0.00000  Uiso   1.00
C1292  C     0.66500   0.70944   0.75293   0.00000  Uiso   1.00
C1293  C     0.51656   0.80395   0.77392   0.00000  Uiso   1.00
C1294  C     0.48344   0.86273   0.72609   0.00000  Uiso   1.00
C1295  C     0.46733   0.80418   0.77367   0.00000  Uiso   1.00
C1296  C     0.53267   0.86249   0.72634   0.00000  Uiso   1.00
C1297  C     0.63939   0.83290   0.83601   0.00000  Uiso   1.00
C1298  C     0.36061   0.83377   0.66399   0.00000  Uiso   1.00
C1299  C     0.62422   0.82995   0.88512   0.00000  Uiso   1.00
C1300  C     0.37573   0.83667   0.61487   0.00000  Uiso   1.00
C1301  C     0.63924   0.81009   0.95530   0.00000  Uiso   1.00
C1302  C     0.36047   0.85622   0.54469   0.00000  Uiso   1.00
C1303  C     0.65623   0.81786   0.90942   0.00000  Uiso   1.00
C1304  C     0.34360   0.84850   0.59059   0.00000  Uiso   1.00
C1305  C     0.57596   0.83697   0.90751   0.00000  Uiso   1.00
C1306  C     0.42399   0.82978   0.59242   0.00000  Uiso   1.00
C1307  C     0.55793   0.83057   0.95406   0.00000  Uiso   1.00
C1308  C     0.44187   0.83598   0.54583   0.00000  Uiso   1.00
C1309  C     0.58964   0.81383   0.97771   0.00000  Uiso   1.00
C1310  C     0.41007   0.85258   0.52217   0.00000  Uiso   1.00
C1311  C     0.50885   0.83891   0.97702   0.00000  Uiso   1.00
C1312  C     0.49091   0.82759   0.52284   0.00000  Uiso   1.00
Cu1313 Cu    0.38022   0.83334   0.75000   0.00000  Uiso   1.00
Cu1314 Cu    0.61978   0.83333   0.75000   0.00000  Uiso   1.00
H1315  H     0.63913   0.85340   0.60730   0.00000  Uiso   1.00
H1316  H     0.36067   0.81281   0.89274   0.00000  Uiso   1.00
H1317  H     0.50901   0.79386   0.57731   0.00000  Uiso   1.00
H1318  H     0.49067   0.87244   0.92250   0.00000  Uiso   1.00
H1319  H     0.62608   0.70709   0.70264   0.00000  Uiso   1.00
H1320  H     0.37391   0.95957   0.79739   0.00000  Uiso   1.00
N1321  N     0.45069   0.83334   0.74999   0.00000  Uiso   1.00
N1322  N     0.54931   0.83332   0.75001   0.00000  Uiso   1.00
O1323  O     0.37291   0.77322   0.75000   0.00000  Uiso   1.00
O1324  O     0.62709   0.89345   0.75000   0.00000  Uiso   1.00
O1325  O     0.62706   0.77321   0.75001   0.00000  Uiso   1.00
O1326  O     0.37294   0.89346   0.75000   0.00000  Uiso   1.00
O1327  O     0.35186   0.83334   0.81492   0.00000  Uiso   1.00
O1328  O     0.64814   0.83332   0.68509   0.00000  Uiso   1.00
O1329  O     0.60600   0.83333   0.81492   0.00000  Uiso   1.00
O1330  O     0.39400   0.83333   0.68508   0.00000  Uiso   1.00
C1331  C     0.59960   0.77731   0.54788   0.00000  Uiso   1.00
O1332  O     0.59320   0.78301   0.58800   0.00000  Uiso   1.00
O1333  O     0.63187   0.74713   0.52655   0.00000  Uiso   1.00
H1334  H     0.64870   0.73318   0.54748   0.00000  Uiso   1.00
C1335  C     0.40036   0.88879   0.95145   0.00000  Uiso   1.00
O1336  O     0.37080   0.91430   0.96993   0.00000  Uiso   1.00
O1337  O     0.40962   0.88311   0.90524   0.00000  Uiso   1.00
H1338  H     0.38862   0.90089   0.89126   0.00000  Uiso   1.00
H1339  H     0.44748   0.82142   0.61268   0.00000  Uiso   1.00
H1340  H     0.55262   0.84559   0.88722   0.00000  Uiso   1.00
H1341  H     0.66539   0.80086   0.97268   0.00000  Uiso   1.00
H1342  H     0.33417   0.86532   0.52742   0.00000  Uiso   1.00
C1343  C     0.62443   0.96029   0.68583   0.00000  Uiso   1.00
O1344  O     0.64340   0.92999   0.66554   0.00000  Uiso   1.00
O1345  O     0.58421   0.97760   0.67575   0.00000  Uiso   1.00
H1346  H     0.57363   0.96174   0.65193   0.00000  Uiso   1.00
C1347  C     0.37557   0.70637   0.81419   0.00000  Uiso   1.00
O1348  O     0.35662   0.73669   0.83446   0.00000  Uiso   1.00
O1349  O     0.41577   0.68904   0.82428   0.00000  Uiso   1.00
H1350  H     0.42636   0.70491   0.84811   0.00000  Uiso   1.00
C1351  C     0.53086   0.77059   0.79997   0.00000  Uiso   1.00
O1352  O     0.53455   0.77710   0.83763   0.00000  Uiso   1.00
O1353  O     0.53622   0.73065   0.78279   0.00000  Uiso   1.00
H1354  H     0.54508   0.71001   0.80399   0.00000  Uiso   1.00
C1355  C     0.46913   0.89611   0.70009   0.00000  Uiso   1.00
O1356  O     0.46537   0.88964   0.66245   0.00000  Uiso   1.00
O1357  O     0.46382   0.93605   0.71730   0.00000  Uiso   1.00
H1358  H     0.45494   0.95672   0.69613   0.00000  Uiso   1.00
H1359  H     0.44232   0.78101   0.79271   0.00000  Uiso   1.00
H1360  H     0.55767   0.88567   0.70731   0.00000  Uiso   1.00
C1361  C     0.99927   0.75416   0.75159   0.00000  Uiso   1.00
C1362  C     0.66739   0.91251   0.74842   0.00000  Uiso   1.00
C1363  C     0.85544   0.80717   0.54415   0.00000  Uiso   1.00
C1364  C     0.81093   0.85921   0.95569   0.00000  Uiso   1.00
C1365  C     0.90419   0.80078   0.52273   0.00000  Uiso   1.00
C1366  C     0.76219   0.86558   0.97707   0.00000  Uiso   1.00
C1367  C     0.97627   0.68917   0.72390   0.00000  Uiso   1.00
C1368  C     0.69039   0.97749   0.77613   0.00000  Uiso   1.00
C1369  C     0.97822   0.97975   0.72001   0.00000  Uiso   1.00
C1370  C     0.68844   0.68691   0.78001   0.00000  Uiso   1.00
C1371  C     0.66832   0.95722   0.74709   0.00000  Uiso   1.00
C1372  C     0.99834   0.70944   0.75293   0.00000  Uiso   1.00
C1373  C     0.84989   0.80395   0.77392   0.00000  Uiso   1.00
C1374  C     0.81677   0.86273   0.72609   0.00000  Uiso   1.00
C1375  C     0.80066   0.80418   0.77367   0.00000  Uiso   1.00
C1376  C     0.86600   0.86249   0.72634   0.00000  Uiso   1.00
C1377  C     0.97272   0.83290   0.83601   0.00000  Uiso   1.00
C1378  C     0.69394   0.83377   0.66399   0.00000  Uiso   1.00
C1379  C     0.95755   0.82995   0.88512   0.00000  Uiso   1.00
C1380  C     0.70906   0.83667   0.61487   0.00000  Uiso   1.00
C1381  C     0.97257   0.81009   0.95530   0.00000  Uiso   1.00
C1382  C     0.69380   0.85622   0.54469   0.00000  Uiso   1.00
C1383  C     0.98956   0.81786   0.90942   0.00000  Uiso   1.00
C1384  C     0.67693   0.84850   0.59059   0.00000  Uiso   1.00
C1385  C     0.90930   0.83697   0.90751   0.00000  Uiso   1.00
C1386  C     0.75732   0.82978   0.59242   0.00000  Uiso   1.00
C1387  C     0.89126   0.83057   0.95406   0.00000  Uiso   1.00
C1388  C     0.77520   0.83598   0.54583   0.00000  Uiso   1.00
C1389  C     0.92298   0.81383   0.97771   0.00000  Uiso   1.00
C1390  C     0.74340   0.85258   0.52217   0.00000  Uiso   1.00
C1391  C     0.84218   0.83891   0.97702   0.00000  Uiso   1.00
C1392  C     0.82424   0.82759   0.52284   0.00000  Uiso   1.00
Cu1393 Cu    0.71355   0.83334   0.75000   0.00000  Uiso   1.00
Cu1394 Cu    0.95311   0.83333   0.75000   0.00000  Uiso   1.00
H1395  H     0.97246   0.85340   0.60730   0.00000  Uiso   1.00
H1396  H     0.69400   0.81281   0.89274   0.00000  Uiso   1.00
H1397  H     0.84234   0.79386   0.57731   0.00000  Uiso   1.00
H1398  H     0.82400   0.87244   0.92250   0.00000  Uiso   1.00
H1399  H     0.95941   0.70709   0.70264   0.00000  Uiso   1.00
H1400  H     0.70724   0.95957   0.79739   0.00000  Uiso   1.00
N1401  N     0.78403   0.83334   0.74999   0.00000  Uiso   1.00
N1402  N     0.88264   0.83332   0.75001   0.00000  Uiso   1.00
O1403  O     0.70625   0.77322   0.75000   0.00000  Uiso   1.00
O1404  O     0.96042   0.89345   0.75000   0.00000  Uiso   1.00
O1405  O     0.96039   0.77321   0.75001   0.00000  Uiso   1.00
O1406  O     0.70628   0.89346   0.75000   0.00000  Uiso   1.00
O1407  O     0.68519   0.83334   0.81492   0.00000  Uiso   1.00
O1408  O     0.98148   0.83332   0.68509   0.00000  Uiso   1.00
O1409  O     0.93933   0.83333   0.81492   0.00000  Uiso   1.00
O1410  O     0.72733   0.83333   0.68508   0.00000  Uiso   1.00
C1411  C     0.93293   0.77731   0.54788   0.00000  Uiso   1.00
O1412  O     0.92653   0.78301   0.58800   0.00000  Uiso   1.00
O1413  O     0.96521   0.74713   0.52655   0.00000  Uiso   1.00
H1414  H     0.98204   0.73318   0.54748   0.00000  Uiso   1.00
C1415  C     0.73369   0.88879   0.95145   0.00000  Uiso   1.00
O1416  O     0.70414   0.91430   0.96993   0.00000  Uiso   1.00
O1417  O     0.74296   0.88311   0.90524   0.00000  Uiso   1.00
H1418  H     0.72195   0.90089   0.89126   0.00000  Uiso   1.00
H1419  H     0.78081   0.82142   0.61268   0.00000  Uiso   1.00
H1420  H     0.88595   0.84559   0.88722   0.00000  Uiso   1.00
H1421  H     0.99872   0.80086   0.97268   0.00000  Uiso   1.00
H1422  H     0.66750   0.86532   0.52742   0.00000  Uiso   1.00
C1423  C     0.95777   0.96029   0.68583   0.00000  Uiso   1.00
O1424  O     0.97673   0.92999   0.66554   0.00000  Uiso   1.00
O1425  O     0.91754   0.97760   0.67575   0.00000  Uiso   1.00
H1426  H     0.90696   0.96174   0.65193   0.00000  Uiso   1.00
C1427  C     0.70890   0.70637   0.81419   0.00000  Uiso   1.00
O1428  O     0.68996   0.73669   0.83446   0.00000  Uiso   1.00
O1429  O     0.74911   0.68904   0.82428   0.00000  Uiso   1.00
H1430  H     0.75969   0.70491   0.84811   0.00000  Uiso   1.00
C1431  C     0.86419   0.77059   0.79997   0.00000  Uiso   1.00
O1432  O     0.86788   0.77710   0.83763   0.00000  Uiso   1.00
O1433  O     0.86955   0.73065   0.78279   0.00000  Uiso   1.00
H1434  H     0.87841   0.71001   0.80399   0.00000  Uiso   1.00
C1435  C     0.80246   0.89611   0.70009   0.00000  Uiso   1.00
O1436  O     0.79870   0.88964   0.66245   0.00000  Uiso   1.00
O1437  O     0.79715   0.93605   0.71730   0.00000  Uiso   1.00
H1438  H     0.78828   0.95672   0.69613   0.00000  Uiso   1.00
H1439  H     0.77565   0.78101   0.79271   0.00000  Uiso   1.00
H1440  H     0.89101   0.88567   0.70731   0.00000  Uiso   1.00
loop_
_geom_bond_atom_site_label_1
_geom_bond_atom_site_label_2
_geom_bond_distance
_geom_bond_site_symmetry_2
_ccdc_geom_bond_type
C1     C12     1.446   .     S
C1     O45     1.295   .     A
C1     O123    1.293   .     S
C2     O46     1.295   .     A
C2     C11     1.446   .     S
C2     O204    1.293   1_455 S
C3     C32     1.415   .     A
C3     C5      1.396   .     A
C3     H37     1.076   .     S
C4     C6      1.396   .     A
C4     H38     1.076   .     S
C4     C31     1.415   .     A
C5     C51     1.490   .     S
C5     C749    1.410   1_554 S
C6     C55     1.490   .     S
C6     C750    1.411   .     S
C7     C12     1.398   .     A
C7     H39     1.085   .     S
C7     C489    1.390   1_545 S
C8     C11     1.398   .     A
C8     H40     1.085   .     S
C8     C250    1.390   .     S
C9     C63     1.486   .     S
C9     C247    1.390   .     S
C9     C91     1.413   .     S
C10    C67     1.486   .     S
C10    C488    1.390   1_545 S
C10    C172    1.413   1_455 S
C11    C169    1.413   1_455 S
C12    C90     1.413   .     S
C13    N42     1.384   .     A
C13    C71     1.469   .     S
C13    C15     1.416   .     A
C14    N41     1.384   .     A
C14    C16     1.416   .     A
C14    C75     1.469   .     S
C15    H79     1.082   .     S
C15    N41     1.358   .     A
C16    N42     1.358   .     A
C16    H80     1.082   .     S
C17    O49     1.300   .     A
C17    C19     1.467   .     S
C17    O127    1.300   .     S
C18    O50     1.300   .     A
C18    C20     1.467   .     S
C18    O208    1.300   1_455 S
C19    C23     1.395   .     A
C19    C25     1.394   .     A
C20    C24     1.395   .     A
C20    C26     1.394   .     A
C21    H61     1.080   .     S
C21    C23     1.391   .     A
C21    C29     1.412   .     A
C22    H62     1.080   .     S
C22    C24     1.391   .     A
C22    C30     1.413   .     A
C23    H116    1.083   .     S
C24    H195    1.083   1_455 S
C25    H60     1.074   .     S
C25    C27     1.406   .     A
C26    H59     1.074   .     S
C26    C28     1.406   .     A
C27    C29     1.424   .     A
C27    C31     1.427   .     A
C28    C32     1.426   .     A
C28    C30     1.424   .     A
C29    C725    1.410   .     S
C30    C726    1.411   1_554 S
C31    C752    1.415   .     S
C32    C751    1.415   1_554 S
Cu33   O46     1.958   .     S
Cu33   O43     1.953   .     S
Cu33   O50     1.943   .     S
Cu33   O47     1.955   .     S
Cu33   N41     2.024   .     S
Cu33   Cu194   2.694   1_455 S
Cu34   N42     2.024   .     S
Cu34   O44     1.953   .     S
Cu34   O45     1.958   .     S
Cu34   O48     1.955   .     S
Cu34   O49     1.943   .     S
Cu34   Cu113   2.694   .     S
H35    C104    1.083   .     S
H36    C183    1.083   1_455 S
O43    C161    1.293   1_455 S
O44    C82     1.293   .     S
O47    C177    1.300   1_455 S
O48    C98     1.300   .     S
C51    O52     1.223   .     D
C51    O53     1.398   .     S
O53    H54     1.014   .     S
C55    O56     1.223   .     D
C55    O57     1.399   .     S
O57    H58     1.014   .     S
C63    O65     1.399   .     S
C63    O64     1.223   .     D
O65    H66     1.014   .     S
C67    O68     1.223   .     D
C67    O69     1.399   .     S
O69    H70     1.014   .     S
C71    O73     1.398   .     S
C71    O72     1.221   .     D
O73    H74     1.014   .     S
C75    O76     1.221   .     D
C75    O77     1.398   .     S
O77    H78     1.014   .     S
C81    C92     1.446   .     S
C81    O125    1.295   .     A
C81    O203    1.293   .     S
C82    O126    1.295   .     A
C82    C91     1.446   .     S
C83    C112    1.415   .     A
C83    C85     1.396   .     A
C83    H117    1.076   .     S
C84    C86     1.396   .     A
C84    H118    1.076   .     S
C84    C111    1.415   .     A
C85    C131    1.490   .     S
C85    C829    1.410   1_554 S
C86    C135    1.490   .     S
C86    C830    1.411   .     S
C87    C92     1.398   .     A
C87    H119    1.085   .     S
C87    C569    1.390   1_545 S
C88    C91     1.398   .     A
C88    H120    1.085   .     S
C88    C330    1.390   .     S
C89    C143    1.486   .     S
C89    C327    1.390   .     S
C89    C171    1.413   .     S
C90    C147    1.486   .     S
C90    C568    1.390   1_545 S
C92    C170    1.413   .     S
C93    N122    1.384   .     A
C93    C151    1.469   .     S
C93    C95     1.416   .     A
C94    N121    1.384   .     A
C94    C96     1.416   .     A
C94    C155    1.469   .     S
C95    H159    1.082   .     S
C95    N121    1.358   .     A
C96    N122    1.358   .     A
C96    H160    1.082   .     S
C97    O129    1.300   .     A
C97    C99     1.467   .     S
C97    O207    1.300   .     S
C98    O130    1.300   .     A
C98    C100    1.467   .     S
C99    C103    1.395   .     A
C99    C105    1.394   .     A
C100   C104    1.395   .     A
C100   C106    1.394   .     A
C101   H141    1.080   .     S
C101   C103    1.391   .     A
C101   C109    1.412   .     A
C102   H142    1.080   .     S
C102   C104    1.391   .     A
C102   C110    1.413   .     A
C103   H196    1.083   .     S
C105   H140    1.074   .     S
C105   C107    1.406   .     A
C106   H139    1.074   .     S
C106   C108    1.406   .     A
C107   C109    1.424   .     A
C107   C111    1.427   .     A
C108   C112    1.426   .     A
C108   C110    1.424   .     A
C109   C805    1.410   .     S
C110   C806    1.411   1_554 S
C111   C832    1.415   .     S
C112   C831    1.415   1_554 S
Cu113  O126    1.958   .     S
Cu113  O123    1.953   .     S
Cu113  O130    1.943   .     S
Cu113  O127    1.955   .     S
Cu113  N121    2.024   .     S
Cu114  N122    2.024   .     S
Cu114  O124    1.953   .     S
Cu114  O125    1.958   .     S
Cu114  O128    1.955   .     S
Cu114  O129    1.943   .     S
Cu114  Cu193   2.694   .     S
H115   C184    1.083   .     S
O124   C162    1.293   .     S
O128   C178    1.300   .     S
C131   O132    1.223   .     D
C131   O133    1.398   .     S
O133   H134    1.014   .     S
C135   O136    1.223   .     D
C135   O137    1.399   .     S
O137   H138    1.014   .     S
C143   O145    1.399   .     S
C143   O144    1.223   .     D
O145   H146    1.014   .     S
C147   O148    1.223   .     D
C147   O149    1.399   .     S
O149   H150    1.014   .     S
C151   O153    1.398   .     S
C151   O152    1.221   .     D
O153   H154    1.014   .     S
C155   O156    1.221   .     D
C155   O157    1.398   .     S
O157   H158    1.014   .     S
C161   C172    1.446   .     S
C161   O205    1.295   .     A
C161   O43     1.293   1_655 S
C162   O206    1.295   .     A
C162   C171    1.446   .     S
C163   C192    1.415   .     A
C163   C165    1.396   .     A
C163   H197    1.076   .     S
C164   C166    1.396   .     A
C164   H198    1.076   .     S
C164   C191    1.415   .     A
C165   C211    1.490   .     S
C165   C909    1.410   1_554 S
C166   C215    1.490   .     S
C166   C910    1.411   .     S
C167   C172    1.398   .     A
C167   H199    1.085   .     S
C167   C649    1.390   1_545 S
C168   C171    1.398   .     A
C168   H200    1.085   .     S
C168   C410    1.390   .     S
C169   C223    1.486   .     S
C169   C407    1.390   .     S
C169   C11     1.413   1_655 S
C170   C227    1.486   .     S
C170   C648    1.390   1_545 S
C172   C10     1.413   1_655 S
C173   N202    1.384   .     A
C173   C231    1.469   .     S
C173   C175    1.416   .     A
C174   N201    1.384   .     A
C174   C176    1.416   .     A
C174   C235    1.469   .     S
C175   H239    1.082   .     S
C175   N201    1.358   .     A
C176   N202    1.358   .     A
C176   H240    1.082   .     S
C177   O209    1.300   .     A
C177   C179    1.467   .     S
C177   O47     1.300   1_655 S
C178   O210    1.300   .     A
C178   C180    1.467   .     S
C179   C183    1.395   .     A
C179   C185    1.394   .     A
C180   C184    1.395   .     A
C180   C186    1.394   .     A
C181   H221    1.080   .     S
C181   C183    1.391   .     A
C181   C189    1.412   .     A
C182   H222    1.080   .     S
C182   C184    1.391   .     A
C182   C190    1.413   .     A
C183   H36     1.083   1_655 S
C185   H220    1.074   .     S
C185   C187    1.406   .     A
C186   H219    1.074   .     S
C186   C188    1.406   .     A
C187   C189    1.424   .     A
C187   C191    1.427   .     A
C188   C192    1.426   .     A
C188   C190    1.424   .     A
C189   C885    1.410   .     S
C190   C886    1.411   1_554 S
C191   C912    1.415   .     S
C192   C911    1.415   1_554 S
Cu193  O206    1.958   .     S
Cu193  O203    1.953   .     S
Cu193  O210    1.943   .     S
Cu193  O207    1.955   .     S
Cu193  N201    2.024   .     S
Cu194  N202    2.024   .     S
Cu194  O204    1.953   .     S
Cu194  O205    1.958   .     S
Cu194  O208    1.955   .     S
Cu194  O209    1.943   .     S
Cu194  Cu33    2.694   1_655 S
H195   C24     1.083   1_655 S
O204   C2      1.293   1_655 S
O208   C18     1.300   1_655 S
C211   O212    1.223   .     D
C211   O213    1.398   .     S
O213   H214    1.014   .     S
C215   O216    1.223   .     D
C215   O217    1.399   .     S
O217   H218    1.014   .     S
C223   O225    1.399   .     S
C223   O224    1.223   .     D
O225   H226    1.014   .     S
C227   O228    1.223   .     D
C227   O229    1.399   .     S
O229   H230    1.014   .     S
C231   O233    1.398   .     S
C231   O232    1.221   .     D
O233   H234    1.014   .     S
C235   O236    1.221   .     D
C235   O237    1.398   .     S
O237   H238    1.014   .     S
C241   C252    1.446   .     S
C241   O285    1.295   .     A
C241   O363    1.293   .     S
C242   O286    1.295   .     A
C242   C251    1.446   .     S
C242   O444    1.293   1_455 S
C243   C272    1.415   .     A
C243   C245    1.396   .     A
C243   H277    1.076   .     S
C244   C246    1.396   .     A
C244   H278    1.076   .     S
C244   C271    1.415   .     A
C245   C291    1.490   .     S
C245   C989    1.410   1_554 S
C246   C295    1.490   .     S
C246   C990    1.411   .     S
C247   C252    1.398   .     A
C247   H279    1.085   .     S
C248   C251    1.398   .     A
C248   H280    1.085   .     S
C248   C490    1.390   .     S
C249   C303    1.486   .     S
C249   C487    1.390   .     S
C249   C331    1.413   .     S
C250   C307    1.486   .     S
C250   C412    1.413   1_455 S
C251   C409    1.413   1_455 S
C252   C330    1.413   .     S
C253   N282    1.384   .     A
C253   C311    1.469   .     S
C253   C255    1.416   .     A
C254   N281    1.384   .     A
C254   C256    1.416   .     A
C254   C315    1.469   .     S
C255   H319    1.082   .     S
C255   N281    1.358   .     A
C256   N282    1.358   .     A
C256   H320    1.082   .     S
C257   O289    1.300   .     A
C257   C259    1.467   .     S
C257   O367    1.300   .     S
C258   O290    1.300   .     A
C258   C260    1.467   .     S
C258   O448    1.300   1_455 S
C259   C263    1.395   .     A
C259   C265    1.394   .     A
C260   C264    1.395   .     A
C260   C266    1.394   .     A
C261   H301    1.080   .     S
C261   C263    1.391   .     A
C261   C269    1.412   .     A
C262   H302    1.080   .     S
C262   C264    1.391   .     A
C262   C270    1.413   .     A
C263   H356    1.083   .     S
C264   H435    1.083   1_455 S
C265   H300    1.074   .     S
C265   C267    1.406   .     A
C266   H299    1.074   .     S
C266   C268    1.406   .     A
C267   C269    1.424   .     A
C267   C271    1.427   .     A
C268   C272    1.426   .     A
C268   C270    1.424   .     A
C269   C965    1.410   .     S
C270   C966    1.411   1_554 S
C271   C992    1.415   .     S
C272   C991    1.415   1_554 S
Cu273  O286    1.958   .     S
Cu273  O283    1.953   .     S
Cu273  O290    1.943   .     S
Cu273  O287    1.955   .     S
Cu273  N281    2.024   .     S
Cu273  Cu434   2.694   1_455 S
Cu274  N282    2.024   .     S
Cu274  O284    1.953   .     S
Cu274  O285    1.958   .     S
Cu274  O288    1.955   .     S
Cu274  O289    1.943   .     S
Cu274  Cu353   2.694   .     S
H275   C344    1.083   .     S
H276   C423    1.083   1_455 S
O283   C401    1.293   1_455 S
O284   C322    1.293   .     S
O287   C417    1.300   1_455 S
O288   C338    1.300   .     S
C291   O292    1.223   .     D
C291   O293    1.398   .     S
O293   H294    1.014   .     S
C295   O296    1.223   .     D
C295   O297    1.399   .     S
O297   H298    1.014   .     S
C303   O305    1.399   .     S
C303   O304    1.223   .     D
O305   H306    1.014   .     S
C307   O308    1.223   .     D
C307   O309    1.399   .     S
O309   H310    1.014   .     S
C311   O313    1.398   .     S
C311   O312    1.221   .     D
O313   H314    1.014   .     S
C315   O316    1.221   .     D
C315   O317    1.398   .     S
O317   H318    1.014   .     S
C321   C332    1.446   .     S
C321   O365    1.295   .     A
C321   O443    1.293   .     S
C322   O366    1.295   .     A
C322   C331    1.446   .     S
C323   C352    1.415   .     A
C323   C325    1.396   .     A
C323   H357    1.076   .     S
C324   C326    1.396   .     A
C324   H358    1.076   .     S
C324   C351    1.415   .     A
C325   C371    1.490   .     S
C325   C1069   1.410   1_554 S
C326   C375    1.490   .     S
C326   C1070   1.411   .     S
C327   C332    1.398   .     A
C327   H359    1.085   .     S
C328   C331    1.398   .     A
C328   H360    1.085   .     S
C328   C570    1.390   .     S
C329   C383    1.486   .     S
C329   C567    1.390   .     S
C329   C411    1.413   .     S
C330   C387    1.486   .     S
C332   C410    1.413   .     S
C333   N362    1.384   .     A
C333   C391    1.469   .     S
C333   C335    1.416   .     A
C334   N361    1.384   .     A
C334   C336    1.416   .     A
C334   C395    1.469   .     S
C335   H399    1.082   .     S
C335   N361    1.358   .     A
C336   N362    1.358   .     A
C336   H400    1.082   .     S
C337   O369    1.300   .     A
C337   C339    1.467   .     S
C337   O447    1.300   .     S
C338   O370    1.300   .     A
C338   C340    1.467   .     S
C339   C343    1.395   .     A
C339   C345    1.394   .     A
C340   C344    1.395   .     A
C340   C346    1.394   .     A
C341   H381    1.080   .     S
C341   C343    1.391   .     A
C341   C349    1.412   .     A
C342   H382    1.080   .     S
C342   C344    1.391   .     A
C342   C350    1.413   .     A
C343   H436    1.083   .     S
C345   H380    1.074   .     S
C345   C347    1.406   .     A
C346   H379    1.074   .     S
C346   C348    1.406   .     A
C347   C349    1.424   .     A
C347   C351    1.427   .     A
C348   C352    1.426   .     A
C348   C350    1.424   .     A
C349   C1045   1.410   .     S
C350   C1046   1.411   1_554 S
C351   C1072   1.415   .     S
C352   C1071   1.415   1_554 S
Cu353  O366    1.958   .     S
Cu353  O363    1.953   .     S
Cu353  O370    1.943   .     S
Cu353  O367    1.955   .     S
Cu353  N361    2.024   .     S
Cu354  N362    2.024   .     S
Cu354  O364    1.953   .     S
Cu354  O365    1.958   .     S
Cu354  O368    1.955   .     S
Cu354  O369    1.943   .     S
Cu354  Cu433   2.694   .     S
H355   C424    1.083   .     S
O364   C402    1.293   .     S
O368   C418    1.300   .     S
C371   O372    1.223   .     D
C371   O373    1.398   .     S
O373   H374    1.014   .     S
C375   O376    1.223   .     D
C375   O377    1.399   .     S
O377   H378    1.014   .     S
C383   O385    1.399   .     S
C383   O384    1.223   .     D
O385   H386    1.014   .     S
C387   O388    1.223   .     D
C387   O389    1.399   .     S
O389   H390    1.014   .     S
C391   O393    1.398   .     S
C391   O392    1.221   .     D
O393   H394    1.014   .     S
C395   O396    1.221   .     D
C395   O397    1.398   .     S
O397   H398    1.014   .     S
C401   C412    1.446   .     S
C401   O445    1.295   .     A
C401   O283    1.293   1_655 S
C402   O446    1.295   .     A
C402   C411    1.446   .     S
C403   C432    1.415   .     A
C403   C405    1.396   .     A
C403   H437    1.076   .     S
C404   C406    1.396   .     A
C404   H438    1.076   .     S
C404   C431    1.415   .     A
C405   C451    1.490   .     S
C405   C1149   1.410   1_554 S
C406   C455    1.490   .     S
C406   C1150   1.411   .     S
C407   C412    1.398   .     A
C407   H439    1.085   .     S
C408   C411    1.398   .     A
C408   H440    1.085   .     S
C408   C650    1.390   .     S
C409   C463    1.486   .     S
C409   C647    1.390   .     S
C409   C251    1.413   1_655 S
C410   C467    1.486   .     S
C412   C250    1.413   1_655 S
C413   N442    1.384   .     A
C413   C471    1.469   .     S
C413   C415    1.416   .     A
C414   N441    1.384   .     A
C414   C416    1.416   .     A
C414   C475    1.469   .     S
C415   H479    1.082   .     S
C415   N441    1.358   .     A
C416   N442    1.358   .     A
C416   H480    1.082   .     S
C417   O449    1.300   .     A
C417   C419    1.467   .     S
C417   O287    1.300   1_655 S
C418   O450    1.300   .     A
C418   C420    1.467   .     S
C419   C423    1.395   .     A
C419   C425    1.394   .     A
C420   C424    1.395   .     A
C420   C426    1.394   .     A
C421   H461    1.080   .     S
C421   C423    1.391   .     A
C421   C429    1.412   .     A
C422   H462    1.080   .     S
C422   C424    1.391   .     A
C422   C430    1.413   .     A
C423   H276    1.083   1_655 S
C425   H460    1.074   .     S
C425   C427    1.406   .     A
C426   H459    1.074   .     S
C426   C428    1.406   .     A
C427   C429    1.424   .     A
C427   C431    1.427   .     A
C428   C432    1.426   .     A
C428   C430    1.424   .     A
C429   C1125   1.410   .     S
C430   C1126   1.411   1_554 S
C431   C1152   1.415   .     S
C432   C1151   1.415   1_554 S
Cu433  O446    1.958   .     S
Cu433  O443    1.953   .     S
Cu433  O450    1.943   .     S
Cu433  O447    1.955   .     S
Cu433  N441    2.024   .     S
Cu434  N442    2.024   .     S
Cu434  O444    1.953   .     S
Cu434  O445    1.958   .     S
Cu434  O448    1.955   .     S
Cu434  O449    1.943   .     S
Cu434  Cu273   2.694   1_655 S
H435   C264    1.083   1_655 S
O444   C242    1.293   1_655 S
O448   C258    1.300   1_655 S
C451   O452    1.223   .     D
C451   O453    1.398   .     S
O453   H454    1.014   .     S
C455   O456    1.223   .     D
C455   O457    1.399   .     S
O457   H458    1.014   .     S
C463   O465    1.399   .     S
C463   O464    1.223   .     D
O465   H466    1.014   .     S
C467   O468    1.223   .     D
C467   O469    1.399   .     S
O469   H470    1.014   .     S
C471   O473    1.398   .     S
C471   O472    1.221   .     D
O473   H474    1.014   .     S
C475   O476    1.221   .     D
C475   O477    1.398   .     S
O477   H478    1.014   .     S
C481   C492    1.446   .     S
C481   O525    1.295   .     A
C481   O603    1.293   .     S
C482   O526    1.295   .     A
C482   C491    1.446   .     S
C482   O684    1.293   1_455 S
C483   C512    1.415   .     A
C483   C485    1.396   .     A
C483   H517    1.076   .     S
C484   C486    1.396   .     A
C484   H518    1.076   .     S
C484   C511    1.415   .     A
C485   C531    1.490   .     S
C485   C1229   1.410   1_554 S
C486   C535    1.490   .     S
C486   C1230   1.411   .     S
C487   C492    1.398   .     A
C487   H519    1.085   .     S
C488   C491    1.398   .     A
C488   H520    1.085   .     S
C488   C10     1.390   1_565 S
C489   C543    1.486   .     S
C489   C7      1.390   1_565 S
C489   C571    1.413   .     S
C490   C547    1.486   .     S
C490   C652    1.413   1_455 S
C491   C649    1.413   1_455 S
C492   C570    1.413   .     S
C493   N522    1.384   .     A
C493   C551    1.469   .     S
C493   C495    1.416   .     A
C494   N521    1.384   .     A
C494   C496    1.416   .     A
C494   C555    1.469   .     S
C495   H559    1.082   .     S
C495   N521    1.358   .     A
C496   N522    1.358   .     A
C496   H560    1.082   .     S
C497   O529    1.300   .     A
C497   C499    1.467   .     S
C497   O607    1.300   .     S
C498   O530    1.300   .     A
C498   C500    1.467   .     S
C498   O688    1.300   1_455 S
C499   C503    1.395   .     A
C499   C505    1.394   .     A
C500   C504    1.395   .     A
C500   C506    1.394   .     A
C501   H541    1.080   .     S
C501   C503    1.391   .     A
C501   C509    1.412   .     A
C502   H542    1.080   .     S
C502   C504    1.391   .     A
C502   C510    1.413   .     A
C503   H596    1.083   .     S
C504   H675    1.083   1_455 S
C505   H540    1.074   .     S
C505   C507    1.406   .     A
C506   H539    1.074   .     S
C506   C508    1.406   .     A
C507   C509    1.424   .     A
C507   C511    1.427   .     A
C508   C512    1.426   .     A
C508   C510    1.424   .     A
C509   C1205   1.410   .     S
C510   C1206   1.411   1_554 S
C511   C1232   1.415   .     S
C512   C1231   1.415   1_554 S
Cu513  O526    1.958   .     S
Cu513  O523    1.953   .     S
Cu513  O530    1.943   .     S
Cu513  O527    1.955   .     S
Cu513  N521    2.024   .     S
Cu513  Cu674   2.694   1_455 S
Cu514  N522    2.024   .     S
Cu514  O524    1.953   .     S
Cu514  O525    1.958   .     S
Cu514  O528    1.955   .     S
Cu514  O529    1.943   .     S
Cu514  Cu593   2.694   .     S
H515   C584    1.083   .     S
H516   C663    1.083   1_455 S
O523   C641    1.293   1_455 S
O524   C562    1.293   .     S
O527   C657    1.300   1_455 S
O528   C578    1.300   .     S
C531   O532    1.223   .     D
C531   O533    1.398   .     S
O533   H534    1.014   .     S
C535   O536    1.223   .     D
C535   O537    1.399   .     S
O537   H538    1.014   .     S
C543   O545    1.399   .     S
C543   O544    1.223   .     D
O545   H546    1.014   .     S
C547   O548    1.223   .     D
C547   O549    1.399   .     S
O549   H550    1.014   .     S
C551   O553    1.398   .     S
C551   O552    1.221   .     D
O553   H554    1.014   .     S
C555   O556    1.221   .     D
C555   O557    1.398   .     S
O557   H558    1.014   .     S
C561   C572    1.446   .     S
C561   O605    1.295   .     A
C561   O683    1.293   .     S
C562   O606    1.295   .     A
C562   C571    1.446   .     S
C563   C592    1.415   .     A
C563   C565    1.396   .     A
C563   H597    1.076   .     S
C564   C566    1.396   .     A
C564   H598    1.076   .     S
C564   C591    1.415   .     A
C565   C611    1.490   .     S
C565   C1309   1.410   1_554 S
C566   C615    1.490   .     S
C566   C1310   1.411   .     S
C567   C572    1.398   .     A
C567   H599    1.085   .     S
C568   C571    1.398   .     A
C568   H600    1.085   .     S
C568   C90     1.390   1_565 S
C569   C623    1.486   .     S
C569   C87     1.390   1_565 S
C569   C651    1.413   .     S
C570   C627    1.486   .     S
C572   C650    1.413   .     S
C573   N602    1.384   .     A
C573   C631    1.469   .     S
C573   C575    1.416   .     A
C574   N601    1.384   .     A
C574   C576    1.416   .     A
C574   C635    1.469   .     S
C575   H639    1.082   .     S
C575   N601    1.358   .     A
C576   N602    1.358   .     A
C576   H640    1.082   .     S
C577   O609    1.300   .     A
C577   C579    1.467   .     S
C577   O687    1.300   .     S
C578   O610    1.300   .     A
C578   C580    1.467   .     S
C579   C583    1.395   .     A
C579   C585    1.394   .     A
C580   C584    1.395   .     A
C580   C586    1.394   .     A
C581   H621    1.080   .     S
C581   C583    1.391   .     A
C581   C589    1.412   .     A
C582   H622    1.080   .     S
C582   C584    1.391   .     A
C582   C590    1.413   .     A
C583   H676    1.083   .     S
C585   H620    1.074   .     S
C585   C587    1.406   .     A
C586   H619    1.074   .     S
C586   C588    1.406   .     A
C587   C589    1.424   .     A
C587   C591    1.427   .     A
C588   C592    1.426   .     A
C588   C590    1.424   .     A
C589   C1285   1.410   .     S
C590   C1286   1.411   1_554 S
C591   C1312   1.415   .     S
C592   C1311   1.415   1_554 S
Cu593  O606    1.958   .     S
Cu593  O603    1.953   .     S
Cu593  O610    1.943   .     S
Cu593  O607    1.955   .     S
Cu593  N601    2.024   .     S
Cu594  N602    2.024   .     S
Cu594  O604    1.953   .     S
Cu594  O605    1.958   .     S
Cu594  O608    1.955   .     S
Cu594  O609    1.943   .     S
Cu594  Cu673   2.694   .     S
H595   C664    1.083   .     S
O604   C642    1.293   .     S
O608   C658    1.300   .     S
C611   O612    1.223   .     D
C611   O613    1.398   .     S
O613   H614    1.014   .     S
C615   O616    1.223   .     D
C615   O617    1.399   .     S
O617   H618    1.014   .     S
C623   O625    1.399   .     S
C623   O624    1.223   .     D
O625   H626    1.014   .     S
C627   O628    1.223   .     D
C627   O629    1.399   .     S
O629   H630    1.014   .     S
C631   O633    1.398   .     S
C631   O632    1.221   .     D
O633   H634    1.014   .     S
C635   O636    1.221   .     D
C635   O637    1.398   .     S
O637   H638    1.014   .     S
C641   C652    1.446   .     S
C641   O685    1.295   .     A
C641   O523    1.293   1_655 S
C642   O686    1.295   .     A
C642   C651    1.446   .     S
C643   C672    1.415   .     A
C643   C645    1.396   .     A
C643   H677    1.076   .     S
C644   C646    1.396   .     A
C644   H678    1.076   .     S
C644   C671    1.415   .     A
C645   C691    1.490   .     S
C645   C1389   1.410   1_554 S
C646   C695    1.490   .     S
C646   C1390   1.411   .     S
C647   C652    1.398   .     A
C647   H679    1.085   .     S
C648   C651    1.398   .     A
C648   H680    1.085   .     S
C648   C170    1.390   1_565 S
C649   C703    1.486   .     S
C649   C167    1.390   1_565 S
C649   C491    1.413   1_655 S
C650   C707    1.486   .     S
C652   C490    1.413   1_655 S
C653   N682    1.384   .     A
C653   C711    1.469   .     S
C653   C655    1.416   .     A
C654   N681    1.384   .     A
C654   C656    1.416   .     A
C654   C715    1.469   .     S
C655   H719    1.082   .     S
C655   N681    1.358   .     A
C656   N682    1.358   .     A
C656   H720    1.082   .     S
C657   O689    1.300   .     A
C657   C659    1.467   .     S
C657   O527    1.300   1_655 S
C658   O690    1.300   .     A
C658   C660    1.467   .     S
C659   C663    1.395   .     A
C659   C665    1.394   .     A
C660   C664    1.395   .     A
C660   C666    1.394   .     A
C661   H701    1.080   .     S
C661   C663    1.391   .     A
C661   C669    1.412   .     A
C662   H702    1.080   .     S
C662   C664    1.391   .     A
C662   C670    1.413   .     A
C663   H516    1.083   1_655 S
C665   H700    1.074   .     S
C665   C667    1.406   .     A
C666   H699    1.074   .     S
C666   C668    1.406   .     A
C667   C669    1.424   .     A
C667   C671    1.427   .     A
C668   C672    1.426   .     A
C668   C670    1.424   .     A
C669   C1365   1.410   .     S
C670   C1366   1.411   1_554 S
C671   C1392   1.415   .     S
C672   C1391   1.415   1_554 S
Cu673  O686    1.958   .     S
Cu673  O683    1.953   .     S
Cu673  O690    1.943   .     S
Cu673  O687    1.955   .     S
Cu673  N681    2.024   .     S
Cu674  N682    2.024   .     S
Cu674  O684    1.953   .     S
Cu674  O685    1.958   .     S
Cu674  O688    1.955   .     S
Cu674  O689    1.943   .     S
Cu674  Cu513   2.694   1_655 S
H675   C504    1.083   1_655 S
O684   C482    1.293   1_655 S
O688   C498    1.300   1_655 S
C691   O692    1.223   .     D
C691   O693    1.398   .     S
O693   H694    1.014   .     S
C695   O696    1.223   .     D
C695   O697    1.399   .     S
O697   H698    1.014   .     S
C703   O705    1.399   .     S
C703   O704    1.223   .     D
O705   H706    1.014   .     S
C707   O708    1.223   .     D
C707   O709    1.399   .     S
O709   H710    1.014   .     S
C711   O713    1.398   .     S
C711   O712    1.221   .     D
O713   H714    1.014   .     S
C715   O716    1.221   .     D
C715   O717    1.398   .     S
O717   H718    1.014   .     S
C721   C732    1.446   .     S
C721   O765    1.295   .     A
C721   O843    1.293   .     S
C722   O766    1.295   .     A
C722   C731    1.446   .     S
C722   O924    1.293   1_455 S
C723   C752    1.415   .     A
C723   C725    1.396   .     A
C723   H757    1.076   .     S
C724   C726    1.396   .     A
C724   H758    1.076   .     S
C724   C751    1.415   .     A
C725   C771    1.490   .     S
C726   C775    1.490   .     S
C726   C30     1.411   1_556 S
C727   C732    1.398   .     A
C727   H759    1.085   .     S
C727   C1209   1.390   1_545 S
C728   C731    1.398   .     A
C728   H760    1.085   .     S
C728   C970    1.390   .     S
C729   C783    1.486   .     S
C729   C967    1.390   .     S
C729   C811    1.413   .     S
C730   C787    1.486   .     S
C730   C1208   1.390   1_545 S
C730   C892    1.413   1_455 S
C731   C889    1.413   1_455 S
C732   C810    1.413   .     S
C733   N762    1.384   .     A
C733   C791    1.469   .     S
C733   C735    1.416   .     A
C734   N761    1.384   .     A
C734   C736    1.416   .     A
C734   C795    1.469   .     S
C735   H799    1.082   .     S
C735   N761    1.358   .     A
C736   N762    1.358   .     A
C736   H800    1.082   .     S
C737   O769    1.300   .     A
C737   C739    1.467   .     S
C737   O847    1.300   .     S
C738   O770    1.300   .     A
C738   C740    1.467   .     S
C738   O928    1.300   1_455 S
C739   C743    1.395   .     A
C739   C745    1.394   .     A
C740   C744    1.395   .     A
C740   C746    1.394   .     A
C741   H781    1.080   .     S
C741   C743    1.391   .     A
C741   C749    1.412   .     A
C742   H782    1.080   .     S
C742   C744    1.391   .     A
C742   C750    1.413   .     A
C743   H836    1.083   .     S
C744   H915    1.083   1_455 S
C745   H780    1.074   .     S
C745   C747    1.406   .     A
C746   H779    1.074   .     S
C746   C748    1.406   .     A
C747   C749    1.424   .     A
C747   C751    1.427   .     A
C748   C752    1.426   .     A
C748   C750    1.424   .     A
C749   C5      1.410   1_556 S
C751   C32     1.415   1_556 S
Cu753  O766    1.958   .     S
Cu753  O763    1.953   .     S
Cu753  O770    1.943   .     S
Cu753  O767    1.955   .     S
Cu753  N761    2.024   .     S
Cu753  Cu914   2.694   1_455 S
Cu754  N762    2.024   .     S
Cu754  O764    1.953   .     S
Cu754  O765    1.958   .     S
Cu754  O768    1.955   .     S
Cu754  O769    1.943   .     S
Cu754  Cu833   2.694   .     S
H755   C824    1.083   .     S
H756   C903    1.083   1_455 S
O763   C881    1.293   1_455 S
O764   C802    1.293   .     S
O767   C897    1.300   1_455 S
O768   C818    1.300   .     S
C771   O772    1.223   .     D
C771   O773    1.398   .     S
O773   H774    1.014   .     S
C775   O776    1.223   .     D
C775   O777    1.399   .     S
O777   H778    1.014   .     S
C783   O785    1.399   .     S
C783   O784    1.223   .     D
O785   H786    1.014   .     S
C787   O788    1.223   .     D
C787   O789    1.399   .     S
O789   H790    1.014   .     S
C791   O793    1.398   .     S
C791   O792    1.221   .     D
O793   H794    1.014   .     S
C795   O796    1.221   .     D
C795   O797    1.398   .     S
O797   H798    1.014   .     S
C801   C812    1.446   .     S
C801   O845    1.295   .     A
C801   O923    1.293   .     S
C802   O846    1.295   .     A
C802   C811    1.446   .     S
C803   C832    1.415   .     A
C803   C805    1.396   .     A
C803   H837    1.076   .     S
C804   C806    1.396   .     A
C804   H838    1.076   .     S
C804   C831    1.415   .     A
C805   C851    1.490   .     S
C806   C855    1.490   .     S
C806   C110    1.411   1_556 S
C807   C812    1.398   .     A
C807   H839    1.085   .     S
C807   C1289   1.390   1_545 S
C808   C811    1.398   .     A
C808   H840    1.085   .     S
C808   C1050   1.390   .     S
C809   C863    1.486   .     S
C809   C1047   1.390   .     S
C809   C891    1.413   .     S
C810   C867    1.486   .     S
C810   C1288   1.390   1_545 S
C812   C890    1.413   .     S
C813   N842    1.384   .     A
C813   C871    1.469   .     S
C813   C815    1.416   .     A
C814   N841    1.384   .     A
C814   C816    1.416   .     A
C814   C875    1.469   .     S
C815   H879    1.082   .     S
C815   N841    1.358   .     A
C816   N842    1.358   .     A
C816   H880    1.082   .     S
C817   O849    1.300   .     A
C817   C819    1.467   .     S
C817   O927    1.300   .     S
C818   O850    1.300   .     A
C818   C820    1.467   .     S
C819   C823    1.395   .     A
C819   C825    1.394   .     A
C820   C824    1.395   .     A
C820   C826    1.394   .     A
C821   H861    1.080   .     S
C821   C823    1.391   .     A
C821   C829    1.412   .     A
C822   H862    1.080   .     S
C822   C824    1.391   .     A
C822   C830    1.413   .     A
C823   H916    1.083   .     S
C825   H860    1.074   .     S
C825   C827    1.406   .     A
C826   H859    1.074   .     S
C826   C828    1.406   .     A
C827   C829    1.424   .     A
C827   C831    1.427   .     A
C828   C832    1.426   .     A
C828   C830    1.424   .     A
C829   C85     1.410   1_556 S
C831   C112    1.415   1_556 S
Cu833  O846    1.958   .     S
Cu833  O843    1.953   .     S
Cu833  O850    1.943   .     S
Cu833  O847    1.955   .     S
Cu833  N841    2.024   .     S
Cu834  N842    2.024   .     S
Cu834  O844    1.953   .     S
Cu834  O845    1.958   .     S
Cu834  O848    1.955   .     S
Cu834  O849    1.943   .     S
Cu834  Cu913   2.694   .     S
H835   C904    1.083   .     S
O844   C882    1.293   .     S
O848   C898    1.300   .     S
C851   O852    1.223   .     D
C851   O853    1.398   .     S
O853   H854    1.014   .     S
C855   O856    1.223   .     D
C855   O857    1.399   .     S
O857   H858    1.014   .     S
C863   O865    1.399   .     S
C863   O864    1.223   .     D
O865   H866    1.014   .     S
C867   O868    1.223   .     D
C867   O869    1.399   .     S
O869   H870    1.014   .     S
C871   O873    1.398   .     S
C871   O872    1.221   .     D
O873   H874    1.014   .     S
C875   O876    1.221   .     D
C875   O877    1.398   .     S
O877   H878    1.014   .     S
C881   C892    1.446   .     S
C881   O925    1.295   .     A
C881   O763    1.293   1_655 S
C882   O926    1.295   .     A
C882   C891    1.446   .     S
C883   C912    1.415   .     A
C883   C885    1.396   .     A
C883   H917    1.076   .     S
C884   C886    1.396   .     A
C884   H918    1.076   .     S
C884   C911    1.415   .     A
C885   C931    1.490   .     S
C886   C935    1.490   .     S
C886   C190    1.411   1_556 S
C887   C892    1.398   .     A
C887   H919    1.085   .     S
C887   C1369   1.390   1_545 S
C888   C891    1.398   .     A
C888   H920    1.085   .     S
C888   C1130   1.390   .     S
C889   C943    1.486   .     S
C889   C1127   1.390   .     S
C889   C731    1.413   1_655 S
C890   C947    1.486   .     S
C890   C1368   1.390   1_545 S
C892   C730    1.413   1_655 S
C893   N922    1.384   .     A
C893   C951    1.469   .     S
C893   C895    1.416   .     A
C894   N921    1.384   .     A
C894   C896    1.416   .     A
C894   C955    1.469   .     S
C895   H959    1.082   .     S
C895   N921    1.358   .     A
C896   N922    1.358   .     A
C896   H960    1.082   .     S
C897   O929    1.300   .     A
C897   C899    1.467   .     S
C897   O767    1.300   1_655 S
C898   O930    1.300   .     A
C898   C900    1.467   .     S
C899   C903    1.395   .     A
C899   C905    1.394   .     A
C900   C904    1.395   .     A
C900   C906    1.394   .     A
C901   H941    1.080   .     S
C901   C903    1.391   .     A
C901   C909    1.412   .     A
C902   H942    1.080   .     S
C902   C904    1.391   .     A
C902   C910    1.413   .     A
C903   H756    1.083   1_655 S
C905   H940    1.074   .     S
C905   C907    1.406   .     A
C906   H939    1.074   .     S
C906   C908    1.406   .     A
C907   C909    1.424   .     A
C907   C911    1.427   .     A
C908   C912    1.426   .     A
C908   C910    1.424   .     A
C909   C165    1.410   1_556 S
C911   C192    1.415   1_556 S
Cu913  O926    1.958   .     S
Cu913  O923    1.953   .     S
Cu913  O930    1.943   .     S
Cu913  O927    1.955   .     S
Cu913  N921    2.024   .     S
Cu914  N922    2.024   .     S
Cu914  O924    1.953   .     S
Cu914  O925    1.958   .     S
Cu914  O928    1.955   .     S
Cu914  O929    1.943   .     S
Cu914  Cu753   2.694   1_655 S
H915   C744    1.083   1_655 S
O924   C722    1.293   1_655 S
O928   C738    1.300   1_655 S
C931   O932    1.223   .     D
C931   O933    1.398   .     S
O933   H934    1.014   .     S
C935   O936    1.223   .     D
C935   O937    1.399   .     S
O937   H938    1.014   .     S
C943   O945    1.399   .     S
C943   O944    1.223   .     D
O945   H946    1.014   .     S
C947   O948    1.223   .     D
C947   O949    1.399   .     S
O949   H950    1.014   .     S
C951   O953    1.398   .     S
C951   O952    1.221   .     D
O953   H954    1.014   .     S
C955   O956    1.221   .     D
C955   O957    1.398   .     S
O957   H958    1.014   .     S
C961   C972    1.446   .     S
C961   O1005   1.295   .     A
C961   O1083   1.293   .     S
C962   O1006   1.295   .     A
C962   C971    1.446   .     S
C962   O1164   1.293   1_455 S
C963   C992    1.415   .     A
C963   C965    1.396   .     A
C963   H997    1.076   .     S
C964   C966    1.396   .     A
C964   H998    1.076   .     S
C964   C991    1.415   .     A
C965   C1011   1.490   .     S
C966   C1015   1.490   .     S
C966   C270    1.411   1_556 S
C967   C972    1.398   .     A
C967   H999    1.085   .     S
C968   C971    1.398   .     A
C968   H1000   1.085   .     S
C968   C1210   1.390   .     S
C969   C1023   1.486   .     S
C969   C1207   1.390   .     S
C969   C1051   1.413   .     S
C970   C1027   1.486   .     S
C970   C1132   1.413   1_455 S
C971   C1129   1.413   1_455 S
C972   C1050   1.413   .     S
C973   N1002   1.384   .     A
C973   C1031   1.469   .     S
C973   C975    1.416   .     A
C974   N1001   1.384   .     A
C974   C976    1.416   .     A
C974   C1035   1.469   .     S
C975   H1039   1.082   .     S
C975   N1001   1.358   .     A
C976   N1002   1.358   .     A
C976   H1040   1.082   .     S
C977   O1009   1.300   .     A
C977   C979    1.467   .     S
C977   O1087   1.300   .     S
C978   O1010   1.300   .     A
C978   C980    1.467   .     S
C978   O1168   1.300   1_455 S
C979   C983    1.395   .     A
C979   C985    1.394   .     A
C980   C984    1.395   .     A
C980   C986    1.394   .     A
C981   H1021   1.080   .     S
C981   C983    1.391   .     A
C981   C989    1.412   .     A
C982   H1022   1.080   .     S
C982   C984    1.391   .     A
C982   C990    1.413   .     A
C983   H1076   1.083   .     S
C984   H1155   1.083   1_455 S
C985   H1020   1.074   .     S
C985   C987    1.406   .     A
C986   H1019   1.074   .     S
C986   C988    1.406   .     A
C987   C989    1.424   .     A
C987   C991    1.427   .     A
C988   C992    1.426   .     A
C988   C990    1.424   .     A
C989   C245    1.410   1_556 S
C991   C272    1.415   1_556 S
Cu993  O1006   1.958   .     S
Cu993  O1003   1.953   .     S
Cu993  O1010   1.943   .     S
Cu993  O1007   1.955   .     S
Cu993  N1001   2.024   .     S
Cu993  Cu1154  2.694   1_455 S
Cu994  N1002   2.024   .     S
Cu994  O1004   1.953   .     S
Cu994  O1005   1.958   .     S
Cu994  O1008   1.955   .     S
Cu994  O1009   1.943   .     S
Cu994  Cu1073  2.694   .     S
H995   C1064   1.083   .     S
H996   C1143   1.083   1_455 S
O1003  C1121   1.293   1_455 S
O1004  C1042   1.293   .     S
O1007  C1137   1.300   1_455 S
O1008  C1058   1.300   .     S
C1011  O1012   1.223   .     D
C1011  O1013   1.398   .     S
O1013  H1014   1.014   .     S
C1015  O1016   1.223   .     D
C1015  O1017   1.399   .     S
O1017  H1018   1.014   .     S
C1023  O1025   1.399   .     S
C1023  O1024   1.223   .     D
O1025  H1026   1.014   .     S
C1027  O1028   1.223   .     D
C1027  O1029   1.399   .     S
O1029  H1030   1.014   .     S
C1031  O1033   1.398   .     S
C1031  O1032   1.221   .     D
O1033  H1034   1.014   .     S
C1035  O1036   1.221   .     D
C1035  O1037   1.398   .     S
O1037  H1038   1.014   .     S
C1041  C1052   1.446   .     S
C1041  O1085   1.295   .     A
C1041  O1163   1.293   .     S
C1042  O1086   1.295   .     A
C1042  C1051   1.446   .     S
C1043  C1072   1.415   .     A
C1043  C1045   1.396   .     A
C1043  H1077   1.076   .     S
C1044  C1046   1.396   .     A
C1044  H1078   1.076   .     S
C1044  C1071   1.415   .     A
C1045  C1091   1.490   .     S
C1046  C1095   1.490   .     S
C1046  C350    1.411   1_556 S
C1047  C1052   1.398   .     A
C1047  H1079   1.085   .     S
C1048  C1051   1.398   .     A
C1048  H1080   1.085   .     S
C1048  C1290   1.390   .     S
C1049  C1103   1.486   .     S
C1049  C1287   1.390   .     S
C1049  C1131   1.413   .     S
C1050  C1107   1.486   .     S
C1052  C1130   1.413   .     S
C1053  N1082   1.384   .     A
C1053  C1111   1.469   .     S
C1053  C1055   1.416   .     A
C1054  N1081   1.384   .     A
C1054  C1056   1.416   .     A
C1054  C1115   1.469   .     S
C1055  H1119   1.082   .     S
C1055  N1081   1.358   .     A
C1056  N1082   1.358   .     A
C1056  H1120   1.082   .     S
C1057  O1089   1.300   .     A
C1057  C1059   1.467   .     S
C1057  O1167   1.300   .     S
C1058  O1090   1.300   .     A
C1058  C1060   1.467   .     S
C1059  C1063   1.395   .     A
C1059  C1065   1.394   .     A
C1060  C1064   1.395   .     A
C1060  C1066   1.394   .     A
C1061  H1101   1.080   .     S
C1061  C1063   1.391   .     A
C1061  C1069   1.412   .     A
C1062  H1102   1.080   .     S
C1062  C1064   1.391   .     A
C1062  C1070   1.413   .     A
C1063  H1156   1.083   .     S
C1065  H1100   1.074   .     S
C1065  C1067   1.406   .     A
C1066  H1099   1.074   .     S
C1066  C1068   1.406   .     A
C1067  C1069   1.424   .     A
C1067  C1071   1.427   .     A
C1068  C1072   1.426   .     A
C1068  C1070   1.424   .     A
C1069  C325    1.410   1_556 S
C1071  C352    1.415   1_556 S
Cu1073 O1086   1.958   .     S
Cu1073 O1083   1.953   .     S
Cu1073 O1090   1.943   .     S
Cu1073 O1087   1.955   .     S
Cu1073 N1081   2.024   .     S
Cu1074 N1082   2.024   .     S
Cu1074 O1084   1.953   .     S
Cu1074 O1085   1.958   .     S
Cu1074 O1088   1.955   .     S
Cu1074 O1089   1.943   .     S
Cu1074 Cu1153  2.694   .     S
H1075  C1144   1.083   .     S
O1084  C1122   1.293   .     S
O1088  C1138   1.300   .     S
C1091  O1092   1.223   .     D
C1091  O1093   1.398   .     S
O1093  H1094   1.014   .     S
C1095  O1096   1.223   .     D
C1095  O1097   1.399   .     S
O1097  H1098   1.014   .     S
C1103  O1105   1.399   .     S
C1103  O1104   1.223   .     D
O1105  H1106   1.014   .     S
C1107  O1108   1.223   .     D
C1107  O1109   1.399   .     S
O1109  H1110   1.014   .     S
C1111  O1113   1.398   .     S
C1111  O1112   1.221   .     D
O1113  H1114   1.014   .     S
C1115  O1116   1.221   .     D
C1115  O1117   1.398   .     S
O1117  H1118   1.014   .     S
C1121  C1132   1.446   .     S
C1121  O1165   1.295   .     A
C1121  O1003   1.293   1_655 S
C1122  O1166   1.295   .     A
C1122  C1131   1.446   .     S
C1123  C1152   1.415   .     A
C1123  C1125   1.396   .     A
C1123  H1157   1.076   .     S
C1124  C1126   1.396   .     A
C1124  H1158   1.076   .     S
C1124  C1151   1.415   .     A
C1125  C1171   1.490   .     S
C1126  C1175   1.490   .     S
C1126  C430    1.411   1_556 S
C1127  C1132   1.398   .     A
C1127  H1159   1.085   .     S
C1128  C1131   1.398   .     A
C1128  H1160   1.085   .     S
C1128  C1370   1.390   .     S
C1129  C1183   1.486   .     S
C1129  C1367   1.390   .     S
C1129  C971    1.413   1_655 S
C1130  C1187   1.486   .     S
C1132  C970    1.413   1_655 S
C1133  N1162   1.384   .     A
C1133  C1191   1.469   .     S
C1133  C1135   1.416   .     A
C1134  N1161   1.384   .     A
C1134  C1136   1.416   .     A
C1134  C1195   1.469   .     S
C1135  H1199   1.082   .     S
C1135  N1161   1.358   .     A
C1136  N1162   1.358   .     A
C1136  H1200   1.082   .     S
C1137  O1169   1.300   .     A
C1137  C1139   1.467   .     S
C1137  O1007   1.300   1_655 S
C1138  O1170   1.300   .     A
C1138  C1140   1.467   .     S
C1139  C1143   1.395   .     A
C1139  C1145   1.394   .     A
C1140  C1144   1.395   .     A
C1140  C1146   1.394   .     A
C1141  H1181   1.080   .     S
C1141  C1143   1.391   .     A
C1141  C1149   1.412   .     A
C1142  H1182   1.080   .     S
C1142  C1144   1.391   .     A
C1142  C1150   1.413   .     A
C1143  H996    1.083   1_655 S
C1145  H1180   1.074   .     S
C1145  C1147   1.406   .     A
C1146  H1179   1.074   .     S
C1146  C1148   1.406   .     A
C1147  C1149   1.424   .     A
C1147  C1151   1.427   .     A
C1148  C1152   1.426   .     A
C1148  C1150   1.424   .     A
C1149  C405    1.410   1_556 S
C1151  C432    1.415   1_556 S
Cu1153 O1166   1.958   .     S
Cu1153 O1163   1.953   .     S
Cu1153 O1170   1.943   .     S
Cu1153 O1167   1.955   .     S
Cu1153 N1161   2.024   .     S
Cu1154 N1162   2.024   .     S
Cu1154 O1164   1.953   .     S
Cu1154 O1165   1.958   .     S
Cu1154 O1168   1.955   .     S
Cu1154 O1169   1.943   .     S
Cu1154 Cu993   2.694   1_655 S
H1155  C984    1.083   1_655 S
O1164  C962    1.293   1_655 S
O1168  C978    1.300   1_655 S
C1171  O1172   1.223   .     D
C1171  O1173   1.398   .     S
O1173  H1174   1.014   .     S
C1175  O1176   1.223   .     D
C1175  O1177   1.399   .     S
O1177  H1178   1.014   .     S
C1183  O1185   1.399   .     S
C1183  O1184   1.223   .     D
O1185  H1186   1.014   .     S
C1187  O1188   1.223   .     D
C1187  O1189   1.399   .     S
O1189  H1190   1.014   .     S
C1191  O1193   1.398   .     S
C1191  O1192   1.221   .     D
O1193  H1194   1.014   .     S
C1195  O1196   1.221   .     D
C1195  O1197   1.398   .     S
O1197  H1198   1.014   .     S
C1201  C1212   1.446   .     S
C1201  O1245   1.295   .     A
C1201  O1323   1.293   .     S
C1202  O1246   1.295   .     A
C1202  C1211   1.446   .     S
C1202  O1404   1.293   1_455 S
C1203  C1232   1.415   .     A
C1203  C1205   1.396   .     A
C1203  H1237   1.076   .     S
C1204  C1206   1.396   .     A
C1204  H1238   1.076   .     S
C1204  C1231   1.415   .     A
C1205  C1251   1.490   .     S
C1206  C1255   1.490   .     S
C1206  C510    1.411   1_556 S
C1207  C1212   1.398   .     A
C1207  H1239   1.085   .     S
C1208  C1211   1.398   .     A
C1208  H1240   1.085   .     S
C1208  C730    1.390   1_565 S
C1209  C1263   1.486   .     S
C1209  C727    1.390   1_565 S
C1209  C1291   1.413   .     S
C1210  C1267   1.486   .     S
C1210  C1372   1.413   1_455 S
C1211  C1369   1.413   1_455 S
C1212  C1290   1.413   .     S
C1213  N1242   1.384   .     A
C1213  C1271   1.469   .     S
C1213  C1215   1.416   .     A
C1214  N1241   1.384   .     A
C1214  C1216   1.416   .     A
C1214  C1275   1.469   .     S
C1215  H1279   1.082   .     S
C1215  N1241   1.358   .     A
C1216  N1242   1.358   .     A
C1216  H1280   1.082   .     S
C1217  O1249   1.300   .     A
C1217  C1219   1.467   .     S
C1217  O1327   1.300   .     S
C1218  O1250   1.300   .     A
C1218  C1220   1.467   .     S
C1218  O1408   1.300   1_455 S
C1219  C1223   1.395   .     A
C1219  C1225   1.394   .     A
C1220  C1224   1.395   .     A
C1220  C1226   1.394   .     A
C1221  H1261   1.080   .     S
C1221  C1223   1.391   .     A
C1221  C1229   1.412   .     A
C1222  H1262   1.080   .     S
C1222  C1224   1.391   .     A
C1222  C1230   1.413   .     A
C1223  H1316   1.083   .     S
C1224  H1395   1.083   1_455 S
C1225  H1260   1.074   .     S
C1225  C1227   1.406   .     A
C1226  H1259   1.074   .     S
C1226  C1228   1.406   .     A
C1227  C1229   1.424   .     A
C1227  C1231   1.427   .     A
C1228  C1232   1.426   .     A
C1228  C1230   1.424   .     A
C1229  C485    1.410   1_556 S
C1231  C512    1.415   1_556 S
Cu1233 O1246   1.958   .     S
Cu1233 O1243   1.953   .     S
Cu1233 O1250   1.943   .     S
Cu1233 O1247   1.955   .     S
Cu1233 N1241   2.024   .     S
Cu1233 Cu1394  2.694   1_455 S
Cu1234 N1242   2.024   .     S
Cu1234 O1244   1.953   .     S
Cu1234 O1245   1.958   .     S
Cu1234 O1248   1.955   .     S
Cu1234 O1249   1.943   .     S
Cu1234 Cu1313  2.694   .     S
H1235  C1304   1.083   .     S
H1236  C1383   1.083   1_455 S
O1243  C1361   1.293   1_455 S
O1244  C1282   1.293   .     S
O1247  C1377   1.300   1_455 S
O1248  C1298   1.300   .     S
C1251  O1252   1.223   .     D
C1251  O1253   1.398   .     S
O1253  H1254   1.014   .     S
C1255  O1256   1.223   .     D
C1255  O1257   1.399   .     S
O1257  H1258   1.014   .     S
C1263  O1265   1.399   .     S
C1263  O1264   1.223   .     D
O1265  H1266   1.014   .     S
C1267  O1268   1.223   .     D
C1267  O1269   1.399   .     S
O1269  H1270   1.014   .     S
C1271  O1273   1.398   .     S
C1271  O1272   1.221   .     D
O1273  H1274   1.014   .     S
C1275  O1276   1.221   .     D
C1275  O1277   1.398   .     S
O1277  H1278   1.014   .     S
C1281  C1292   1.446   .     S
C1281  O1325   1.295   .     A
C1281  O1403   1.293   .     S
C1282  O1326   1.295   .     A
C1282  C1291   1.446   .     S
C1283  C1312   1.415   .     A
C1283  C1285   1.396   .     A
C1283  H1317   1.076   .     S
C1284  C1286   1.396   .     A
C1284  H1318   1.076   .     S
C1284  C1311   1.415   .     A
C1285  C1331   1.490   .     S
C1286  C1335   1.490   .     S
C1286  C590    1.411   1_556 S
C1287  C1292   1.398   .     A
C1287  H1319   1.085   .     S
C1288  C1291   1.398   .     A
C1288  H1320   1.085   .     S
C1288  C810    1.390   1_565 S
C1289  C1343   1.486   .     S
C1289  C807    1.390   1_565 S
C1289  C1371   1.413   .     S
C1290  C1347   1.486   .     S
C1292  C1370   1.413   .     S
C1293  N1322   1.384   .     A
C1293  C1351   1.469   .     S
C1293  C1295   1.416   .     A
C1294  N1321   1.384   .     A
C1294  C1296   1.416   .     A
C1294  C1355   1.469   .     S
C1295  H1359   1.082   .     S
C1295  N1321   1.358   .     A
C1296  N1322   1.358   .     A
C1296  H1360   1.082   .     S
C1297  O1329   1.300   .     A
C1297  C1299   1.467   .     S
C1297  O1407   1.300   .     S
C1298  O1330   1.300   .     A
C1298  C1300   1.467   .     S
C1299  C1303   1.395   .     A
C1299  C1305   1.394   .     A
C1300  C1304   1.395   .     A
C1300  C1306   1.394   .     A
C1301  H1341   1.080   .     S
C1301  C1303   1.391   .     A
C1301  C1309   1.412   .     A
C1302  H1342   1.080   .     S
C1302  C1304   1.391   .     A
C1302  C1310   1.413   .     A
C1303  H1396   1.083   .     S
C1305  H1340   1.074   .     S
C1305  C1307   1.406   .     A
C1306  H1339   1.074   .     S
C1306  C1308   1.406   .     A
C1307  C1309   1.424   .     A
C1307  C1311   1.427   .     A
C1308  C1312   1.426   .     A
C1308  C1310   1.424   .     A
C1309  C565    1.410   1_556 S
C1311  C592    1.415   1_556 S
Cu1313 O1326   1.958   .     S
Cu1313 O1323   1.953   .     S
Cu1313 O1330   1.943   .     S
Cu1313 O1327   1.955   .     S
Cu1313 N1321   2.024   .     S
Cu1314 N1322   2.024   .     S
Cu1314 O1324   1.953   .     S
Cu1314 O1325   1.958   .     S
Cu1314 O1328   1.955   .     S
Cu1314 O1329   1.943   .     S
Cu1314 Cu1393  2.694   .     S
H1315  C1384   1.083   .     S
O1324  C1362   1.293   .     S
O1328  C1378   1.300   .     S
C1331  O1332   1.223   .     D
C1331  O1333   1.398   .     S
O1333  H1334   1.014   .     S
C1335  O1336   1.223   .     D
C1335  O1337   1.399   .     S
O1337  H1338   1.014   .     S
C1343  O1345   1.399   .     S
C1343  O1344   1.223   .     D
O1345  H1346   1.014   .     S
C1347  O1348   1.223   .     D
C1347  O1349   1.399   .     S
O1349  H1350   1.014   .     S
C1351  O1353   1.398   .     S
C1351  O1352   1.221   .     D
O1353  H1354   1.014   .     S
C1355  O1356   1.221   .     D
C1355  O1357   1.398   .     S
O1357  H1358   1.014   .     S
C1361  C1372   1.446   .     S
C1361  O1405   1.295   .     A
C1361  O1243   1.293   1_655 S
C1362  O1406   1.295   .     A
C1362  C1371   1.446   .     S
C1363  C1392   1.415   .     A
C1363  C1365   1.396   .     A
C1363  H1397   1.076   .     S
C1364  C1366   1.396   .     A
C1364  H1398   1.076   .     S
C1364  C1391   1.415   .     A
C1365  C1411   1.490   .     S
C1366  C1415   1.490   .     S
C1366  C670    1.411   1_556 S
C1367  C1372   1.398   .     A
C1367  H1399   1.085   .     S
C1368  C1371   1.398   .     A
C1368  H1400   1.085   .     S
C1368  C890    1.390   1_565 S
C1369  C1423   1.486   .     S
C1369  C887    1.390   1_565 S
C1369  C1211   1.413   1_655 S
C1370  C1427   1.486   .     S
C1372  C1210   1.413   1_655 S
C1373  N1402   1.384   .     A
C1373  C1431   1.469   .     S
C1373  C1375   1.416   .     A
C1374  N1401   1.384   .     A
C1374  C1376   1.416   .     A
C1374  C1435   1.469   .     S
C1375  H1439   1.082   .     S
C1375  N1401   1.358   .     A
C1376  N1402   1.358   .     A
C1376  H1440   1.082   .     S
C1377  O1409   1.300   .     A
C1377  C1379   1.467   .     S
C1377  O1247   1.300   1_655 S
C1378  O1410   1.300   .     A
C1378  C1380   1.467   .     S
C1379  C1383   1.395   .     A
C1379  C1385   1.394   .     A
C1380  C1384   1.395   .     A
C1380  C1386   1.394   .     A
C1381  H1421   1.080   .     S
C1381  C1383   1.391   .     A
C1381  C1389   1.412   .     A
C1382  H1422   1.080   .     S
C1382  C1384   1.391   .     A
C1382  C1390   1.413   .     A
C1383  H1236   1.083   1_655 S
C1385  H1420   1.074   .     S
C1385  C1387   1.406   .     A
C1386  H1419   1.074   .     S
C1386  C1388   1.406   .     A
C1387  C1389   1.424   .     A
C1387  C1391   1.427   .     A
C1388  C1392   1.426   .     A
C1388  C1390   1.424   .     A
C1389  C645    1.410   1_556 S
C1391  C672    1.415   1_556 S
Cu1393 O1406   1.958   .     S
Cu1393 O1403   1.953   .     S
Cu1393 O1410   1.943   .     S
Cu1393 O1407   1.955   .     S
Cu1393 N1401   2.024   .     S
Cu1394 N1402   2.024   .     S
Cu1394 O1404   1.953   .     S
Cu1394 O1405   1.958   .     S
Cu1394 O1408   1.955   .     S
Cu1394 O1409   1.943   .     S
Cu1394 Cu1233  2.694   1_655 S
H1395  C1224   1.083   1_655 S
O1404  C1202   1.293   1_655 S
O1408  C1218   1.300   1_655 S
C1411  O1412   1.223   .     D
C1411  O1413   1.398   .     S
O1413  H1414   1.014   .     S
C1415  O1416   1.223   .     D
C1415  O1417   1.399   .     S
O1417  H1418   1.014   .     S
C1423  O1425   1.399   .     S
C1423  O1424   1.223   .     D
O1425  H1426   1.014   .     S
C1427  O1428   1.223   .     D
C1427  O1429   1.399   .     S
O1429  H1430   1.014   .     S
C1431  O1433   1.398   .     S
C1431  O1432   1.221   .     D
O1433  H1434   1.014   .     S
C1435  O1436   1.221   .     D
C1435  O1437   1.398   .     S
O1437  H1438   1.014   .     S
