data_str_m1_o1_o2_pcu_sym.47
_audit_creation_date              2020-01-03
_audit_creation_method            'Materials Studio'
_symmetry_space_group_name_H-M    'P1'
_symmetry_Int_Tables_number       1
_symmetry_cell_setting            triclinic
loop_
_symmetry_equiv_pos_as_xyz
  x,y,z
_cell_length_a                    36.7619
_cell_length_b                    36.6406
_cell_length_c                    34.7043
_cell_angle_alpha                 90.0598
_cell_angle_beta                  89.9178
_cell_angle_gamma                 90.1342
loop_
_atom_site_label
_atom_site_type_symbol
_atom_site_fract_x
_atom_site_fract_y
_atom_site_fract_z
_atom_site_U_iso_or_equiv
_atom_site_adp_type
_atom_site_occupancy
C1     C     0.21988   0.01574   0.04164   0.00000  Uiso   1.00
C2     C     0.02760   0.26815   0.45848   0.00000  Uiso   1.00
C3     C     0.34865   0.40264   0.74870   0.00000  Uiso   1.00
C4     C     0.40224   0.15182   0.25043   0.00000  Uiso   1.00
C5     C     0.09807   0.34847   0.74977   0.00000  Uiso   1.00
C6     C     0.34791   0.40139   0.24958   0.00000  Uiso   1.00
C7     C     0.15239   0.09834   0.75110   0.00000  Uiso   1.00
C8     C     0.09839   0.15182   0.75041   0.00000  Uiso   1.00
C9     C     0.40170   0.34762   0.24966   0.00000  Uiso   1.00
C10    C     0.15212   0.40194   0.74994   0.00000  Uiso   1.00
C11    C     0.34899   0.09753   0.25105   0.00000  Uiso   1.00
C12    C     0.40223   0.34868   0.74930   0.00000  Uiso   1.00
C13    C     0.22706   0.47334   0.54259   0.00000  Uiso   1.00
C14    C     0.09773   0.15179   0.25066   0.00000  Uiso   1.00
C15    C     0.34756   0.09831   0.75063   0.00000  Uiso   1.00
C16    C     0.15207   0.40136   0.24949   0.00000  Uiso   1.00
C17    C     0.25050   0.00220   0.10211   0.00000  Uiso   1.00
C18    C     0.25013   0.00082   0.89752   0.00000  Uiso   1.00
C19    C     0.00011   0.25032   0.10245   0.00000  Uiso   1.00
C20    C     0.00001   0.25050   0.89787   0.00000  Uiso   1.00
C21    C     0.49955   0.24914   0.60219   0.00000  Uiso   1.00
C22    C     0.49952   0.25071   0.39760   0.00000  Uiso   1.00
C23    C     0.24870   0.00005   0.60251   0.00000  Uiso   1.00
C24    C     0.23826   0.03221   0.45846   0.00000  Uiso   1.00
C25    C     0.24875   0.49993   0.39798   0.00000  Uiso   1.00
C26    C     0.19547   0.06459   0.00839   0.00000  Uiso   1.00
C27    C     0.20177   0.09331   0.04003   0.00000  Uiso   1.00
C28    C     0.20681   0.13128   0.02280   0.00000  Uiso   1.00
C29    C     0.29601   0.07381   0.98490   0.00000  Uiso   1.00
C30    C     0.32984   0.09675   0.99312   0.00000  Uiso   1.00
C31    C     0.32005   0.13360   0.01073   0.00000  Uiso   1.00
C32    C     0.42562   0.21397   0.00854   0.00000  Uiso   1.00
C33    C     0.39712   0.21820   0.04044   0.00000  Uiso   1.00
C34    C     0.36157   0.23328   0.02441   0.00000  Uiso   1.00
C35    C     0.02981   0.23767   0.54111   0.00000  Uiso   1.00
C36    C     0.45199   0.32179   0.98841   0.00000  Uiso   1.00
C37    C     0.42699   0.33046   0.95422   0.00000  Uiso   1.00
C38    C     0.38979   0.34334   0.96800   0.00000  Uiso   1.00
C39    C     0.31019   0.44624   0.00907   0.00000  Uiso   1.00
C40    C     0.33013   0.42015   0.03605   0.00000  Uiso   1.00
C41    C     0.32028   0.38047   0.02763   0.00000  Uiso   1.00
C42    C     0.20069   0.43595   0.99450   0.00000  Uiso   1.00
C43    C     0.20907   0.40646   0.96433   0.00000  Uiso   1.00
C44    C     0.21169   0.36889   0.98312   0.00000  Uiso   1.00
C45    C     0.07313   0.29005   0.00825   0.00000  Uiso   1.00
C46    C     0.47031   0.23415   0.45792   0.00000  Uiso   1.00
C47    C     0.10237   0.28456   0.03905   0.00000  Uiso   1.00
C48    C     0.13790   0.27136   0.02105   0.00000  Uiso   1.00
C49    C     0.05257   0.18256   0.98161   0.00000  Uiso   1.00
C50    C     0.06075   0.14501   0.99866   0.00000  Uiso   1.00
C51    C     0.10161   0.13884   0.00270   0.00000  Uiso   1.00
C52    C     0.43951   0.31055   0.51611   0.00000  Uiso   1.00
C53    C     0.42863   0.33372   0.55118   0.00000  Uiso   1.00
C54    C     0.43608   0.37415   0.54420   0.00000  Uiso   1.00
C55    C     0.04874   0.31770   0.49369   0.00000  Uiso   1.00
C56    C     0.04101   0.34702   0.46324   0.00000  Uiso   1.00
C57    C     0.26721   0.02672   0.54153   0.00000  Uiso   1.00
C58    C     0.03905   0.38482   0.48164   0.00000  Uiso   1.00
C59    C     0.17409   0.45906   0.50970   0.00000  Uiso   1.00
C60    C     0.14665   0.46816   0.54156   0.00000  Uiso   1.00
C61    C     0.10963   0.47777   0.52453   0.00000  Uiso   1.00
C62    C     0.19480   0.06744   0.48859   0.00000  Uiso   1.00
C63    C     0.17041   0.07834   0.45467   0.00000  Uiso   1.00
C64    C     0.13232   0.08843   0.46844   0.00000  Uiso   1.00
C65    C     0.05340   0.18841   0.50822   0.00000  Uiso   1.00
C66    C     0.05016   0.16028   0.54090   0.00000  Uiso   1.00
C67    C     0.04362   0.12201   0.52500   0.00000  Uiso   1.00
C68    C     0.25515   0.46789   0.45903   0.00000  Uiso   1.00
C69    C     0.45212   0.18043   0.48569   0.00000  Uiso   1.00
C70    C     0.41779   0.15708   0.48918   0.00000  Uiso   1.00
C71    C     0.42575   0.12022   0.50771   0.00000  Uiso   1.00
C72    C     0.31984   0.03847   0.50724   0.00000  Uiso   1.00
C73    C     0.34910   0.03426   0.53830   0.00000  Uiso   1.00
C74    C     0.38403   0.01855   0.52126   0.00000  Uiso   1.00
C75    C     0.30083   0.43312   0.48420   0.00000  Uiso   1.00
C76    C     0.30941   0.39401   0.49625   0.00000  Uiso   1.00
C77    C     0.34982   0.38902   0.50405   0.00000  Uiso   1.00
C78    C     0.10871   0.45052   0.18941   0.00000  Uiso   1.00
C79    C     0.21825   0.00959   0.08143   0.00000  Uiso   1.00
C80    C     0.07294   0.44445   0.16797   0.00000  Uiso   1.00
C81    C     0.04961   0.47880   0.16829   0.00000  Uiso   1.00
C82    C     0.32709   0.10466   0.83516   0.00000  Uiso   1.00
C83    C     0.33711   0.12489   0.87220   0.00000  Uiso   1.00
C84    C     0.30377   0.14234   0.89078   0.00000  Uiso   1.00
C85    C     0.03197   0.10007   0.25300   0.00000  Uiso   1.00
C86    C     0.03514   0.06039   0.26638   0.00000  Uiso   1.00
C87    C     0.00646   0.05166   0.29689   0.00000  Uiso   1.00
C88    C     0.43575   0.37666   0.82788   0.00000  Uiso   1.00
C89    C     0.42528   0.40779   0.85548   0.00000  Uiso   1.00
C90    C     0.28015   0.01572   0.91732   0.00000  Uiso   1.00
C91    C     0.38514   0.40638   0.86693   0.00000  Uiso   1.00
C92    C     0.39692   0.04599   0.19984   0.00000  Uiso   1.00
C93    C     0.43681   0.05479   0.19091   0.00000  Uiso   1.00
C94    C     0.46057   0.02082   0.19326   0.00000  Uiso   1.00
C95    C     0.17084   0.39412   0.83530   0.00000  Uiso   1.00
C96    C     0.15794   0.36669   0.86564   0.00000  Uiso   1.00
C97    C     0.18953   0.34408   0.88098   0.00000  Uiso   1.00
C98    C     0.46205   0.41022   0.25196   0.00000  Uiso   1.00
C99    C     0.00078   0.41833   0.23880   0.00000  Uiso   1.00
C100   C     0.02186   0.43949   0.26931   0.00000  Uiso   1.00
C101   C     0.48330   0.22184   0.08171   0.00000  Uiso   1.00
C102   C     0.06545   0.12563   0.83002   0.00000  Uiso   1.00
C103   C     0.08021   0.09604   0.85689   0.00000  Uiso   1.00
C104   C     0.07873   0.10832   0.89888   0.00000  Uiso   1.00
C105   C     0.09961   0.03242   0.75257   0.00000  Uiso   1.00
C106   C     0.05841   0.02681   0.75194   0.00000  Uiso   1.00
C107   C     0.04779   0.49666   0.72370   0.00000  Uiso   1.00
C108   C     0.37767   0.43236   0.17017   0.00000  Uiso   1.00
C109   C     0.41015   0.41912   0.14612   0.00000  Uiso   1.00
C110   C     0.40039   0.41580   0.10363   0.00000  Uiso   1.00
C111   C     0.04919   0.39439   0.80699   0.00000  Uiso   1.00
C112   C     0.27871   0.01982   0.95729   0.00000  Uiso   1.00
C113   C     0.49739   0.28392   0.91812   0.00000  Uiso   1.00
C114   C     0.05694   0.43237   0.82360   0.00000  Uiso   1.00
C115   C     0.02249   0.45542   0.82542   0.00000  Uiso   1.00
C116   C     0.39378   0.16819   0.16459   0.00000  Uiso   1.00
C117   C     0.36667   0.15371   0.13471   0.00000  Uiso   1.00
C118   C     0.34099   0.18374   0.12123   0.00000  Uiso   1.00
C119   C     0.40139   0.46779   0.74653   0.00000  Uiso   1.00
C120   C     0.43554   0.48950   0.75674   0.00000  Uiso   1.00
C121   C     0.44060   0.02232   0.73016   0.00000  Uiso   1.00
C122   C     0.12629   0.06885   0.17015   0.00000  Uiso   1.00
C123   C     0.09699   0.08547   0.14423   0.00000  Uiso   1.00
C124   C     0.28332   0.49718   0.08142   0.00000  Uiso   1.00
C125   C     0.11184   0.09380   0.10416   0.00000  Uiso   1.00
C126   C     0.44960   0.10819   0.81062   0.00000  Uiso   1.00
C127   C     0.44283   0.07164   0.83066   0.00000  Uiso   1.00
C128   C     0.47755   0.04901   0.83287   0.00000  Uiso   1.00
C129   C     0.10811   0.32805   0.16532   0.00000  Uiso   1.00
C130   C     0.13583   0.34090   0.13525   0.00000  Uiso   1.00
C131   C     0.15942   0.30932   0.12130   0.00000  Uiso   1.00
C132   C     0.35305   0.20333   0.69797   0.00000  Uiso   1.00
C133   C     0.31313   0.19403   0.68935   0.00000  Uiso   1.00
C134   C     0.28927   0.22803   0.69045   0.00000  Uiso   1.00
C135   C     0.22017   0.48716   0.91850   0.00000  Uiso   1.00
C136   C     0.07952   0.35733   0.33526   0.00000  Uiso   1.00
C137   C     0.09344   0.38407   0.36582   0.00000  Uiso   1.00
C138   C     0.06311   0.40881   0.38042   0.00000  Uiso   1.00
C139   C     0.28808   0.34103   0.74826   0.00000  Uiso   1.00
C140   C     0.24949   0.33353   0.73437   0.00000  Uiso   1.00
C141   C     0.22720   0.31374   0.76500   0.00000  Uiso   1.00
C142   C     0.18497   0.12583   0.32956   0.00000  Uiso   1.00
C143   C     0.17461   0.15702   0.35719   0.00000  Uiso   1.00
C144   C     0.13452   0.15570   0.36880   0.00000  Uiso   1.00
C145   C     0.14058   0.29985   0.68852   0.00000  Uiso   1.00
C146   C     0.01674   0.27933   0.08234   0.00000  Uiso   1.00
C147   C     0.17605   0.30562   0.66632   0.00000  Uiso   1.00
C148   C     0.19944   0.27128   0.66678   0.00000  Uiso   1.00
C149   C     0.41998   0.14580   0.33652   0.00000  Uiso   1.00
C150   C     0.40661   0.12282   0.37049   0.00000  Uiso   1.00
C151   C     0.43834   0.10633   0.39272   0.00000  Uiso   1.00
C152   C     0.21790   0.15039   0.75293   0.00000  Uiso   1.00
C153   C     0.21521   0.19059   0.76469   0.00000  Uiso   1.00
C154   C     0.24388   0.20013   0.79487   0.00000  Uiso   1.00
C155   C     0.31269   0.37157   0.32668   0.00000  Uiso   1.00
C156   C     0.32527   0.34010   0.35235   0.00000  Uiso   1.00
C157   C     0.00299   0.21766   0.91889   0.00000  Uiso   1.00
C158   C     0.32172   0.35005   0.39488   0.00000  Uiso   1.00
C159   C     0.34839   0.28268   0.24524   0.00000  Uiso   1.00
C160   C     0.31460   0.26030   0.25534   0.00000  Uiso   1.00
C161   C     0.31016   0.22752   0.22857   0.00000  Uiso   1.00
C162   C     0.12575   0.18061   0.66952   0.00000  Uiso   1.00
C163   C     0.15624   0.16354   0.64522   0.00000  Uiso   1.00
C164   C     0.14436   0.15749   0.60363   0.00000  Uiso   1.00
C165   C     0.29969   0.14289   0.30967   0.00000  Uiso   1.00
C166   C     0.30625   0.17918   0.33034   0.00000  Uiso   1.00
C167   C     0.27181   0.20229   0.33160   0.00000  Uiso   1.00
C168   C     0.46670   0.25499   0.58194   0.00000  Uiso   1.00
C169   C     0.14103   0.42283   0.66597   0.00000  Uiso   1.00
C170   C     0.11210   0.41039   0.63704   0.00000  Uiso   1.00
C171   C     0.08830   0.44227   0.62444   0.00000  Uiso   1.00
C172   C     0.15024   0.21762   0.24947   0.00000  Uiso   1.00
C173   C     0.19133   0.21796   0.24238   0.00000  Uiso   1.00
C174   C     0.20189   0.24762   0.21359   0.00000  Uiso   1.00
C175   C     0.37452   0.31495   0.66981   0.00000  Uiso   1.00
C176   C     0.34268   0.32351   0.64251   0.00000  Uiso   1.00
C177   C     0.34283   0.36327   0.62920   0.00000  Uiso   1.00
C178   C     0.20048   0.35078   0.30259   0.00000  Uiso   1.00
C179   C     0.02930   0.26516   0.41823   0.00000  Uiso   1.00
C180   C     0.18924   0.31241   0.31583   0.00000  Uiso   1.00
C181   C     0.22199   0.28725   0.31967   0.00000  Uiso   1.00
C182   C     0.35615   0.08093   0.66505   0.00000  Uiso   1.00
C183   C     0.38185   0.09488   0.63357   0.00000  Uiso   1.00
C184   C     0.40668   0.06455   0.61899   0.00000  Uiso   1.00
C185   C     0.16450   0.47974   0.09257   0.00000  Uiso   1.00
C186   C     0.12630   0.48983   0.07875   0.00000  Uiso   1.00
C187   C     0.10674   0.45725   0.06065   0.00000  Uiso   1.00
C188   C     0.33984   0.00609   0.90105   0.00000  Uiso   1.00
C189   C     0.37467   0.02876   0.90344   0.00000  Uiso   1.00
C190   C     0.23160   0.47122   0.58255   0.00000  Uiso   1.00
C191   C     0.40842   0.00470   0.90517   0.00000  Uiso   1.00
C192   C     0.49123   0.16154   0.09385   0.00000  Uiso   1.00
C193   C     0.47761   0.12880   0.11695   0.00000  Uiso   1.00
C194   C     0.49861   0.09445   0.10588   0.00000  Uiso   1.00
C195   C     0.03132   0.33469   0.90353   0.00000  Uiso   1.00
C196   C     0.02525   0.37442   0.91555   0.00000  Uiso   1.00
C197   C     0.06079   0.39253   0.92790   0.00000  Uiso   1.00
C198   C     0.33507   0.02813   0.09784   0.00000  Uiso   1.00
C199   C     0.37564   0.02138   0.09126   0.00000  Uiso   1.00
C200   C     0.39698   0.05709   0.08873   0.00000  Uiso   1.00
C201   C     0.24337   0.03287   0.41848   0.00000  Uiso   1.00
C202   C     0.16058   0.49609   0.90181   0.00000  Uiso   1.00
C203   C     0.12551   0.47367   0.90188   0.00000  Uiso   1.00
C204   C     0.09205   0.49819   0.90065   0.00000  Uiso   1.00
C205   C     0.00963   0.33945   0.09844   0.00000  Uiso   1.00
C206   C     0.03324   0.37367   0.09541   0.00000  Uiso   1.00
C207   C     0.00994   0.40802   0.09319   0.00000  Uiso   1.00
C208   C     0.46658   0.16874   0.90497   0.00000  Uiso   1.00
C209   C     0.46949   0.12987   0.92071   0.00000  Uiso   1.00
C210   C     0.43232   0.11499   0.93264   0.00000  Uiso   1.00
C211   C     0.41741   0.22224   0.60270   0.00000  Uiso   1.00
C212   C     0.03175   0.24274   0.58104   0.00000  Uiso   1.00
C213   C     0.38149   0.22211   0.58055   0.00000  Uiso   1.00
C214   C     0.36279   0.18497   0.58296   0.00000  Uiso   1.00
C215   C     0.08924   0.25666   0.40187   0.00000  Uiso   1.00
C216   C     0.12349   0.27984   0.40703   0.00000  Uiso   1.00
C217   C     0.15779   0.25650   0.40558   0.00000  Uiso   1.00
C218   C     0.23928   0.41128   0.59930   0.00000  Uiso   1.00
C219   C     0.21609   0.37704   0.59367   0.00000  Uiso   1.00
C220   C     0.23949   0.34268   0.59382   0.00000  Uiso   1.00
C221   C     0.27712   0.08400   0.40541   0.00000  Uiso   1.00
C222   C     0.27076   0.12319   0.41916   0.00000  Uiso   1.00
C223   C     0.47906   0.22500   0.04174   0.00000  Uiso   1.00
C224   C     0.46919   0.23683   0.41779   0.00000  Uiso   1.00
C225   C     0.30552   0.14008   0.43546   0.00000  Uiso   1.00
C226   C     0.08589   0.27207   0.59151   0.00000  Uiso   1.00
C227   C     0.12382   0.26150   0.57712   0.00000  Uiso   1.00
C228   C     0.14327   0.29359   0.55794   0.00000  Uiso   1.00
C229   C     0.40932   0.24540   0.40181   0.00000  Uiso   1.00
C230   C     0.37470   0.22227   0.40213   0.00000  Uiso   1.00
C231   C     0.34074   0.24587   0.40534   0.00000  Uiso   1.00
C232   C     0.25750   0.08920   0.59730   0.00000  Uiso   1.00
C233   C     0.28074   0.12380   0.59764   0.00000  Uiso   1.00
C234   C     0.25720   0.15805   0.59744   0.00000  Uiso   1.00
C235   C     0.26446   0.02904   0.58165   0.00000  Uiso   1.00
C236   C     0.22614   0.41554   0.39439   0.00000  Uiso   1.00
C237   C     0.21760   0.38955   0.42787   0.00000  Uiso   1.00
C238   C     0.19206   0.35890   0.41565   0.00000  Uiso   1.00
C239   C     0.25312   0.46701   0.41883   0.00000  Uiso   1.00
C240   C     0.25099   0.00442   0.02099   0.00000  Uiso   1.00
C241   C     0.25051   0.00293   0.97851   0.00000  Uiso   1.00
C242   C     0.49973   0.25147   0.02149   0.00000  Uiso   1.00
C243   C     0.49989   0.25148   0.97898   0.00000  Uiso   1.00
C244   C     0.49863   0.24964   0.52112   0.00000  Uiso   1.00
C245   C     0.49864   0.25120   0.47866   0.00000  Uiso   1.00
C246   C     0.24649   0.00018   0.52156   0.00000  Uiso   1.00
C247   C     0.49329   0.28391   0.95822   0.00000  Uiso   1.00
C248   C     0.24602  -0.00000   0.47907   0.00000  Uiso   1.00
C249   C     0.24996  -0.00000   0.35536   0.00000  Uiso   1.00
C250   C     0.24980   0.00000   0.64482   0.00000  Uiso   1.00
C251   C     0.49993   0.25018   0.35519   0.00000  Uiso   1.00
C252   C     0.49996   0.24978   0.64473   0.00000  Uiso   1.00
C253   C     0.49996   0.25007   0.85531   0.00000  Uiso   1.00
C254   C     0.00007   0.25003   0.14480   0.00000  Uiso   1.00
C255   C     0.25000   0.00003   0.85516   0.00000  Uiso   1.00
C256   C     0.25009   0.00040   0.14470   0.00000  Uiso   1.00
C257   C     0.17993   0.07013   0.25006   0.00000  Uiso   1.00
C258   C     0.28239   0.49350   0.04134   0.00000  Uiso   1.00
C259   C     0.32017   0.43017   0.74966   0.00000  Uiso   1.00
C260   C     0.43004   0.18001   0.25003   0.00000  Uiso   1.00
C261   C     0.07000   0.32017   0.74992   0.00000  Uiso   1.00
C262   C     0.31996   0.42978   0.24984   0.00000  Uiso   1.00
C263   C     0.18010   0.07006   0.75020   0.00000  Uiso   1.00
C264   C     0.06988   0.32003   0.24999   0.00000  Uiso   1.00
C265   C     0.42966   0.18017   0.75038   0.00000  Uiso   1.00
C266   C     0.18006   0.43001   0.74997   0.00000  Uiso   1.00
C267   C     0.32032   0.06984   0.25040   0.00000  Uiso   1.00
C268   C     0.43004   0.32019   0.74988   0.00000  Uiso   1.00
C269   C     0.22174   0.48523   0.95879   0.00000  Uiso   1.00
C270   C     0.06992   0.17997   0.25008   0.00000  Uiso   1.00
C271   C     0.31987   0.07002   0.75011   0.00000  Uiso   1.00
C272   C     0.18009   0.42974   0.24979   0.00000  Uiso   1.00
C273   C     0.07007   0.17987   0.75000   0.00000  Uiso   1.00
C274   C     0.42995   0.31991   0.24993   0.00000  Uiso   1.00
C275   C     0.12867   0.39759   0.21740   0.00000  Uiso   1.00
C276   C     0.36734   0.10532   0.78452   0.00000  Uiso   1.00
C277   C     0.09006   0.11683   0.23569   0.00000  Uiso   1.00
C278   C     0.40807   0.38213   0.76887   0.00000  Uiso   1.00
C279   C     0.37337   0.10050   0.21968   0.00000  Uiso   1.00
C280   C     0.02044   0.27746   0.04229   0.00000  Uiso   1.00
C281   C     0.13219   0.39492   0.78369   0.00000  Uiso   1.00
C282   C     0.40938   0.38244   0.23483   0.00000  Uiso   1.00
C283   C     0.09283   0.11893   0.77103   0.00000  Uiso   1.00
C284   C     0.11792   0.09086   0.76727   0.00000  Uiso   1.00
C285   C     0.38135   0.40748   0.23044   0.00000  Uiso   1.00
C286   C     0.10218   0.37186   0.78192   0.00000  Uiso   1.00
C287   C     0.39590   0.13085   0.21722   0.00000  Uiso   1.00
C288   C     0.38317   0.41027   0.76435   0.00000  Uiso   1.00
C289   C     0.11849   0.09236   0.23067   0.00000  Uiso   1.00
C290   C     0.39695   0.12903   0.78313   0.00000  Uiso   1.00
C291   C     0.00713   0.21882   0.95892   0.00000  Uiso   1.00
C292   C     0.10503   0.36788   0.21595   0.00000  Uiso   1.00
C293   C     0.37664   0.14934   0.71957   0.00000  Uiso   1.00
C294   C     0.11782   0.35505   0.28340   0.00000  Uiso   1.00
C295   C     0.34145   0.36815   0.73259   0.00000  Uiso   1.00
C296   C     0.15729   0.13141   0.27058   0.00000  Uiso   1.00
C297   C     0.12108   0.35266   0.71735   0.00000  Uiso   1.00
C298   C     0.38203   0.14525   0.28418   0.00000  Uiso   1.00
C299   C     0.15999   0.13311   0.73570   0.00000  Uiso   1.00
C300   C     0.34162   0.36767   0.26836   0.00000  Uiso   1.00
C301   C     0.36686   0.33972   0.26439   0.00000  Uiso   1.00
C302   C     0.46753   0.26038   0.54215   0.00000  Uiso   1.00
C303   C     0.13156   0.15753   0.73048   0.00000  Uiso   1.00
C304   C     0.35249   0.12146   0.28284   0.00000  Uiso   1.00
C305   C     0.14462   0.38243   0.71595   0.00000  Uiso   1.00
C306   C     0.13241   0.15957   0.26610   0.00000  Uiso   1.00
C307   C     0.36940   0.34295   0.72885   0.00000  Uiso   1.00
C308   C     0.14828   0.37747   0.28121   0.00000  Uiso   1.00
C309   C     0.35416   0.11894   0.71731   0.00000  Uiso   1.00
C310   C     0.09770   0.34818   0.24985   0.00000  Uiso   1.00
C311   C     0.40085   0.15258   0.75107   0.00000  Uiso   1.00
C312   C     0.15165   0.09823   0.25048   0.00000  Uiso   1.00
H313   H     0.17081   0.07249   0.99195   0.00000  Uiso   1.00
H314   H     0.34765   0.08182   0.01345   0.00000  Uiso   1.00
H315   H     0.31540   0.01230   0.49187   0.00000  Uiso   1.00
H316   H     0.35490   0.06140   0.55122   0.00000  Uiso   1.00
H317   H     0.33932   0.01566   0.56136   0.00000  Uiso   1.00
H318   H     0.37885   0.49086   0.50936   0.00000  Uiso   1.00
H319   H     0.40507   0.01641   0.54403   0.00000  Uiso   1.00
H320   H     0.39455   0.03646   0.49796   0.00000  Uiso   1.00
H321   H     0.30946   0.45180   0.50776   0.00000  Uiso   1.00
H322   H     0.31638   0.43949   0.45737   0.00000  Uiso   1.00
H323   H     0.29389   0.38704   0.52271   0.00000  Uiso   1.00
H324   H     0.30100   0.37490   0.47307   0.00000  Uiso   1.00
H325   H     0.34523   0.10116   0.96594   0.00000  Uiso   1.00
H326   H     0.36591   0.39541   0.47779   0.00000  Uiso   1.00
H327   H     0.35502   0.36024   0.51230   0.00000  Uiso   1.00
H328   H     0.35862   0.40710   0.52802   0.00000  Uiso   1.00
H329   H     0.12281   0.47431   0.17632   0.00000  Uiso   1.00
H330   H     0.10322   0.45822   0.22003   0.00000  Uiso   1.00
H331   H     0.07880   0.43667   0.13778   0.00000  Uiso   1.00
H332   H     0.05757   0.42187   0.18163   0.00000  Uiso   1.00
H333   H     0.04363   0.48719   0.19838   0.00000  Uiso   1.00
H334   H     0.02355   0.47336   0.15320   0.00000  Uiso   1.00
H335   H     0.06385   0.00143   0.15334   0.00000  Uiso   1.00
H336   H     0.30288   0.14954   0.99056   0.00000  Uiso   1.00
H337   H     0.30760   0.08246   0.84229   0.00000  Uiso   1.00
H338   H     0.31241   0.12377   0.81547   0.00000  Uiso   1.00
H339   H     0.34930   0.10546   0.89295   0.00000  Uiso   1.00
H340   H     0.35746   0.14649   0.86562   0.00000  Uiso   1.00
H341   H     0.29162   0.16278   0.87104   0.00000  Uiso   1.00
H342   H     0.31191   0.15633   0.91782   0.00000  Uiso   1.00
H343   H     0.28312   0.12117   0.89776   0.00000  Uiso   1.00
H344   H     0.00383   0.10474   0.24250   0.00000  Uiso   1.00
H345   H     0.03592   0.11885   0.27797   0.00000  Uiso   1.00
H346   H     0.03155   0.04176   0.24141   0.00000  Uiso   1.00
H347   H     0.34536   0.14916   0.01666   0.00000  Uiso   1.00
H348   H     0.06257   0.05572   0.27881   0.00000  Uiso   1.00
H349   H     0.00896   0.07071   0.32167   0.00000  Uiso   1.00
H350   H     0.01035   0.02345   0.30762   0.00000  Uiso   1.00
H351   H     0.47873   0.05396   0.28442   0.00000  Uiso   1.00
H352   H     0.46275   0.36631   0.83704   0.00000  Uiso   1.00
H353   H     0.41704   0.35275   0.83095   0.00000  Uiso   1.00
H354   H     0.44172   0.40552   0.88224   0.00000  Uiso   1.00
H355   H     0.43169   0.43466   0.84229   0.00000  Uiso   1.00
H356   H     0.36734   0.41025   0.84154   0.00000  Uiso   1.00
H357   H     0.37924   0.42828   0.88812   0.00000  Uiso   1.00
H358   H     0.30517   0.12973   0.03831   0.00000  Uiso   1.00
H359   H     0.37863   0.37973   0.88050   0.00000  Uiso   1.00
H360   H     0.38842   0.02209   0.18236   0.00000  Uiso   1.00
H361   H     0.39412   0.03752   0.23059   0.00000  Uiso   1.00
H362   H     0.43882   0.06647   0.16158   0.00000  Uiso   1.00
H363   H     0.44722   0.07527   0.21179   0.00000  Uiso   1.00
H364   H     0.45918   0.00871   0.22256   0.00000  Uiso   1.00
H365   H     0.48917   0.02848   0.18698   0.00000  Uiso   1.00
H366   H     0.45166   0.00027   0.17170   0.00000  Uiso   1.00
H367   H     0.18768   0.41523   0.84980   0.00000  Uiso   1.00
H368   H     0.18921   0.38048   0.81408   0.00000  Uiso   1.00
H369   H     0.41468   0.19468   0.98673   0.00000  Uiso   1.00
H370   H     0.14502   0.38167   0.88988   0.00000  Uiso   1.00
H371   H     0.13747   0.34787   0.85297   0.00000  Uiso   1.00
H372   H     0.20033   0.32606   0.85794   0.00000  Uiso   1.00
H373   H     0.17992   0.32674   0.90518   0.00000  Uiso   1.00
H374   H     0.21173   0.36214   0.89139   0.00000  Uiso   1.00
H375   H     0.46321   0.39325   0.27861   0.00000  Uiso   1.00
H376   H     0.44814   0.43654   0.25843   0.00000  Uiso   1.00
H377   H     0.01507   0.39227   0.23266   0.00000  Uiso   1.00
H378   H     0.49968   0.43463   0.21189   0.00000  Uiso   1.00
H379   H     0.00964   0.46687   0.27335   0.00000  Uiso   1.00
H380   H     0.42995   0.24005   0.99308   0.00000  Uiso   1.00
H381   H     0.05056   0.44284   0.26003   0.00000  Uiso   1.00
H382   H     0.02139   0.42455   0.29709   0.00000  Uiso   1.00
H383   H     0.03805   0.13380   0.84042   0.00000  Uiso   1.00
H384   H     0.08285   0.15061   0.83188   0.00000  Uiso   1.00
H385   H     0.06384   0.07075   0.85345   0.00000  Uiso   1.00
H386   H     0.10893   0.08996   0.84939   0.00000  Uiso   1.00
H387   H     0.09484   0.13373   0.90286   0.00000  Uiso   1.00
H388   H     0.09026   0.08676   0.91765   0.00000  Uiso   1.00
H389   H     0.05016   0.11338   0.90773   0.00000  Uiso   1.00
H390   H     0.11273   0.00581   0.75898   0.00000  Uiso   1.00
H391   H     0.39200   0.19111   0.05377   0.00000  Uiso   1.00
H392   H     0.10929   0.04074   0.72331   0.00000  Uiso   1.00
H393   H     0.04892   0.01930   0.78125   0.00000  Uiso   1.00
H394   H     0.04487   0.05263   0.74339   0.00000  Uiso   1.00
H395   H     0.05636   0.00412   0.69404   0.00000  Uiso   1.00
H396   H     0.01787   0.49287   0.72400   0.00000  Uiso   1.00
H397   H     0.06075   0.47044   0.73196   0.00000  Uiso   1.00
H398   H     0.36807   0.45869   0.15823   0.00000  Uiso   1.00
H399   H     0.35432   0.41298   0.16713   0.00000  Uiso   1.00
H400   H     0.43328   0.43842   0.14944   0.00000  Uiso   1.00
H401   H     0.41879   0.39174   0.15603   0.00000  Uiso   1.00
H402   H     0.40731   0.23711   0.06304   0.00000  Uiso   1.00
H403   H     0.37795   0.39579   0.09987   0.00000  Uiso   1.00
H404   H     0.42436   0.40607   0.08712   0.00000  Uiso   1.00
H405   H     0.39201   0.44264   0.09200   0.00000  Uiso   1.00
H406   H     0.02532   0.38259   0.82211   0.00000  Uiso   1.00
H407   H     0.04116   0.39675   0.77605   0.00000  Uiso   1.00
H408   H     0.06810   0.42965   0.85306   0.00000  Uiso   1.00
H409   H     0.07733   0.44667   0.80539   0.00000  Uiso   1.00
H410   H     0.01099   0.45897   0.79613   0.00000  Uiso   1.00
H411   H     0.02911   0.48269   0.83750   0.00000  Uiso   1.00
H412   H     0.00188   0.44229   0.84429   0.00000  Uiso   1.00
H413   H     0.36606   0.26093   0.01225   0.00000  Uiso   1.00
H414   H     0.41413   0.18548   0.14954   0.00000  Uiso   1.00
H415   H     0.37976   0.18676   0.18537   0.00000  Uiso   1.00
H416   H     0.38183   0.14272   0.10954   0.00000  Uiso   1.00
H417   H     0.35009   0.13130   0.14722   0.00000  Uiso   1.00
H418   H     0.32211   0.19136   0.14489   0.00000  Uiso   1.00
H419   H     0.32473   0.17383   0.09638   0.00000  Uiso   1.00
H420   H     0.35658   0.20830   0.11235   0.00000  Uiso   1.00
H421   H     0.37850   0.48704   0.74185   0.00000  Uiso   1.00
H422   H     0.40653   0.45319   0.71873   0.00000  Uiso   1.00
H423   H     0.43357   0.49913   0.78697   0.00000  Uiso   1.00
H424   H     0.21808   0.06491   0.98726   0.00000  Uiso   1.00
H425   H     0.34105   0.23526   0.04781   0.00000  Uiso   1.00
H426   H     0.45957   0.47133   0.75443   0.00000  Uiso   1.00
H427   H     0.44197   0.01327   0.69964   0.00000  Uiso   1.00
H428   H     0.46627   0.03673   0.73742   0.00000  Uiso   1.00
H429   H     0.41771   0.04176   0.73381   0.00000  Uiso   1.00
H430   H     0.13466   0.04228   0.15755   0.00000  Uiso   1.00
H431   H     0.15117   0.08643   0.17005   0.00000  Uiso   1.00
H432   H     0.07382   0.06612   0.14191   0.00000  Uiso   1.00
H433   H     0.08700   0.11146   0.15669   0.00000  Uiso   1.00
H434   H     0.13369   0.11469   0.10607   0.00000  Uiso   1.00
H435   H     0.08981   0.10468   0.08566   0.00000  Uiso   1.00
H436   H     0.35074   0.21512   0.00148   0.00000  Uiso   1.00
H437   H     0.12280   0.06873   0.09063   0.00000  Uiso   1.00
H438   H     0.47328   0.12168   0.82449   0.00000  Uiso   1.00
H439   H     0.45754   0.10343   0.77992   0.00000  Uiso   1.00
H440   H     0.43272   0.07652   0.86026   0.00000  Uiso   1.00
H441   H     0.42183   0.05608   0.81465   0.00000  Uiso   1.00
H442   H     0.48899   0.04457   0.80365   0.00000  Uiso   1.00
H443   H     0.47137   0.02207   0.84596   0.00000  Uiso   1.00
H444   H     0.49809   0.06307   0.85099   0.00000  Uiso   1.00
H445   H     0.08787   0.31021   0.15083   0.00000  Uiso   1.00
H446   H     0.12177   0.31049   0.18728   0.00000  Uiso   1.00
H447   H     0.45155   0.34537   0.00855   0.00000  Uiso   1.00
H448   H     0.12123   0.35314   0.11042   0.00000  Uiso   1.00
H449   H     0.15394   0.36203   0.14785   0.00000  Uiso   1.00
H450   H     0.17751   0.30001   0.14490   0.00000  Uiso   1.00
H451   H     0.17654   0.31847   0.09674   0.00000  Uiso   1.00
H452   H     0.14221   0.28607   0.11185   0.00000  Uiso   1.00
H453   H     0.36132   0.22664   0.67949   0.00000  Uiso   1.00
H454   H     0.35575   0.21293   0.72836   0.00000  Uiso   1.00
H455   H     0.31091   0.18136   0.66045   0.00000  Uiso   1.00
H456   H     0.30275   0.17431   0.71102   0.00000  Uiso   1.00
H457   H     0.29013   0.24082   0.71948   0.00000  Uiso   1.00
H458   H     0.44167   0.29818   0.00517   0.00000  Uiso   1.00
H459   H     0.26079   0.22021   0.68382   0.00000  Uiso   1.00
H460   H     0.29854   0.24813   0.66859   0.00000  Uiso   1.00
H461   H     0.06181   0.33685   0.34961   0.00000  Uiso   1.00
H462   H     0.06173   0.37181   0.31417   0.00000  Uiso   1.00
H463   H     0.10471   0.36838   0.39038   0.00000  Uiso   1.00
H464   H     0.11543   0.40141   0.35361   0.00000  Uiso   1.00
H465   H     0.05439   0.42774   0.35728   0.00000  Uiso   1.00
H466   H     0.07321   0.42527   0.40508   0.00000  Uiso   1.00
H467   H     0.03936   0.39234   0.38996   0.00000  Uiso   1.00
H468   H     0.28662   0.35815   0.77483   0.00000  Uiso   1.00
H469   H     0.43945   0.35224   0.93623   0.00000  Uiso   1.00
H470   H     0.30133   0.31450   0.75519   0.00000  Uiso   1.00
H471   H     0.23603   0.35976   0.72721   0.00000  Uiso   1.00
H472   H     0.25078   0.31653   0.70791   0.00000  Uiso   1.00
H473   H     0.23839   0.28603   0.76982   0.00000  Uiso   1.00
H474   H     0.19857   0.31120   0.75536   0.00000  Uiso   1.00
H475   H     0.22765   0.32920   0.79250   0.00000  Uiso   1.00
H476   H     0.21196   0.11542   0.33867   0.00000  Uiso   1.00
H477   H     0.16619   0.10197   0.33261   0.00000  Uiso   1.00
H478   H     0.19112   0.15474   0.38391   0.00000  Uiso   1.00
H479   H     0.18100   0.18390   0.34400   0.00000  Uiso   1.00
H480   H     0.42336   0.30566   0.93617   0.00000  Uiso   1.00
H481   H     0.11662   0.15872   0.34335   0.00000  Uiso   1.00
H482   H     0.12857   0.17822   0.38925   0.00000  Uiso   1.00
H483   H     0.12823   0.12941   0.38323   0.00000  Uiso   1.00
H484   H     0.12611   0.27617   0.67565   0.00000  Uiso   1.00
H485   H     0.14648   0.29203   0.71897   0.00000  Uiso   1.00
H486   H     0.16975   0.31288   0.63611   0.00000  Uiso   1.00
H487   H     0.19157   0.32846   0.67930   0.00000  Uiso   1.00
H488   H     0.20609   0.26355   0.69687   0.00000  Uiso   1.00
H489   H     0.22517   0.27638   0.65089   0.00000  Uiso   1.00
H490   H     0.18491   0.24830   0.65275   0.00000  Uiso   1.00
H491   H     0.37710   0.32255   0.98700   0.00000  Uiso   1.00
H492   H     0.43824   0.16759   0.34756   0.00000  Uiso   1.00
H493   H     0.43695   0.12858   0.31690   0.00000  Uiso   1.00
H494   H     0.39043   0.14021   0.39028   0.00000  Uiso   1.00
H495   H     0.38887   0.10044   0.35975   0.00000  Uiso   1.00
H496   H     0.45453   0.08818   0.37367   0.00000  Uiso   1.00
H497   H     0.42772   0.09001   0.41723   0.00000  Uiso   1.00
H498   H     0.45619   0.12826   0.40424   0.00000  Uiso   1.00
H499   H     0.24608   0.14490   0.74289   0.00000  Uiso   1.00
H500   H     0.21339   0.13258   0.77855   0.00000  Uiso   1.00
H501   H     0.21915   0.20819   0.73899   0.00000  Uiso   1.00
H502   H     0.37174   0.34782   0.94286   0.00000  Uiso   1.00
H503   H     0.18778   0.19610   0.77684   0.00000  Uiso   1.00
H504   H     0.24075   0.18236   0.82058   0.00000  Uiso   1.00
H505   H     0.24058   0.22893   0.80407   0.00000  Uiso   1.00
H506   H     0.27163   0.19661   0.78272   0.00000  Uiso   1.00
H507   H     0.28532   0.38034   0.33640   0.00000  Uiso   1.00
H508   H     0.33092   0.39571   0.33074   0.00000  Uiso   1.00
H509   H     0.30856   0.31545   0.34630   0.00000  Uiso   1.00
H510   H     0.35422   0.33376   0.34617   0.00000  Uiso   1.00
H511   H     0.33700   0.37553   0.40130   0.00000  Uiso   1.00
H512   H     0.33287   0.32780   0.41296   0.00000  Uiso   1.00
H513   H     0.39253   0.36945   0.98405   0.00000  Uiso   1.00
H514   H     0.29265   0.35391   0.40241   0.00000  Uiso   1.00
H515   H     0.37149   0.26390   0.23964   0.00000  Uiso   1.00
H516   H     0.34271   0.29791   0.21799   0.00000  Uiso   1.00
H517   H     0.31672   0.25057   0.28549   0.00000  Uiso   1.00
H518   H     0.29022   0.27800   0.25317   0.00000  Uiso   1.00
H519   H     0.30865   0.23669   0.19813   0.00000  Uiso   1.00
H520   H     0.28475   0.21261   0.23580   0.00000  Uiso   1.00
H521   H     0.33338   0.20847   0.23207   0.00000  Uiso   1.00
H522   H     0.11808   0.20707   0.65624   0.00000  Uiso   1.00
H523   H     0.10084   0.16312   0.66845   0.00000  Uiso   1.00
H524   H     0.32299   0.44451   0.98012   0.00000  Uiso   1.00
H525   H     0.18048   0.18165   0.64575   0.00000  Uiso   1.00
H526   H     0.16387   0.13656   0.65714   0.00000  Uiso   1.00
H527   H     0.12141   0.13776   0.60262   0.00000  Uiso   1.00
H528   H     0.16738   0.14613   0.58672   0.00000  Uiso   1.00
H529   H     0.13586   0.18357   0.59033   0.00000  Uiso   1.00
H530   H     0.27562   0.12944   0.32284   0.00000  Uiso   1.00
H531   H     0.29247   0.14796   0.27885   0.00000  Uiso   1.00
H532   H     0.31543   0.17393   0.36019   0.00000  Uiso   1.00
H533   H     0.32789   0.19463   0.31517   0.00000  Uiso   1.00
H534   H     0.26167   0.20732   0.30202   0.00000  Uiso   1.00
H535   H     0.17814   0.09353   0.05985   0.00000  Uiso   1.00
H536   H     0.28162   0.43715   0.00513   0.00000  Uiso   1.00
H537   H     0.27784   0.22896   0.34541   0.00000  Uiso   1.00
H538   H     0.25028   0.18834   0.34852   0.00000  Uiso   1.00
H539   H     0.16099   0.44039   0.65069   0.00000  Uiso   1.00
H540   H     0.12841   0.44059   0.68851   0.00000  Uiso   1.00
H541   H     0.12567   0.39816   0.61148   0.00000  Uiso   1.00
H542   H     0.09426   0.38936   0.65023   0.00000  Uiso   1.00
H543   H     0.07092   0.45134   0.64880   0.00000  Uiso   1.00
H544   H     0.07045   0.43353   0.60033   0.00000  Uiso   1.00
H545   H     0.10533   0.46559   0.61481   0.00000  Uiso   1.00
H546   H     0.14158   0.24550   0.25808   0.00000  Uiso   1.00
H547   H     0.35990   0.42401   0.03224   0.00000  Uiso   1.00
H548   H     0.13563   0.21127   0.22208   0.00000  Uiso   1.00
H549   H     0.20564   0.22297   0.26999   0.00000  Uiso   1.00
H550   H     0.20005   0.19100   0.23100   0.00000  Uiso   1.00
H551   H     0.18828   0.24266   0.18551   0.00000  Uiso   1.00
H552   H     0.23176   0.24739   0.20900   0.00000  Uiso   1.00
H553   H     0.19397   0.27494   0.22465   0.00000  Uiso   1.00
H554   H     0.38598   0.28820   0.66095   0.00000  Uiso   1.00
H555   H     0.39743   0.33476   0.66613   0.00000  Uiso   1.00
H556   H     0.34480   0.30596   0.61646   0.00000  Uiso   1.00
H557   H     0.31626   0.31704   0.65657   0.00000  Uiso   1.00
H558   H     0.32292   0.42631   0.06646   0.00000  Uiso   1.00
H559   H     0.34076   0.38216   0.65406   0.00000  Uiso   1.00
H560   H     0.31935   0.36812   0.60980   0.00000  Uiso   1.00
H561   H     0.36822   0.36935   0.61303   0.00000  Uiso   1.00
H562   H     0.22536   0.35900   0.31830   0.00000  Uiso   1.00
H563   H     0.20832   0.35026   0.27148   0.00000  Uiso   1.00
H564   H     0.17532   0.31414   0.34408   0.00000  Uiso   1.00
H565   H     0.17000   0.30032   0.29470   0.00000  Uiso   1.00
H566   H     0.23604   0.28451   0.29152   0.00000  Uiso   1.00
H567   H     0.21272   0.25987   0.32925   0.00000  Uiso   1.00
H568   H     0.24133   0.29813   0.34142   0.00000  Uiso   1.00
H569   H     0.29170   0.37506   0.03629   0.00000  Uiso   1.00
H570   H     0.33551   0.06288   0.65149   0.00000  Uiso   1.00
H571   H     0.37134   0.06331   0.68577   0.00000  Uiso   1.00
H572   H     0.36552   0.10561   0.60920   0.00000  Uiso   1.00
H573   H     0.39905   0.11739   0.64495   0.00000  Uiso   1.00
H574   H     0.42611   0.05648   0.64192   0.00000  Uiso   1.00
H575   H     0.42237   0.07436   0.59366   0.00000  Uiso   1.00
H576   H     0.39044   0.04030   0.61044   0.00000  Uiso   1.00
H577   H     0.16215   0.46408   0.11984   0.00000  Uiso   1.00
H578   H     0.17715   0.46084   0.07114   0.00000  Uiso   1.00
H579   H     0.11020   0.00017   0.10351   0.00000  Uiso   1.00
H580   H     0.33833   0.36211   0.04432   0.00000  Uiso   1.00
H581   H     0.12798   0.01182   0.05683   0.00000  Uiso   1.00
H582   H     0.11906   0.45065   0.03228   0.00000  Uiso   1.00
H583   H     0.07769   0.46414   0.05598   0.00000  Uiso   1.00
H584   H     0.10851   0.43284   0.07946   0.00000  Uiso   1.00
H585   H     0.34112   0.48833   0.87509   0.00000  Uiso   1.00
H586   H     0.33872   0.48800   0.92691   0.00000  Uiso   1.00
H587   H     0.37660   0.04657   0.87773   0.00000  Uiso   1.00
H588   H     0.37369   0.04628   0.92957   0.00000  Uiso   1.00
H589   H     0.40656   0.48534   0.92971   0.00000  Uiso   1.00
H590   H     0.43294   0.02201   0.90915   0.00000  Uiso   1.00
H591   H     0.32342   0.37442   0.99646   0.00000  Uiso   1.00
H592   H     0.41141   0.48925   0.87784   0.00000  Uiso   1.00
H593   H     0.01984   0.16744   0.10266   0.00000  Uiso   1.00
H594   H     0.49088   0.15394   0.06282   0.00000  Uiso   1.00
H595   H     0.48121   0.13427   0.14823   0.00000  Uiso   1.00
H596   H     0.44824   0.12428   0.11109   0.00000  Uiso   1.00
H597   H     0.49250   0.08664   0.07564   0.00000  Uiso   1.00
H598   H     0.49106   0.07147   0.12501   0.00000  Uiso   1.00
H599   H     0.02818   0.09942   0.10870   0.00000  Uiso   1.00
H600   H     0.04585   0.33422   0.87545   0.00000  Uiso   1.00
H601   H     0.04971   0.32142   0.92497   0.00000  Uiso   1.00
H602   H     0.17634   0.42692   0.01086   0.00000  Uiso   1.00
H603   H     0.01325   0.38979   0.89115   0.00000  Uiso   1.00
H604   H     0.00583   0.37572   0.94002   0.00000  Uiso   1.00
H605   H     0.07159   0.37915   0.95421   0.00000  Uiso   1.00
H606   H     0.05587   0.42175   0.93445   0.00000  Uiso   1.00
H607   H     0.08135   0.39048   0.90459   0.00000  Uiso   1.00
H608   H     0.33135   0.04280   0.12561   0.00000  Uiso   1.00
H609   H     0.32526   0.04649   0.07432   0.00000  Uiso   1.00
H610   H     0.38670   0.00500   0.11536   0.00000  Uiso   1.00
H611   H     0.37945   0.00582   0.06405   0.00000  Uiso   1.00
H612   H     0.38904   0.07265   0.06273   0.00000  Uiso   1.00
H613   H     0.22272   0.43822   0.01606   0.00000  Uiso   1.00
H614   H     0.42652   0.05109   0.08697   0.00000  Uiso   1.00
H615   H     0.39185   0.07418   0.11454   0.00000  Uiso   1.00
H616   H     0.16084   0.01422   0.87615   0.00000  Uiso   1.00
H617   H     0.16053   0.01378   0.92806   0.00000  Uiso   1.00
H618   H     0.12522   0.45537   0.87642   0.00000  Uiso   1.00
H619   H     0.12449   0.45654   0.92829   0.00000  Uiso   1.00
H620   H     0.09201   0.01724   0.92556   0.00000  Uiso   1.00
H621   H     0.06702   0.48128   0.90197   0.00000  Uiso   1.00
H622   H     0.09178   0.01399   0.87338   0.00000  Uiso   1.00
H623   H     0.49230   0.34149   0.12463   0.00000  Uiso   1.00
H624   H     0.18712   0.40601   0.94238   0.00000  Uiso   1.00
H625   H     0.49118   0.33880   0.07285   0.00000  Uiso   1.00
H626   H     0.05122   0.37554   0.12095   0.00000  Uiso   1.00
H627   H     0.05060   0.37188   0.06922   0.00000  Uiso   1.00
H628   H     0.49180   0.40684   0.06765   0.00000  Uiso   1.00
H629   H     0.02770   0.43238   0.09045   0.00000  Uiso   1.00
H630   H     0.49327   0.41090   0.11973   0.00000  Uiso   1.00
H631   H     0.45352   0.16775   0.87616   0.00000  Uiso   1.00
H632   H     0.44789   0.18475   0.92401   0.00000  Uiso   1.00
H633   H     0.48154   0.11190   0.89834   0.00000  Uiso   1.00
H634   H     0.48761   0.12943   0.94623   0.00000  Uiso   1.00
H635   H     0.23531   0.41264   0.94978   0.00000  Uiso   1.00
H636   H     0.42157   0.13054   0.95766   0.00000  Uiso   1.00
H637   H     0.43488   0.08590   0.94105   0.00000  Uiso   1.00
H638   H     0.41278   0.11716   0.90844   0.00000  Uiso   1.00
H639   H     0.41164   0.21610   0.63341   0.00000  Uiso   1.00
H640   H     0.43494   0.19950   0.59180   0.00000  Uiso   1.00
H641   H     0.36312   0.24327   0.59265   0.00000  Uiso   1.00
H642   H     0.38670   0.22860   0.54980   0.00000  Uiso   1.00
H643   H     0.38092   0.16318   0.57186   0.00000  Uiso   1.00
H644   H     0.33755   0.18528   0.56546   0.00000  Uiso   1.00
H645   H     0.35567   0.17856   0.61321   0.00000  Uiso   1.00
H646   H     0.22648   0.08658   0.05697   0.00000  Uiso   1.00
H647   H     0.23208   0.36927   0.00665   0.00000  Uiso   1.00
H648   H     0.09160   0.24073   0.37471   0.00000  Uiso   1.00
H649   H     0.08774   0.23676   0.42623   0.00000  Uiso   1.00
H650   H     0.12480   0.30064   0.38388   0.00000  Uiso   1.00
H651   H     0.12223   0.29429   0.43518   0.00000  Uiso   1.00
H652   H     0.15710   0.23547   0.42860   0.00000  Uiso   1.00
H653   H     0.18211   0.27403   0.40996   0.00000  Uiso   1.00
H654   H     0.16016   0.24293   0.37707   0.00000  Uiso   1.00
H655   H     0.25490   0.40857   0.62654   0.00000  Uiso   1.00
H656   H     0.25936   0.41273   0.57515   0.00000  Uiso   1.00
H657   H     0.19567   0.37510   0.61715   0.00000  Uiso   1.00
H658   H     0.22021   0.34834   0.96145   0.00000  Uiso   1.00
H659   H     0.20137   0.37887   0.56579   0.00000  Uiso   1.00
H660   H     0.26036   0.34404   0.57070   0.00000  Uiso   1.00
H661   H     0.22211   0.31838   0.58866   0.00000  Uiso   1.00
H662   H     0.25314   0.33952   0.62216   0.00000  Uiso   1.00
H663   H     0.29183   0.08479   0.37744   0.00000  Uiso   1.00
H664   H     0.29560   0.06997   0.42622   0.00000  Uiso   1.00
H665   H     0.26086   0.13988   0.39470   0.00000  Uiso   1.00
H666   H     0.24957   0.12372   0.44195   0.00000  Uiso   1.00
H667   H     0.31347   0.12592   0.46245   0.00000  Uiso   1.00
H668   H     0.30085   0.16933   0.44212   0.00000  Uiso   1.00
H669   H     0.18485   0.36066   0.99509   0.00000  Uiso   1.00
H670   H     0.32811   0.13782   0.41439   0.00000  Uiso   1.00
H671   H     0.08869   0.28779   0.61871   0.00000  Uiso   1.00
H672   H     0.07322   0.29111   0.57029   0.00000  Uiso   1.00
H673   H     0.14024   0.25161   0.60178   0.00000  Uiso   1.00
H674   H     0.12168   0.23903   0.55575   0.00000  Uiso   1.00
H675   H     0.13028   0.29990   0.52988   0.00000  Uiso   1.00
H676   H     0.17211   0.28631   0.55248   0.00000  Uiso   1.00
H677   H     0.14226   0.31827   0.57646   0.00000  Uiso   1.00
H678   H     0.40865   0.26408   0.37660   0.00000  Uiso   1.00
H679   H     0.40947   0.26254   0.42846   0.00000  Uiso   1.00
H680   H     0.08347   0.31026   0.98704   0.00000  Uiso   1.00
H681   H     0.37324   0.20612   0.37517   0.00000  Uiso   1.00
H682   H     0.37546   0.20315   0.42692   0.00000  Uiso   1.00
H683   H     0.34173   0.26268   0.43196   0.00000  Uiso   1.00
H684   H     0.31624   0.22819   0.40667   0.00000  Uiso   1.00
H685   H     0.33852   0.26387   0.37977   0.00000  Uiso   1.00
H686   H     0.23861   0.08970   0.62234   0.00000  Uiso   1.00
H687   H     0.24078   0.08958   0.57043   0.00000  Uiso   1.00
H688   H     0.29797   0.12410   0.62379   0.00000  Uiso   1.00
H689   H     0.29882   0.12393   0.57193   0.00000  Uiso   1.00
H690   H     0.23940   0.15840   0.57160   0.00000  Uiso   1.00
H691   H     0.06859   0.26450   0.99183   0.00000  Uiso   1.00
H692   H     0.27482   0.18268   0.59690   0.00000  Uiso   1.00
H693   H     0.24014   0.15902   0.62384   0.00000  Uiso   1.00
H694   H     0.22930   0.39939   0.36767   0.00000  Uiso   1.00
H695   H     0.20262   0.43415   0.38919   0.00000  Uiso   1.00
H696   H     0.24302   0.37716   0.43891   0.00000  Uiso   1.00
H697   H     0.20466   0.40512   0.45160   0.00000  Uiso   1.00
H698   H     0.16784   0.37017   0.40090   0.00000  Uiso   1.00
H699   H     0.18305   0.34328   0.44136   0.00000  Uiso   1.00
H700   H     0.20660   0.34007   0.39593   0.00000  Uiso   1.00
H701   H     0.10723   0.31086   0.05416   0.00000  Uiso   1.00
H702   H     0.09300   0.26405   0.06046   0.00000  Uiso   1.00
H703   H     0.13352   0.24501   0.00584   0.00000  Uiso   1.00
H704   H     0.15857   0.26717   0.04389   0.00000  Uiso   1.00
H705   H     0.14847   0.29190   0.00032   0.00000  Uiso   1.00
H706   H     0.23104   0.13180   0.00364   0.00000  Uiso   1.00
H707   H     0.06391   0.20357   0.00137   0.00000  Uiso   1.00
H708   H     0.06604   0.18462   0.95285   0.00000  Uiso   1.00
H709   H     0.04787   0.14269   0.02753   0.00000  Uiso   1.00
H710   H     0.04911   0.12346   0.97981   0.00000  Uiso   1.00
H711   H     0.11528   0.14138   0.97427   0.00000  Uiso   1.00
H712   H     0.10667   0.11100   0.01405   0.00000  Uiso   1.00
H713   H     0.11349   0.15906   0.02300   0.00000  Uiso   1.00
H714   H     0.42049   0.31694   0.49221   0.00000  Uiso   1.00
H715   H     0.46691   0.31830   0.50542   0.00000  Uiso   1.00
H716   H     0.39924   0.32952   0.55736   0.00000  Uiso   1.00
H717   H     0.21088   0.15146   0.04629   0.00000  Uiso   1.00
H718   H     0.44428   0.32541   0.57700   0.00000  Uiso   1.00
H719   H     0.46581   0.37934   0.54448   0.00000  Uiso   1.00
H720   H     0.42333   0.39061   0.56744   0.00000  Uiso   1.00
H721   H     0.42495   0.38295   0.51601   0.00000  Uiso   1.00
H722   H     0.07291   0.32659   0.51038   0.00000  Uiso   1.00
H723   H     0.02632   0.31574   0.51490   0.00000  Uiso   1.00
H724   H     0.06303   0.34681   0.44132   0.00000  Uiso   1.00
H725   H     0.01473   0.34113   0.44870   0.00000  Uiso   1.00
H726   H     0.01852   0.38511   0.50508   0.00000  Uiso   1.00
H727   H     0.03106   0.40533   0.45977   0.00000  Uiso   1.00
H728   H     0.18243   0.13921   0.00597   0.00000  Uiso   1.00
H729   H     0.06597   0.39259   0.49363   0.00000  Uiso   1.00
H730   H     0.16224   0.43698   0.49169   0.00000  Uiso   1.00
H731   H     0.17804   0.48253   0.49005   0.00000  Uiso   1.00
H732   H     0.14368   0.44418   0.56084   0.00000  Uiso   1.00
H733   H     0.15657   0.49172   0.55882   0.00000  Uiso   1.00
H734   H     0.11229   0.00104   0.50426   0.00000  Uiso   1.00
H735   H     0.09059   0.48567   0.54791   0.00000  Uiso   1.00
H736   H     0.09809   0.45393   0.50896   0.00000  Uiso   1.00
H737   H     0.19320   0.08913   0.51092   0.00000  Uiso   1.00
H738   H     0.18469   0.04215   0.50260   0.00000  Uiso   1.00
H739   H     0.27901   0.07296   0.01136   0.00000  Uiso   1.00
H740   H     0.18249   0.10215   0.43945   0.00000  Uiso   1.00
H741   H     0.16834   0.05526   0.43400   0.00000  Uiso   1.00
H742   H     0.11988   0.06537   0.48450   0.00000  Uiso   1.00
H743   H     0.11485   0.09483   0.44330   0.00000  Uiso   1.00
H744   H     0.13353   0.11281   0.48746   0.00000  Uiso   1.00
H745   H     0.07684   0.18065   0.48973   0.00000  Uiso   1.00
H746   H     0.02917   0.18729   0.48931   0.00000  Uiso   1.00
H747   H     0.07555   0.16052   0.55812   0.00000  Uiso   1.00
H748   H     0.02707   0.16726   0.56020   0.00000  Uiso   1.00
H749   H     0.01758   0.12107   0.50881   0.00000  Uiso   1.00
H750   H     0.28050   0.08711   0.96115   0.00000  Uiso   1.00
H751   H     0.04208   0.10222   0.54915   0.00000  Uiso   1.00
H752   H     0.06617   0.11390   0.50556   0.00000  Uiso   1.00
H753   H     0.46656   0.18058   0.51382   0.00000  Uiso   1.00
H754   H     0.46997   0.16776   0.46334   0.00000  Uiso   1.00
H755   H     0.39723   0.17170   0.50675   0.00000  Uiso   1.00
H756   H     0.40607   0.15255   0.46009   0.00000  Uiso   1.00
H757   H     0.44572   0.10476   0.49008   0.00000  Uiso   1.00
H758   H     0.40018   0.10418   0.50971   0.00000  Uiso   1.00
H759   H     0.43675   0.12409   0.53724   0.00000  Uiso   1.00
H760   H     0.33021   0.05789   0.48526   0.00000  Uiso   1.00
O761   O     0.25000   0.00000   0.25000   0.00000  Uiso   1.00
O762   O     0.25000   0.46964   0.66317   0.00000  Uiso   1.00
O763   O     0.33764   0.11056   0.68259   0.00000  Uiso   1.00
O764   O     0.18493   0.01199   0.09991   0.00000  Uiso   1.00
O765   O     0.30967   0.02991   0.89750   0.00000  Uiso   1.00
O766   O     0.46862   0.19206   0.10079   0.00000  Uiso   1.00
O767   O     0.49720   0.31702   0.89883   0.00000  Uiso   1.00
O768   O     0.31648   0.49416   0.09996   0.00000  Uiso   1.00
O769   O     0.19061   0.47200   0.89966   0.00000  Uiso   1.00
O770   O     0.03234   0.30836   0.10185   0.00000  Uiso   1.00
O771   O     0.00191   0.18403   0.90073   0.00000  Uiso   1.00
O772   O     0.43361   0.25740   0.60080   0.00000  Uiso   1.00
O773   O     0.46964   0.25000   0.33683   0.00000  Uiso   1.00
O774   O     0.05875   0.28009   0.39893   0.00000  Uiso   1.00
O775   O     0.21625   0.44217   0.60223   0.00000  Uiso   1.00
O776   O     0.24317   0.06622   0.39973   0.00000  Uiso   1.00
O777   O     0.06517   0.24008   0.59918   0.00000  Uiso   1.00
O778   O     0.43982   0.22200   0.39829   0.00000  Uiso   1.00
O779   O     0.28047   0.05830   0.60038   0.00000  Uiso   1.00
O780   O     0.25950   0.43418   0.40029   0.00000  Uiso   1.00
O781   O     0.03036   0.25000   0.66317   0.00000  Uiso   1.00
O782   O     0.00000   0.21964   0.83683   0.00000  Uiso   1.00
O783   O     0.00000   0.28036   0.16317   0.00000  Uiso   1.00
O784   O     0.28036   0.00000   0.83683   0.00000  Uiso   1.00
O785   O     0.21964   0.00000   0.16317   0.00000  Uiso   1.00
O786   O     0.00000   0.28036   0.83683   0.00000  Uiso   1.00
O787   O     0.00000   0.21964   0.16317   0.00000  Uiso   1.00
O788   O     0.21964   0.00000   0.83683   0.00000  Uiso   1.00
O789   O     0.25000   0.00000   0.75000   0.00000  Uiso   1.00
O790   O     0.28036   0.00000   0.16317   0.00000  Uiso   1.00
O791   O     0.20725   0.07307   0.27282   0.00000  Uiso   1.00
O792   O     0.29274   0.42693   0.72718   0.00000  Uiso   1.00
O793   O     0.42693   0.20726   0.27282   0.00000  Uiso   1.00
O794   O     0.07307   0.29275   0.72718   0.00000  Uiso   1.00
O795   O     0.29274   0.42693   0.27282   0.00000  Uiso   1.00
O796   O     0.20725   0.07307   0.72718   0.00000  Uiso   1.00
O797   O     0.07307   0.29275   0.27282   0.00000  Uiso   1.00
O798   O     0.42693   0.20726   0.72718   0.00000  Uiso   1.00
O799   O     0.20725   0.42693   0.72718   0.00000  Uiso   1.00
O800   O    -0.00000   0.25000   0.25000   0.00000  Uiso   1.00
O801   O     0.29274   0.07307   0.27282   0.00000  Uiso   1.00
O802   O     0.42693   0.29275   0.72718   0.00000  Uiso   1.00
O803   O     0.07307   0.20726   0.27282   0.00000  Uiso   1.00
O804   O     0.29274   0.07307   0.72718   0.00000  Uiso   1.00
O805   O     0.20725   0.42693   0.27282   0.00000  Uiso   1.00
O806   O     0.07307   0.20726   0.72718   0.00000  Uiso   1.00
O807   O     0.42693   0.29275   0.27282   0.00000  Uiso   1.00
O808   O     0.45725   0.32307   0.77282   0.00000  Uiso   1.00
O809   O     0.04274   0.17693   0.22718   0.00000  Uiso   1.00
O810   O     0.17693   0.45726   0.77282   0.00000  Uiso   1.00
O811   O     0.00000   0.25000   0.75000   0.00000  Uiso   1.00
O812   O     0.32307   0.04275   0.22718   0.00000  Uiso   1.00
O813   O     0.04274   0.17693   0.77282   0.00000  Uiso   1.00
O814   O     0.45725   0.32307   0.22718   0.00000  Uiso   1.00
O815   O     0.32307   0.04275   0.77282   0.00000  Uiso   1.00
O816   O     0.17693   0.45726   0.22718   0.00000  Uiso   1.00
O817   O     0.45725   0.17693   0.22718   0.00000  Uiso   1.00
O818   O     0.04274   0.32307   0.77282   0.00000  Uiso   1.00
O819   O     0.17693   0.04275   0.22718   0.00000  Uiso   1.00
O820   O     0.32307   0.45726   0.77282   0.00000  Uiso   1.00
O821   O     0.04274   0.32307   0.22718   0.00000  Uiso   1.00
O822   O     0.25000   0.46964   0.33683   0.00000  Uiso   1.00
O823   O     0.45725   0.17693   0.77282   0.00000  Uiso   1.00
O824   O     0.32307   0.45726   0.22718   0.00000  Uiso   1.00
O825   O     0.17693   0.04275   0.77282   0.00000  Uiso   1.00
O826   O     0.18907   0.02924   0.02354   0.00000  Uiso   1.00
O827   O     0.30704   0.03811   0.97518   0.00000  Uiso   1.00
O828   O     0.45823   0.19882   0.02288   0.00000  Uiso   1.00
O829   O     0.48849   0.31716   0.97662   0.00000  Uiso   1.00
O830   O     0.31382   0.48260   0.02242   0.00000  Uiso   1.00
O831   O     0.19209   0.47009   0.97788   0.00000  Uiso   1.00
O832   O     0.04082   0.30448   0.02427   0.00000  Uiso   1.00
O833   O     0.25000   0.03036   0.66317   0.00000  Uiso   1.00
O834   O     0.01455   0.18677   0.97848   0.00000  Uiso   1.00
O835   O     0.43634   0.27279   0.52402   0.00000  Uiso   1.00
O836   O     0.05733   0.28346   0.47721   0.00000  Uiso   1.00
O837   O     0.20727   0.44577   0.52474   0.00000  Uiso   1.00
O838   O     0.23163   0.06495   0.47723   0.00000  Uiso   1.00
O839   O     0.06021   0.22412   0.52222   0.00000  Uiso   1.00
O840   O     0.44188   0.21649   0.47640   0.00000  Uiso   1.00
O841   O     0.28738   0.05332   0.52256   0.00000  Uiso   1.00
O842   O     0.26299   0.43603   0.47866   0.00000  Uiso   1.00
O843   O     0.13187   0.41984   0.18530   0.00000  Uiso   1.00
O844   O     0.03036   0.25000   0.33683   0.00000  Uiso   1.00
O845   O     0.35868   0.08847   0.81904   0.00000  Uiso   1.00
O846   O     0.05593   0.10732   0.22189   0.00000  Uiso   1.00
O847   O     0.43964   0.38921   0.78937   0.00000  Uiso   1.00
O848   O     0.37378   0.07546   0.18983   0.00000  Uiso   1.00
O849   O     0.14063   0.41182   0.81825   0.00000  Uiso   1.00
O850   O     0.44389   0.39144   0.22215   0.00000  Uiso   1.00
O851   O     0.06133   0.11226   0.79188   0.00000  Uiso   1.00
O852   O     0.10924   0.05697   0.78247   0.00000  Uiso   1.00
O853   O     0.38792   0.43870   0.20905   0.00000  Uiso   1.00
O854   O     0.07887   0.37041   0.81323   0.00000  Uiso   1.00
O855   O     0.46964   0.25000   0.66317   0.00000  Uiso   1.00
O856   O     0.41252   0.13894   0.18242   0.00000  Uiso   1.00
O857   O     0.39243   0.44461   0.77783   0.00000  Uiso   1.00
O858   O     0.11261   0.06193   0.20775   0.00000  Uiso   1.00
O859   O     0.41931   0.13179   0.81507   0.00000  Uiso   1.00
O860   O     0.08928   0.35831   0.18118   0.00000  Uiso   1.00
O861   O     0.37664   0.17380   0.68920   0.00000  Uiso   1.00
O862   O     0.10909   0.33856   0.31809   0.00000  Uiso   1.00
O863   O     0.30732   0.35927   0.71877   0.00000  Uiso   1.00
O864   O     0.18887   0.13842   0.29108   0.00000  Uiso   1.00
O865   O     0.11761   0.33073   0.68500   0.00000  Uiso   1.00
O866   O     0.25000   0.03036   0.33683   0.00000  Uiso   1.00
O867   O     0.39004   0.16297   0.31836   0.00000  Uiso   1.00
O868   O     0.19418   0.14248   0.72186   0.00000  Uiso   1.00
O869   O     0.30945   0.36031   0.28769   0.00000  Uiso   1.00
O870   O     0.35739   0.30519   0.27708   0.00000  Uiso   1.00
O871   O     0.13758   0.18800   0.70770   0.00000  Uiso   1.00
O872   O     0.32972   0.11908   0.31456   0.00000  Uiso   1.00
O873   O     0.15999   0.39235   0.68104   0.00000  Uiso   1.00
O874   O     0.14137   0.19381   0.28025   0.00000  Uiso   1.00
O875   O     0.36252   0.31109   0.70853   0.00000  Uiso   1.00
O876   O     0.17313   0.37691   0.31109   0.00000  Uiso   1.00
Zn877  Zn    0.20660   0.00000   0.21760   0.00000  Uiso   1.00
Zn878  Zn    0.04340   0.25000   0.28240   0.00000  Uiso   1.00
Zn879  Zn    0.25000   0.45660   0.71760   0.00000  Uiso   1.00
Zn880  Zn    0.25000   0.04340   0.28240   0.00000  Uiso   1.00
Zn881  Zn    0.04340   0.25000   0.71760   0.00000  Uiso   1.00
Zn882  Zn    0.45660   0.25000   0.28240   0.00000  Uiso   1.00
Zn883  Zn    0.25000   0.04340   0.71760   0.00000  Uiso   1.00
Zn884  Zn    0.25000   0.45660   0.28240   0.00000  Uiso   1.00
Zn885  Zn    0.29340   0.00000   0.78240   0.00000  Uiso   1.00
Zn886  Zn    0.00000   0.20660   0.21760   0.00000  Uiso   1.00
Zn887  Zn    0.00000   0.29340   0.78240   0.00000  Uiso   1.00
Zn888  Zn    0.29340   0.00000   0.21760   0.00000  Uiso   1.00
Zn889  Zn    0.20660   0.00000   0.78240   0.00000  Uiso   1.00
Zn890  Zn    0.00000   0.29340   0.21760   0.00000  Uiso   1.00
Zn891  Zn    0.00000   0.20660   0.78240   0.00000  Uiso   1.00
Zn892  Zn    0.45660   0.25000   0.71760   0.00000  Uiso   1.00
C893   C     0.71988   0.01574   0.04164   0.00000  Uiso   1.00
C894   C     0.52760   0.26815   0.45848   0.00000  Uiso   1.00
C895   C     0.84865   0.40264   0.74870   0.00000  Uiso   1.00
C896   C     0.90224   0.15182   0.25043   0.00000  Uiso   1.00
C897   C     0.59807   0.34847   0.74977   0.00000  Uiso   1.00
C898   C     0.84791   0.40139   0.24958   0.00000  Uiso   1.00
C899   C     0.65239   0.09834   0.75110   0.00000  Uiso   1.00
C900   C     0.59839   0.15182   0.75041   0.00000  Uiso   1.00
C901   C     0.90170   0.34762   0.24966   0.00000  Uiso   1.00
C902   C     0.65212   0.40194   0.74994   0.00000  Uiso   1.00
C903   C     0.84899   0.09753   0.25105   0.00000  Uiso   1.00
C904   C     0.90223   0.34868   0.74930   0.00000  Uiso   1.00
C905   C     0.72706   0.47334   0.54259   0.00000  Uiso   1.00
C906   C     0.59773   0.15179   0.25066   0.00000  Uiso   1.00
C907   C     0.84756   0.09831   0.75063   0.00000  Uiso   1.00
C908   C     0.65207   0.40136   0.24949   0.00000  Uiso   1.00
C909   C     0.75050   0.00220   0.10211   0.00000  Uiso   1.00
C910   C     0.75013   0.00082   0.89752   0.00000  Uiso   1.00
C911   C     0.50011   0.25032   0.10245   0.00000  Uiso   1.00
C912   C     0.50001   0.25050   0.89787   0.00000  Uiso   1.00
C913   C     0.99955   0.24914   0.60219   0.00000  Uiso   1.00
C914   C     0.99952   0.25071   0.39760   0.00000  Uiso   1.00
C915   C     0.74870   0.00005   0.60251   0.00000  Uiso   1.00
C916   C     0.73826   0.03221   0.45846   0.00000  Uiso   1.00
C917   C     0.74875   0.49993   0.39798   0.00000  Uiso   1.00
C918   C     0.69547   0.06459   0.00839   0.00000  Uiso   1.00
C919   C     0.70177   0.09331   0.04003   0.00000  Uiso   1.00
C920   C     0.70681   0.13128   0.02280   0.00000  Uiso   1.00
C921   C     0.79601   0.07381   0.98490   0.00000  Uiso   1.00
C922   C     0.82984   0.09675   0.99312   0.00000  Uiso   1.00
C923   C     0.82005   0.13360   0.01073   0.00000  Uiso   1.00
C924   C     0.92562   0.21397   0.00854   0.00000  Uiso   1.00
C925   C     0.89712   0.21820   0.04044   0.00000  Uiso   1.00
C926   C     0.86157   0.23328   0.02441   0.00000  Uiso   1.00
C927   C     0.52981   0.23767   0.54111   0.00000  Uiso   1.00
C928   C     0.95199   0.32179   0.98841   0.00000  Uiso   1.00
C929   C     0.92699   0.33046   0.95422   0.00000  Uiso   1.00
C930   C     0.88979   0.34334   0.96800   0.00000  Uiso   1.00
C931   C     0.81019   0.44624   0.00907   0.00000  Uiso   1.00
C932   C     0.83013   0.42015   0.03605   0.00000  Uiso   1.00
C933   C     0.82028   0.38047   0.02763   0.00000  Uiso   1.00
C934   C     0.70069   0.43595   0.99450   0.00000  Uiso   1.00
C935   C     0.70907   0.40646   0.96433   0.00000  Uiso   1.00
C936   C     0.71169   0.36889   0.98312   0.00000  Uiso   1.00
C937   C     0.57313   0.29005   0.00825   0.00000  Uiso   1.00
C938   C     0.97031   0.23415   0.45792   0.00000  Uiso   1.00
C939   C     0.60237   0.28456   0.03905   0.00000  Uiso   1.00
C940   C     0.63790   0.27136   0.02105   0.00000  Uiso   1.00
C941   C     0.55257   0.18256   0.98161   0.00000  Uiso   1.00
C942   C     0.56075   0.14501   0.99866   0.00000  Uiso   1.00
C943   C     0.60161   0.13884   0.00270   0.00000  Uiso   1.00
C944   C     0.93951   0.31055   0.51611   0.00000  Uiso   1.00
C945   C     0.92863   0.33372   0.55118   0.00000  Uiso   1.00
C946   C     0.93608   0.37415   0.54420   0.00000  Uiso   1.00
C947   C     0.54874   0.31770   0.49369   0.00000  Uiso   1.00
C948   C     0.54101   0.34702   0.46324   0.00000  Uiso   1.00
C949   C     0.76721   0.02672   0.54153   0.00000  Uiso   1.00
C950   C     0.53905   0.38482   0.48164   0.00000  Uiso   1.00
C951   C     0.67409   0.45906   0.50970   0.00000  Uiso   1.00
C952   C     0.64665   0.46816   0.54156   0.00000  Uiso   1.00
C953   C     0.60963   0.47777   0.52453   0.00000  Uiso   1.00
C954   C     0.69480   0.06744   0.48859   0.00000  Uiso   1.00
C955   C     0.67041   0.07834   0.45467   0.00000  Uiso   1.00
C956   C     0.63232   0.08843   0.46844   0.00000  Uiso   1.00
C957   C     0.55340   0.18841   0.50822   0.00000  Uiso   1.00
C958   C     0.55016   0.16028   0.54090   0.00000  Uiso   1.00
C959   C     0.54362   0.12201   0.52500   0.00000  Uiso   1.00
C960   C     0.75515   0.46789   0.45903   0.00000  Uiso   1.00
C961   C     0.95212   0.18043   0.48569   0.00000  Uiso   1.00
C962   C     0.91779   0.15708   0.48918   0.00000  Uiso   1.00
C963   C     0.92575   0.12022   0.50771   0.00000  Uiso   1.00
C964   C     0.81984   0.03847   0.50724   0.00000  Uiso   1.00
C965   C     0.84910   0.03426   0.53830   0.00000  Uiso   1.00
C966   C     0.88403   0.01855   0.52126   0.00000  Uiso   1.00
C967   C     0.80083   0.43312   0.48420   0.00000  Uiso   1.00
C968   C     0.80941   0.39401   0.49625   0.00000  Uiso   1.00
C969   C     0.84982   0.38902   0.50405   0.00000  Uiso   1.00
C970   C     0.60871   0.45052   0.18941   0.00000  Uiso   1.00
C971   C     0.71825   0.00959   0.08143   0.00000  Uiso   1.00
C972   C     0.57294   0.44445   0.16797   0.00000  Uiso   1.00
C973   C     0.54961   0.47880   0.16829   0.00000  Uiso   1.00
C974   C     0.82709   0.10466   0.83516   0.00000  Uiso   1.00
C975   C     0.83711   0.12489   0.87220   0.00000  Uiso   1.00
C976   C     0.80377   0.14234   0.89078   0.00000  Uiso   1.00
C977   C     0.53197   0.10007   0.25300   0.00000  Uiso   1.00
C978   C     0.53514   0.06039   0.26638   0.00000  Uiso   1.00
C979   C     0.50646   0.05166   0.29689   0.00000  Uiso   1.00
C980   C     0.93575   0.37666   0.82788   0.00000  Uiso   1.00
C981   C     0.92528   0.40779   0.85548   0.00000  Uiso   1.00
C982   C     0.78015   0.01572   0.91732   0.00000  Uiso   1.00
C983   C     0.88514   0.40638   0.86693   0.00000  Uiso   1.00
C984   C     0.89692   0.04599   0.19984   0.00000  Uiso   1.00
C985   C     0.93681   0.05479   0.19091   0.00000  Uiso   1.00
C986   C     0.96057   0.02082   0.19326   0.00000  Uiso   1.00
C987   C     0.67084   0.39412   0.83530   0.00000  Uiso   1.00
C988   C     0.65794   0.36669   0.86564   0.00000  Uiso   1.00
C989   C     0.68953   0.34408   0.88098   0.00000  Uiso   1.00
C990   C     0.96205   0.41022   0.25196   0.00000  Uiso   1.00
C991   C     0.50078   0.41833   0.23880   0.00000  Uiso   1.00
C992   C     0.52186   0.43949   0.26931   0.00000  Uiso   1.00
C993   C     0.98330   0.22184   0.08171   0.00000  Uiso   1.00
C994   C     0.56545   0.12563   0.83002   0.00000  Uiso   1.00
C995   C     0.58021   0.09604   0.85689   0.00000  Uiso   1.00
C996   C     0.57873   0.10832   0.89888   0.00000  Uiso   1.00
C997   C     0.59961   0.03242   0.75257   0.00000  Uiso   1.00
C998   C     0.55841   0.02681   0.75194   0.00000  Uiso   1.00
C999   C     0.54779   0.49666   0.72370   0.00000  Uiso   1.00
C1000  C     0.87767   0.43236   0.17017   0.00000  Uiso   1.00
C1001  C     0.91015   0.41912   0.14612   0.00000  Uiso   1.00
C1002  C     0.90039   0.41580   0.10363   0.00000  Uiso   1.00
C1003  C     0.54919   0.39439   0.80699   0.00000  Uiso   1.00
C1004  C     0.77871   0.01982   0.95729   0.00000  Uiso   1.00
C1005  C     0.99739   0.28392   0.91812   0.00000  Uiso   1.00
C1006  C     0.55694   0.43237   0.82360   0.00000  Uiso   1.00
C1007  C     0.52249   0.45542   0.82542   0.00000  Uiso   1.00
C1008  C     0.89378   0.16819   0.16459   0.00000  Uiso   1.00
C1009  C     0.86667   0.15371   0.13471   0.00000  Uiso   1.00
C1010  C     0.84099   0.18374   0.12123   0.00000  Uiso   1.00
C1011  C     0.90139   0.46779   0.74653   0.00000  Uiso   1.00
C1012  C     0.93554   0.48950   0.75674   0.00000  Uiso   1.00
C1013  C     0.94060   0.02232   0.73016   0.00000  Uiso   1.00
C1014  C     0.62629   0.06885   0.17015   0.00000  Uiso   1.00
C1015  C     0.59699   0.08547   0.14423   0.00000  Uiso   1.00
C1016  C     0.78332   0.49718   0.08142   0.00000  Uiso   1.00
C1017  C     0.61184   0.09380   0.10416   0.00000  Uiso   1.00
C1018  C     0.94960   0.10819   0.81062   0.00000  Uiso   1.00
C1019  C     0.94283   0.07164   0.83066   0.00000  Uiso   1.00
C1020  C     0.97755   0.04901   0.83287   0.00000  Uiso   1.00
C1021  C     0.60811   0.32805   0.16532   0.00000  Uiso   1.00
C1022  C     0.63583   0.34090   0.13525   0.00000  Uiso   1.00
C1023  C     0.65942   0.30932   0.12130   0.00000  Uiso   1.00
C1024  C     0.85305   0.20333   0.69797   0.00000  Uiso   1.00
C1025  C     0.81313   0.19403   0.68935   0.00000  Uiso   1.00
C1026  C     0.78927   0.22803   0.69045   0.00000  Uiso   1.00
C1027  C     0.72017   0.48716   0.91850   0.00000  Uiso   1.00
C1028  C     0.57952   0.35733   0.33526   0.00000  Uiso   1.00
C1029  C     0.59344   0.38407   0.36582   0.00000  Uiso   1.00
C1030  C     0.56311   0.40881   0.38042   0.00000  Uiso   1.00
C1031  C     0.78808   0.34103   0.74826   0.00000  Uiso   1.00
C1032  C     0.74949   0.33353   0.73437   0.00000  Uiso   1.00
C1033  C     0.72720   0.31374   0.76500   0.00000  Uiso   1.00
C1034  C     0.68497   0.12583   0.32956   0.00000  Uiso   1.00
C1035  C     0.67461   0.15702   0.35719   0.00000  Uiso   1.00
C1036  C     0.63452   0.15570   0.36880   0.00000  Uiso   1.00
C1037  C     0.64058   0.29985   0.68852   0.00000  Uiso   1.00
C1038  C     0.51674   0.27933   0.08234   0.00000  Uiso   1.00
C1039  C     0.67605   0.30562   0.66632   0.00000  Uiso   1.00
C1040  C     0.69944   0.27128   0.66678   0.00000  Uiso   1.00
C1041  C     0.91998   0.14580   0.33652   0.00000  Uiso   1.00
C1042  C     0.90661   0.12282   0.37049   0.00000  Uiso   1.00
C1043  C     0.93834   0.10633   0.39272   0.00000  Uiso   1.00
C1044  C     0.71790   0.15039   0.75293   0.00000  Uiso   1.00
C1045  C     0.71521   0.19059   0.76469   0.00000  Uiso   1.00
C1046  C     0.74388   0.20013   0.79487   0.00000  Uiso   1.00
C1047  C     0.81269   0.37157   0.32668   0.00000  Uiso   1.00
C1048  C     0.82527   0.34010   0.35235   0.00000  Uiso   1.00
C1049  C     0.50299   0.21766   0.91889   0.00000  Uiso   1.00
C1050  C     0.82172   0.35005   0.39488   0.00000  Uiso   1.00
C1051  C     0.84839   0.28268   0.24524   0.00000  Uiso   1.00
C1052  C     0.81460   0.26030   0.25534   0.00000  Uiso   1.00
C1053  C     0.81016   0.22752   0.22857   0.00000  Uiso   1.00
C1054  C     0.62575   0.18061   0.66952   0.00000  Uiso   1.00
C1055  C     0.65624   0.16354   0.64522   0.00000  Uiso   1.00
C1056  C     0.64436   0.15749   0.60363   0.00000  Uiso   1.00
C1057  C     0.79969   0.14289   0.30967   0.00000  Uiso   1.00
C1058  C     0.80625   0.17918   0.33034   0.00000  Uiso   1.00
C1059  C     0.77181   0.20229   0.33160   0.00000  Uiso   1.00
C1060  C     0.96670   0.25499   0.58194   0.00000  Uiso   1.00
C1061  C     0.64103   0.42283   0.66597   0.00000  Uiso   1.00
C1062  C     0.61210   0.41039   0.63704   0.00000  Uiso   1.00
C1063  C     0.58830   0.44227   0.62444   0.00000  Uiso   1.00
C1064  C     0.65024   0.21762   0.24947   0.00000  Uiso   1.00
C1065  C     0.69133   0.21796   0.24238   0.00000  Uiso   1.00
C1066  C     0.70189   0.24762   0.21359   0.00000  Uiso   1.00
C1067  C     0.87452   0.31495   0.66981   0.00000  Uiso   1.00
C1068  C     0.84268   0.32351   0.64251   0.00000  Uiso   1.00
C1069  C     0.84283   0.36327   0.62920   0.00000  Uiso   1.00
C1070  C     0.70048   0.35078   0.30259   0.00000  Uiso   1.00
C1071  C     0.52930   0.26516   0.41823   0.00000  Uiso   1.00
C1072  C     0.68924   0.31241   0.31583   0.00000  Uiso   1.00
C1073  C     0.72199   0.28725   0.31967   0.00000  Uiso   1.00
C1074  C     0.85615   0.08093   0.66505   0.00000  Uiso   1.00
C1075  C     0.88185   0.09488   0.63357   0.00000  Uiso   1.00
C1076  C     0.90668   0.06455   0.61899   0.00000  Uiso   1.00
C1077  C     0.66450   0.47974   0.09257   0.00000  Uiso   1.00
C1078  C     0.62630   0.48983   0.07875   0.00000  Uiso   1.00
C1079  C     0.60674   0.45725   0.06065   0.00000  Uiso   1.00
C1080  C     0.83984   0.00609   0.90105   0.00000  Uiso   1.00
C1081  C     0.87467   0.02876   0.90344   0.00000  Uiso   1.00
C1082  C     0.73160   0.47122   0.58255   0.00000  Uiso   1.00
C1083  C     0.90842   0.00470   0.90517   0.00000  Uiso   1.00
C1084  C     0.99123   0.16154   0.09385   0.00000  Uiso   1.00
C1085  C     0.97761   0.12880   0.11695   0.00000  Uiso   1.00
C1086  C     0.99861   0.09445   0.10588   0.00000  Uiso   1.00
C1087  C     0.53132   0.33469   0.90353   0.00000  Uiso   1.00
C1088  C     0.52525   0.37442   0.91555   0.00000  Uiso   1.00
C1089  C     0.56079   0.39253   0.92790   0.00000  Uiso   1.00
C1090  C     0.83507   0.02813   0.09784   0.00000  Uiso   1.00
C1091  C     0.87564   0.02138   0.09126   0.00000  Uiso   1.00
C1092  C     0.89698   0.05709   0.08873   0.00000  Uiso   1.00
C1093  C     0.74337   0.03287   0.41848   0.00000  Uiso   1.00
C1094  C     0.66058   0.49609   0.90181   0.00000  Uiso   1.00
C1095  C     0.62551   0.47367   0.90188   0.00000  Uiso   1.00
C1096  C     0.59205   0.49819   0.90065   0.00000  Uiso   1.00
C1097  C     0.50963   0.33945   0.09844   0.00000  Uiso   1.00
C1098  C     0.53324   0.37367   0.09541   0.00000  Uiso   1.00
C1099  C     0.50994   0.40802   0.09319   0.00000  Uiso   1.00
C1100  C     0.96658   0.16874   0.90497   0.00000  Uiso   1.00
C1101  C     0.96949   0.12987   0.92071   0.00000  Uiso   1.00
C1102  C     0.93232   0.11499   0.93264   0.00000  Uiso   1.00
C1103  C     0.91741   0.22224   0.60270   0.00000  Uiso   1.00
C1104  C     0.53175   0.24274   0.58104   0.00000  Uiso   1.00
C1105  C     0.88149   0.22211   0.58055   0.00000  Uiso   1.00
C1106  C     0.86279   0.18497   0.58296   0.00000  Uiso   1.00
C1107  C     0.58924   0.25666   0.40187   0.00000  Uiso   1.00
C1108  C     0.62349   0.27984   0.40703   0.00000  Uiso   1.00
C1109  C     0.65779   0.25650   0.40558   0.00000  Uiso   1.00
C1110  C     0.73928   0.41128   0.59930   0.00000  Uiso   1.00
C1111  C     0.71609   0.37704   0.59367   0.00000  Uiso   1.00
C1112  C     0.73949   0.34268   0.59382   0.00000  Uiso   1.00
C1113  C     0.77712   0.08400   0.40541   0.00000  Uiso   1.00
C1114  C     0.77076   0.12319   0.41916   0.00000  Uiso   1.00
C1115  C     0.97906   0.22500   0.04174   0.00000  Uiso   1.00
C1116  C     0.96919   0.23683   0.41779   0.00000  Uiso   1.00
C1117  C     0.80552   0.14008   0.43546   0.00000  Uiso   1.00
C1118  C     0.58589   0.27207   0.59151   0.00000  Uiso   1.00
C1119  C     0.62382   0.26150   0.57712   0.00000  Uiso   1.00
C1120  C     0.64327   0.29359   0.55794   0.00000  Uiso   1.00
C1121  C     0.90932   0.24540   0.40181   0.00000  Uiso   1.00
C1122  C     0.87470   0.22227   0.40213   0.00000  Uiso   1.00
C1123  C     0.84074   0.24587   0.40534   0.00000  Uiso   1.00
C1124  C     0.75750   0.08920   0.59730   0.00000  Uiso   1.00
C1125  C     0.78074   0.12380   0.59764   0.00000  Uiso   1.00
C1126  C     0.75720   0.15805   0.59744   0.00000  Uiso   1.00
C1127  C     0.76446   0.02904   0.58165   0.00000  Uiso   1.00
C1128  C     0.72614   0.41554   0.39439   0.00000  Uiso   1.00
C1129  C     0.71760   0.38955   0.42787   0.00000  Uiso   1.00
C1130  C     0.69206   0.35890   0.41565   0.00000  Uiso   1.00
C1131  C     0.75312   0.46701   0.41883   0.00000  Uiso   1.00
C1132  C     0.75099   0.00442   0.02099   0.00000  Uiso   1.00
C1133  C     0.75051   0.00293   0.97851   0.00000  Uiso   1.00
C1134  C     0.99973   0.25147   0.02149   0.00000  Uiso   1.00
C1135  C     0.99989   0.25148   0.97898   0.00000  Uiso   1.00
C1136  C     0.99863   0.24964   0.52112   0.00000  Uiso   1.00
C1137  C     0.99864   0.25120   0.47866   0.00000  Uiso   1.00
C1138  C     0.74649   0.00018   0.52156   0.00000  Uiso   1.00
C1139  C     0.99329   0.28391   0.95822   0.00000  Uiso   1.00
C1140  C     0.74602  -0.00000   0.47907   0.00000  Uiso   1.00
C1141  C     0.74996  -0.00000   0.35536   0.00000  Uiso   1.00
C1142  C     0.74980   0.00000   0.64482   0.00000  Uiso   1.00
C1143  C     0.99993   0.25018   0.35519   0.00000  Uiso   1.00
C1144  C     0.99996   0.24978   0.64473   0.00000  Uiso   1.00
C1145  C     0.99996   0.25007   0.85531   0.00000  Uiso   1.00
C1146  C     0.50007   0.25003   0.14480   0.00000  Uiso   1.00
C1147  C     0.75000   0.00003   0.85516   0.00000  Uiso   1.00
C1148  C     0.75009   0.00040   0.14470   0.00000  Uiso   1.00
C1149  C     0.67993   0.07013   0.25006   0.00000  Uiso   1.00
C1150  C     0.78239   0.49350   0.04134   0.00000  Uiso   1.00
C1151  C     0.82017   0.43017   0.74966   0.00000  Uiso   1.00
C1152  C     0.93004   0.18001   0.25003   0.00000  Uiso   1.00
C1153  C     0.57000   0.32017   0.74992   0.00000  Uiso   1.00
C1154  C     0.81996   0.42978   0.24984   0.00000  Uiso   1.00
C1155  C     0.68010   0.07006   0.75020   0.00000  Uiso   1.00
C1156  C     0.56988   0.32003   0.24999   0.00000  Uiso   1.00
C1157  C     0.92966   0.18017   0.75038   0.00000  Uiso   1.00
C1158  C     0.68006   0.43001   0.74997   0.00000  Uiso   1.00
C1159  C     0.82032   0.06984   0.25040   0.00000  Uiso   1.00
C1160  C     0.93004   0.32019   0.74988   0.00000  Uiso   1.00
C1161  C     0.72174   0.48523   0.95879   0.00000  Uiso   1.00
C1162  C     0.56992   0.17997   0.25008   0.00000  Uiso   1.00
C1163  C     0.81987   0.07002   0.75011   0.00000  Uiso   1.00
C1164  C     0.68009   0.42974   0.24979   0.00000  Uiso   1.00
C1165  C     0.57007   0.17987   0.75000   0.00000  Uiso   1.00
C1166  C     0.92995   0.31991   0.24993   0.00000  Uiso   1.00
C1167  C     0.62867   0.39759   0.21740   0.00000  Uiso   1.00
C1168  C     0.86734   0.10532   0.78452   0.00000  Uiso   1.00
C1169  C     0.59006   0.11683   0.23569   0.00000  Uiso   1.00
C1170  C     0.90807   0.38213   0.76887   0.00000  Uiso   1.00
C1171  C     0.87337   0.10050   0.21968   0.00000  Uiso   1.00
C1172  C     0.52044   0.27746   0.04229   0.00000  Uiso   1.00
C1173  C     0.63219   0.39492   0.78369   0.00000  Uiso   1.00
C1174  C     0.90938   0.38244   0.23483   0.00000  Uiso   1.00
C1175  C     0.59283   0.11893   0.77103   0.00000  Uiso   1.00
C1176  C     0.61792   0.09086   0.76727   0.00000  Uiso   1.00
C1177  C     0.88135   0.40748   0.23044   0.00000  Uiso   1.00
C1178  C     0.60218   0.37186   0.78192   0.00000  Uiso   1.00
C1179  C     0.89590   0.13085   0.21722   0.00000  Uiso   1.00
C1180  C     0.88317   0.41027   0.76435   0.00000  Uiso   1.00
C1181  C     0.61849   0.09236   0.23067   0.00000  Uiso   1.00
C1182  C     0.89695   0.12903   0.78313   0.00000  Uiso   1.00
C1183  C     0.50713   0.21882   0.95892   0.00000  Uiso   1.00
C1184  C     0.60503   0.36788   0.21595   0.00000  Uiso   1.00
C1185  C     0.87664   0.14934   0.71957   0.00000  Uiso   1.00
C1186  C     0.61782   0.35505   0.28340   0.00000  Uiso   1.00
C1187  C     0.84145   0.36815   0.73259   0.00000  Uiso   1.00
C1188  C     0.65729   0.13141   0.27058   0.00000  Uiso   1.00
C1189  C     0.62108   0.35266   0.71735   0.00000  Uiso   1.00
C1190  C     0.88203   0.14525   0.28418   0.00000  Uiso   1.00
C1191  C     0.65999   0.13311   0.73570   0.00000  Uiso   1.00
C1192  C     0.84162   0.36767   0.26836   0.00000  Uiso   1.00
C1193  C     0.86686   0.33972   0.26439   0.00000  Uiso   1.00
C1194  C     0.96753   0.26038   0.54215   0.00000  Uiso   1.00
C1195  C     0.63156   0.15753   0.73048   0.00000  Uiso   1.00
C1196  C     0.85249   0.12146   0.28284   0.00000  Uiso   1.00
C1197  C     0.64462   0.38243   0.71595   0.00000  Uiso   1.00
C1198  C     0.63241   0.15957   0.26610   0.00000  Uiso   1.00
C1199  C     0.86940   0.34295   0.72885   0.00000  Uiso   1.00
C1200  C     0.64828   0.37747   0.28121   0.00000  Uiso   1.00
C1201  C     0.85416   0.11894   0.71731   0.00000  Uiso   1.00
C1202  C     0.59770   0.34818   0.24985   0.00000  Uiso   1.00
C1203  C     0.90085   0.15258   0.75107   0.00000  Uiso   1.00
C1204  C     0.65165   0.09823   0.25048   0.00000  Uiso   1.00
H1205  H     0.67081   0.07249   0.99195   0.00000  Uiso   1.00
H1206  H     0.84765   0.08182   0.01345   0.00000  Uiso   1.00
H1207  H     0.81540   0.01230   0.49187   0.00000  Uiso   1.00
H1208  H     0.85490   0.06140   0.55122   0.00000  Uiso   1.00
H1209  H     0.83932   0.01566   0.56136   0.00000  Uiso   1.00
H1210  H     0.87885   0.49086   0.50936   0.00000  Uiso   1.00
H1211  H     0.90507   0.01641   0.54403   0.00000  Uiso   1.00
H1212  H     0.89455   0.03646   0.49796   0.00000  Uiso   1.00
H1213  H     0.80946   0.45180   0.50776   0.00000  Uiso   1.00
H1214  H     0.81638   0.43949   0.45737   0.00000  Uiso   1.00
H1215  H     0.79389   0.38704   0.52271   0.00000  Uiso   1.00
H1216  H     0.80100   0.37490   0.47307   0.00000  Uiso   1.00
H1217  H     0.84523   0.10116   0.96594   0.00000  Uiso   1.00
H1218  H     0.86591   0.39541   0.47779   0.00000  Uiso   1.00
H1219  H     0.85502   0.36024   0.51230   0.00000  Uiso   1.00
H1220  H     0.85862   0.40710   0.52802   0.00000  Uiso   1.00
H1221  H     0.62281   0.47431   0.17632   0.00000  Uiso   1.00
H1222  H     0.60322   0.45822   0.22003   0.00000  Uiso   1.00
H1223  H     0.57880   0.43667   0.13778   0.00000  Uiso   1.00
H1224  H     0.55757   0.42187   0.18163   0.00000  Uiso   1.00
H1225  H     0.54363   0.48719   0.19838   0.00000  Uiso   1.00
H1226  H     0.52355   0.47336   0.15320   0.00000  Uiso   1.00
H1227  H     0.56385   0.00143   0.15334   0.00000  Uiso   1.00
H1228  H     0.80288   0.14954   0.99056   0.00000  Uiso   1.00
H1229  H     0.80760   0.08246   0.84229   0.00000  Uiso   1.00
H1230  H     0.81241   0.12377   0.81547   0.00000  Uiso   1.00
H1231  H     0.84930   0.10546   0.89295   0.00000  Uiso   1.00
H1232  H     0.85746   0.14649   0.86562   0.00000  Uiso   1.00
H1233  H     0.79162   0.16278   0.87104   0.00000  Uiso   1.00
H1234  H     0.81191   0.15633   0.91782   0.00000  Uiso   1.00
H1235  H     0.78312   0.12117   0.89776   0.00000  Uiso   1.00
H1236  H     0.50383   0.10474   0.24250   0.00000  Uiso   1.00
H1237  H     0.53592   0.11885   0.27797   0.00000  Uiso   1.00
H1238  H     0.53155   0.04176   0.24141   0.00000  Uiso   1.00
H1239  H     0.84536   0.14916   0.01666   0.00000  Uiso   1.00
H1240  H     0.56257   0.05572   0.27881   0.00000  Uiso   1.00
H1241  H     0.50896   0.07071   0.32167   0.00000  Uiso   1.00
H1242  H     0.51035   0.02345   0.30762   0.00000  Uiso   1.00
H1243  H     0.97873   0.05396   0.28442   0.00000  Uiso   1.00
H1244  H     0.96275   0.36631   0.83704   0.00000  Uiso   1.00
H1245  H     0.91704   0.35275   0.83095   0.00000  Uiso   1.00
H1246  H     0.94172   0.40552   0.88224   0.00000  Uiso   1.00
H1247  H     0.93169   0.43466   0.84229   0.00000  Uiso   1.00
H1248  H     0.86734   0.41025   0.84154   0.00000  Uiso   1.00
H1249  H     0.87924   0.42828   0.88812   0.00000  Uiso   1.00
H1250  H     0.80517   0.12973   0.03831   0.00000  Uiso   1.00
H1251  H     0.87863   0.37973   0.88050   0.00000  Uiso   1.00
H1252  H     0.88842   0.02209   0.18236   0.00000  Uiso   1.00
H1253  H     0.89412   0.03752   0.23059   0.00000  Uiso   1.00
H1254  H     0.93882   0.06647   0.16158   0.00000  Uiso   1.00
H1255  H     0.94722   0.07527   0.21179   0.00000  Uiso   1.00
H1256  H     0.95918   0.00871   0.22256   0.00000  Uiso   1.00
H1257  H     0.98917   0.02848   0.18698   0.00000  Uiso   1.00
H1258  H     0.95166   0.00027   0.17170   0.00000  Uiso   1.00
H1259  H     0.68768   0.41523   0.84980   0.00000  Uiso   1.00
H1260  H     0.68921   0.38048   0.81408   0.00000  Uiso   1.00
H1261  H     0.91468   0.19468   0.98673   0.00000  Uiso   1.00
H1262  H     0.64502   0.38167   0.88988   0.00000  Uiso   1.00
H1263  H     0.63747   0.34787   0.85297   0.00000  Uiso   1.00
H1264  H     0.70033   0.32606   0.85794   0.00000  Uiso   1.00
H1265  H     0.67992   0.32674   0.90518   0.00000  Uiso   1.00
H1266  H     0.71173   0.36214   0.89139   0.00000  Uiso   1.00
H1267  H     0.96321   0.39325   0.27861   0.00000  Uiso   1.00
H1268  H     0.94814   0.43654   0.25843   0.00000  Uiso   1.00
H1269  H     0.51507   0.39227   0.23266   0.00000  Uiso   1.00
H1270  H     0.99968   0.43463   0.21189   0.00000  Uiso   1.00
H1271  H     0.50964   0.46687   0.27335   0.00000  Uiso   1.00
H1272  H     0.92995   0.24005   0.99308   0.00000  Uiso   1.00
H1273  H     0.55056   0.44284   0.26003   0.00000  Uiso   1.00
H1274  H     0.52139   0.42455   0.29709   0.00000  Uiso   1.00
H1275  H     0.53805   0.13380   0.84042   0.00000  Uiso   1.00
H1276  H     0.58285   0.15061   0.83188   0.00000  Uiso   1.00
H1277  H     0.56384   0.07075   0.85345   0.00000  Uiso   1.00
H1278  H     0.60893   0.08996   0.84939   0.00000  Uiso   1.00
H1279  H     0.59484   0.13373   0.90286   0.00000  Uiso   1.00
H1280  H     0.59026   0.08676   0.91765   0.00000  Uiso   1.00
H1281  H     0.55016   0.11338   0.90773   0.00000  Uiso   1.00
H1282  H     0.61273   0.00581   0.75898   0.00000  Uiso   1.00
H1283  H     0.89200   0.19111   0.05377   0.00000  Uiso   1.00
H1284  H     0.60929   0.04074   0.72331   0.00000  Uiso   1.00
H1285  H     0.54892   0.01930   0.78125   0.00000  Uiso   1.00
H1286  H     0.54487   0.05263   0.74339   0.00000  Uiso   1.00
H1287  H     0.55636   0.00412   0.69404   0.00000  Uiso   1.00
H1288  H     0.51787   0.49287   0.72400   0.00000  Uiso   1.00
H1289  H     0.56075   0.47044   0.73196   0.00000  Uiso   1.00
H1290  H     0.86807   0.45869   0.15823   0.00000  Uiso   1.00
H1291  H     0.85432   0.41298   0.16713   0.00000  Uiso   1.00
H1292  H     0.93328   0.43842   0.14944   0.00000  Uiso   1.00
H1293  H     0.91879   0.39174   0.15603   0.00000  Uiso   1.00
H1294  H     0.90731   0.23711   0.06304   0.00000  Uiso   1.00
H1295  H     0.87795   0.39579   0.09987   0.00000  Uiso   1.00
H1296  H     0.92436   0.40607   0.08712   0.00000  Uiso   1.00
H1297  H     0.89201   0.44264   0.09200   0.00000  Uiso   1.00
H1298  H     0.52532   0.38259   0.82211   0.00000  Uiso   1.00
H1299  H     0.54116   0.39675   0.77605   0.00000  Uiso   1.00
H1300  H     0.56810   0.42965   0.85306   0.00000  Uiso   1.00
H1301  H     0.57733   0.44667   0.80539   0.00000  Uiso   1.00
H1302  H     0.51099   0.45897   0.79613   0.00000  Uiso   1.00
H1303  H     0.52911   0.48269   0.83750   0.00000  Uiso   1.00
H1304  H     0.50188   0.44229   0.84429   0.00000  Uiso   1.00
H1305  H     0.86606   0.26093   0.01225   0.00000  Uiso   1.00
H1306  H     0.91413   0.18548   0.14954   0.00000  Uiso   1.00
H1307  H     0.87976   0.18676   0.18537   0.00000  Uiso   1.00
H1308  H     0.88183   0.14272   0.10954   0.00000  Uiso   1.00
H1309  H     0.85009   0.13130   0.14722   0.00000  Uiso   1.00
H1310  H     0.82211   0.19136   0.14489   0.00000  Uiso   1.00
H1311  H     0.82473   0.17383   0.09638   0.00000  Uiso   1.00
H1312  H     0.85658   0.20830   0.11235   0.00000  Uiso   1.00
H1313  H     0.87850   0.48704   0.74185   0.00000  Uiso   1.00
H1314  H     0.90653   0.45319   0.71873   0.00000  Uiso   1.00
H1315  H     0.93357   0.49913   0.78697   0.00000  Uiso   1.00
H1316  H     0.71808   0.06491   0.98726   0.00000  Uiso   1.00
H1317  H     0.84105   0.23526   0.04781   0.00000  Uiso   1.00
H1318  H     0.95957   0.47133   0.75443   0.00000  Uiso   1.00
H1319  H     0.94197   0.01327   0.69964   0.00000  Uiso   1.00
H1320  H     0.96627   0.03673   0.73742   0.00000  Uiso   1.00
H1321  H     0.91771   0.04176   0.73381   0.00000  Uiso   1.00
H1322  H     0.63466   0.04228   0.15755   0.00000  Uiso   1.00
H1323  H     0.65117   0.08643   0.17005   0.00000  Uiso   1.00
H1324  H     0.57382   0.06612   0.14191   0.00000  Uiso   1.00
H1325  H     0.58700   0.11146   0.15669   0.00000  Uiso   1.00
H1326  H     0.63369   0.11469   0.10607   0.00000  Uiso   1.00
H1327  H     0.58981   0.10468   0.08566   0.00000  Uiso   1.00
H1328  H     0.85074   0.21512   0.00148   0.00000  Uiso   1.00
H1329  H     0.62280   0.06873   0.09063   0.00000  Uiso   1.00
H1330  H     0.97328   0.12168   0.82449   0.00000  Uiso   1.00
H1331  H     0.95754   0.10343   0.77992   0.00000  Uiso   1.00
H1332  H     0.93272   0.07652   0.86026   0.00000  Uiso   1.00
H1333  H     0.92183   0.05608   0.81465   0.00000  Uiso   1.00
H1334  H     0.98899   0.04457   0.80365   0.00000  Uiso   1.00
H1335  H     0.97137   0.02207   0.84596   0.00000  Uiso   1.00
H1336  H     0.99809   0.06307   0.85099   0.00000  Uiso   1.00
H1337  H     0.58787   0.31021   0.15083   0.00000  Uiso   1.00
H1338  H     0.62177   0.31049   0.18728   0.00000  Uiso   1.00
H1339  H     0.95155   0.34537   0.00855   0.00000  Uiso   1.00
H1340  H     0.62123   0.35314   0.11042   0.00000  Uiso   1.00
H1341  H     0.65394   0.36203   0.14785   0.00000  Uiso   1.00
H1342  H     0.67751   0.30001   0.14490   0.00000  Uiso   1.00
H1343  H     0.67654   0.31847   0.09674   0.00000  Uiso   1.00
H1344  H     0.64221   0.28607   0.11185   0.00000  Uiso   1.00
H1345  H     0.86132   0.22664   0.67949   0.00000  Uiso   1.00
H1346  H     0.85575   0.21293   0.72836   0.00000  Uiso   1.00
H1347  H     0.81091   0.18136   0.66045   0.00000  Uiso   1.00
H1348  H     0.80275   0.17431   0.71102   0.00000  Uiso   1.00
H1349  H     0.79013   0.24082   0.71948   0.00000  Uiso   1.00
H1350  H     0.94167   0.29818   0.00517   0.00000  Uiso   1.00
H1351  H     0.76079   0.22021   0.68382   0.00000  Uiso   1.00
H1352  H     0.79854   0.24813   0.66859   0.00000  Uiso   1.00
H1353  H     0.56181   0.33685   0.34961   0.00000  Uiso   1.00
H1354  H     0.56173   0.37181   0.31417   0.00000  Uiso   1.00
H1355  H     0.60471   0.36838   0.39038   0.00000  Uiso   1.00
H1356  H     0.61543   0.40141   0.35361   0.00000  Uiso   1.00
H1357  H     0.55439   0.42774   0.35728   0.00000  Uiso   1.00
H1358  H     0.57321   0.42527   0.40508   0.00000  Uiso   1.00
H1359  H     0.53936   0.39234   0.38996   0.00000  Uiso   1.00
H1360  H     0.78662   0.35815   0.77483   0.00000  Uiso   1.00
H1361  H     0.93945   0.35224   0.93623   0.00000  Uiso   1.00
H1362  H     0.80133   0.31450   0.75519   0.00000  Uiso   1.00
H1363  H     0.73603   0.35976   0.72721   0.00000  Uiso   1.00
H1364  H     0.75078   0.31653   0.70791   0.00000  Uiso   1.00
H1365  H     0.73839   0.28603   0.76982   0.00000  Uiso   1.00
H1366  H     0.69857   0.31120   0.75536   0.00000  Uiso   1.00
H1367  H     0.72765   0.32920   0.79250   0.00000  Uiso   1.00
H1368  H     0.71196   0.11542   0.33867   0.00000  Uiso   1.00
H1369  H     0.66619   0.10197   0.33261   0.00000  Uiso   1.00
H1370  H     0.69112   0.15474   0.38391   0.00000  Uiso   1.00
H1371  H     0.68100   0.18390   0.34400   0.00000  Uiso   1.00
H1372  H     0.92336   0.30566   0.93617   0.00000  Uiso   1.00
H1373  H     0.61662   0.15872   0.34335   0.00000  Uiso   1.00
H1374  H     0.62857   0.17822   0.38925   0.00000  Uiso   1.00
H1375  H     0.62823   0.12941   0.38323   0.00000  Uiso   1.00
H1376  H     0.62611   0.27617   0.67565   0.00000  Uiso   1.00
H1377  H     0.64648   0.29203   0.71897   0.00000  Uiso   1.00
H1378  H     0.66975   0.31288   0.63611   0.00000  Uiso   1.00
H1379  H     0.69157   0.32846   0.67930   0.00000  Uiso   1.00
H1380  H     0.70609   0.26355   0.69687   0.00000  Uiso   1.00
H1381  H     0.72517   0.27638   0.65089   0.00000  Uiso   1.00
H1382  H     0.68491   0.24830   0.65275   0.00000  Uiso   1.00
H1383  H     0.87710   0.32255   0.98700   0.00000  Uiso   1.00
H1384  H     0.93824   0.16759   0.34756   0.00000  Uiso   1.00
H1385  H     0.93695   0.12858   0.31690   0.00000  Uiso   1.00
H1386  H     0.89043   0.14021   0.39028   0.00000  Uiso   1.00
H1387  H     0.88887   0.10044   0.35975   0.00000  Uiso   1.00
H1388  H     0.95453   0.08818   0.37367   0.00000  Uiso   1.00
H1389  H     0.92772   0.09001   0.41723   0.00000  Uiso   1.00
H1390  H     0.95619   0.12826   0.40424   0.00000  Uiso   1.00
H1391  H     0.74608   0.14490   0.74289   0.00000  Uiso   1.00
H1392  H     0.71339   0.13258   0.77855   0.00000  Uiso   1.00
H1393  H     0.71915   0.20819   0.73899   0.00000  Uiso   1.00
H1394  H     0.87174   0.34782   0.94286   0.00000  Uiso   1.00
H1395  H     0.68778   0.19610   0.77684   0.00000  Uiso   1.00
H1396  H     0.74075   0.18236   0.82058   0.00000  Uiso   1.00
H1397  H     0.74058   0.22893   0.80407   0.00000  Uiso   1.00
H1398  H     0.77163   0.19661   0.78272   0.00000  Uiso   1.00
H1399  H     0.78532   0.38034   0.33640   0.00000  Uiso   1.00
H1400  H     0.83092   0.39571   0.33074   0.00000  Uiso   1.00
H1401  H     0.80856   0.31545   0.34630   0.00000  Uiso   1.00
H1402  H     0.85422   0.33376   0.34617   0.00000  Uiso   1.00
H1403  H     0.83700   0.37553   0.40130   0.00000  Uiso   1.00
H1404  H     0.83287   0.32780   0.41296   0.00000  Uiso   1.00
H1405  H     0.89253   0.36945   0.98405   0.00000  Uiso   1.00
H1406  H     0.79265   0.35391   0.40241   0.00000  Uiso   1.00
H1407  H     0.87149   0.26390   0.23964   0.00000  Uiso   1.00
H1408  H     0.84271   0.29791   0.21799   0.00000  Uiso   1.00
H1409  H     0.81672   0.25057   0.28549   0.00000  Uiso   1.00
H1410  H     0.79022   0.27800   0.25317   0.00000  Uiso   1.00
H1411  H     0.80865   0.23669   0.19813   0.00000  Uiso   1.00
H1412  H     0.78475   0.21261   0.23580   0.00000  Uiso   1.00
H1413  H     0.83338   0.20847   0.23207   0.00000  Uiso   1.00
H1414  H     0.61808   0.20707   0.65624   0.00000  Uiso   1.00
H1415  H     0.60084   0.16312   0.66845   0.00000  Uiso   1.00
H1416  H     0.82299   0.44451   0.98012   0.00000  Uiso   1.00
H1417  H     0.68048   0.18165   0.64575   0.00000  Uiso   1.00
H1418  H     0.66387   0.13656   0.65714   0.00000  Uiso   1.00
H1419  H     0.62141   0.13776   0.60262   0.00000  Uiso   1.00
H1420  H     0.66738   0.14613   0.58672   0.00000  Uiso   1.00
H1421  H     0.63586   0.18357   0.59033   0.00000  Uiso   1.00
H1422  H     0.77562   0.12944   0.32284   0.00000  Uiso   1.00
H1423  H     0.79247   0.14796   0.27885   0.00000  Uiso   1.00
H1424  H     0.81543   0.17393   0.36019   0.00000  Uiso   1.00
H1425  H     0.82789   0.19463   0.31517   0.00000  Uiso   1.00
H1426  H     0.76167   0.20732   0.30202   0.00000  Uiso   1.00
H1427  H     0.67814   0.09353   0.05985   0.00000  Uiso   1.00
H1428  H     0.78162   0.43715   0.00513   0.00000  Uiso   1.00
H1429  H     0.77784   0.22896   0.34541   0.00000  Uiso   1.00
H1430  H     0.75028   0.18834   0.34852   0.00000  Uiso   1.00
H1431  H     0.66099   0.44039   0.65069   0.00000  Uiso   1.00
H1432  H     0.62841   0.44059   0.68851   0.00000  Uiso   1.00
H1433  H     0.62567   0.39816   0.61148   0.00000  Uiso   1.00
H1434  H     0.59426   0.38936   0.65023   0.00000  Uiso   1.00
H1435  H     0.57092   0.45134   0.64880   0.00000  Uiso   1.00
H1436  H     0.57045   0.43353   0.60033   0.00000  Uiso   1.00
H1437  H     0.60533   0.46559   0.61481   0.00000  Uiso   1.00
H1438  H     0.64158   0.24550   0.25808   0.00000  Uiso   1.00
H1439  H     0.85990   0.42401   0.03224   0.00000  Uiso   1.00
H1440  H     0.63563   0.21127   0.22208   0.00000  Uiso   1.00
H1441  H     0.70564   0.22297   0.26999   0.00000  Uiso   1.00
H1442  H     0.70005   0.19100   0.23100   0.00000  Uiso   1.00
H1443  H     0.68828   0.24266   0.18551   0.00000  Uiso   1.00
H1444  H     0.73176   0.24739   0.20900   0.00000  Uiso   1.00
H1445  H     0.69397   0.27494   0.22465   0.00000  Uiso   1.00
H1446  H     0.88598   0.28820   0.66095   0.00000  Uiso   1.00
H1447  H     0.89743   0.33476   0.66613   0.00000  Uiso   1.00
H1448  H     0.84480   0.30596   0.61646   0.00000  Uiso   1.00
H1449  H     0.81626   0.31704   0.65657   0.00000  Uiso   1.00
H1450  H     0.82292   0.42631   0.06646   0.00000  Uiso   1.00
H1451  H     0.84076   0.38216   0.65406   0.00000  Uiso   1.00
H1452  H     0.81935   0.36812   0.60980   0.00000  Uiso   1.00
H1453  H     0.86822   0.36935   0.61303   0.00000  Uiso   1.00
H1454  H     0.72536   0.35900   0.31830   0.00000  Uiso   1.00
H1455  H     0.70832   0.35026   0.27148   0.00000  Uiso   1.00
H1456  H     0.67532   0.31414   0.34408   0.00000  Uiso   1.00
H1457  H     0.67000   0.30032   0.29470   0.00000  Uiso   1.00
H1458  H     0.73604   0.28451   0.29152   0.00000  Uiso   1.00
H1459  H     0.71272   0.25987   0.32925   0.00000  Uiso   1.00
H1460  H     0.74133   0.29813   0.34142   0.00000  Uiso   1.00
H1461  H     0.79170   0.37506   0.03629   0.00000  Uiso   1.00
H1462  H     0.83551   0.06288   0.65149   0.00000  Uiso   1.00
H1463  H     0.87134   0.06331   0.68577   0.00000  Uiso   1.00
H1464  H     0.86552   0.10561   0.60920   0.00000  Uiso   1.00
H1465  H     0.89905   0.11739   0.64495   0.00000  Uiso   1.00
H1466  H     0.92611   0.05648   0.64192   0.00000  Uiso   1.00
H1467  H     0.92237   0.07436   0.59366   0.00000  Uiso   1.00
H1468  H     0.89044   0.04030   0.61044   0.00000  Uiso   1.00
H1469  H     0.66215   0.46408   0.11984   0.00000  Uiso   1.00
H1470  H     0.67715   0.46084   0.07114   0.00000  Uiso   1.00
H1471  H     0.61020   0.00017   0.10351   0.00000  Uiso   1.00
H1472  H     0.83833   0.36211   0.04432   0.00000  Uiso   1.00
H1473  H     0.62798   0.01182   0.05683   0.00000  Uiso   1.00
H1474  H     0.61906   0.45065   0.03228   0.00000  Uiso   1.00
H1475  H     0.57769   0.46414   0.05598   0.00000  Uiso   1.00
H1476  H     0.60851   0.43284   0.07946   0.00000  Uiso   1.00
H1477  H     0.84112   0.48833   0.87509   0.00000  Uiso   1.00
H1478  H     0.83872   0.48800   0.92691   0.00000  Uiso   1.00
H1479  H     0.87660   0.04657   0.87773   0.00000  Uiso   1.00
H1480  H     0.87369   0.04628   0.92957   0.00000  Uiso   1.00
H1481  H     0.90656   0.48534   0.92971   0.00000  Uiso   1.00
H1482  H     0.93294   0.02201   0.90915   0.00000  Uiso   1.00
H1483  H     0.82342   0.37442   0.99646   0.00000  Uiso   1.00
H1484  H     0.91141   0.48925   0.87784   0.00000  Uiso   1.00
H1485  H     0.51984   0.16744   0.10266   0.00000  Uiso   1.00
H1486  H     0.99088   0.15394   0.06282   0.00000  Uiso   1.00
H1487  H     0.98121   0.13427   0.14823   0.00000  Uiso   1.00
H1488  H     0.94824   0.12428   0.11109   0.00000  Uiso   1.00
H1489  H     0.99250   0.08664   0.07564   0.00000  Uiso   1.00
H1490  H     0.99106   0.07147   0.12501   0.00000  Uiso   1.00
H1491  H     0.52818   0.09942   0.10870   0.00000  Uiso   1.00
H1492  H     0.54585   0.33422   0.87545   0.00000  Uiso   1.00
H1493  H     0.54971   0.32142   0.92497   0.00000  Uiso   1.00
H1494  H     0.67634   0.42692   0.01086   0.00000  Uiso   1.00
H1495  H     0.51325   0.38979   0.89115   0.00000  Uiso   1.00
H1496  H     0.50583   0.37572   0.94002   0.00000  Uiso   1.00
H1497  H     0.57159   0.37915   0.95421   0.00000  Uiso   1.00
H1498  H     0.55587   0.42175   0.93445   0.00000  Uiso   1.00
H1499  H     0.58135   0.39048   0.90459   0.00000  Uiso   1.00
H1500  H     0.83135   0.04280   0.12561   0.00000  Uiso   1.00
H1501  H     0.82526   0.04649   0.07432   0.00000  Uiso   1.00
H1502  H     0.88670   0.00500   0.11536   0.00000  Uiso   1.00
H1503  H     0.87945   0.00582   0.06405   0.00000  Uiso   1.00
H1504  H     0.88904   0.07265   0.06273   0.00000  Uiso   1.00
H1505  H     0.72272   0.43822   0.01606   0.00000  Uiso   1.00
H1506  H     0.92652   0.05109   0.08697   0.00000  Uiso   1.00
H1507  H     0.89185   0.07418   0.11454   0.00000  Uiso   1.00
H1508  H     0.66084   0.01422   0.87615   0.00000  Uiso   1.00
H1509  H     0.66053   0.01378   0.92806   0.00000  Uiso   1.00
H1510  H     0.62522   0.45537   0.87642   0.00000  Uiso   1.00
H1511  H     0.62449   0.45654   0.92829   0.00000  Uiso   1.00
H1512  H     0.59201   0.01724   0.92556   0.00000  Uiso   1.00
H1513  H     0.56702   0.48128   0.90197   0.00000  Uiso   1.00
H1514  H     0.59178   0.01399   0.87338   0.00000  Uiso   1.00
H1515  H     0.99230   0.34149   0.12463   0.00000  Uiso   1.00
H1516  H     0.68712   0.40601   0.94238   0.00000  Uiso   1.00
H1517  H     0.99118   0.33880   0.07285   0.00000  Uiso   1.00
H1518  H     0.55122   0.37554   0.12095   0.00000  Uiso   1.00
H1519  H     0.55060   0.37188   0.06922   0.00000  Uiso   1.00
H1520  H     0.99180   0.40684   0.06765   0.00000  Uiso   1.00
H1521  H     0.52770   0.43238   0.09045   0.00000  Uiso   1.00
H1522  H     0.99327   0.41090   0.11973   0.00000  Uiso   1.00
H1523  H     0.95352   0.16775   0.87616   0.00000  Uiso   1.00
H1524  H     0.94789   0.18475   0.92401   0.00000  Uiso   1.00
H1525  H     0.98154   0.11190   0.89834   0.00000  Uiso   1.00
H1526  H     0.98761   0.12943   0.94623   0.00000  Uiso   1.00
H1527  H     0.73531   0.41264   0.94978   0.00000  Uiso   1.00
H1528  H     0.92157   0.13054   0.95766   0.00000  Uiso   1.00
H1529  H     0.93488   0.08590   0.94105   0.00000  Uiso   1.00
H1530  H     0.91278   0.11716   0.90844   0.00000  Uiso   1.00
H1531  H     0.91164   0.21610   0.63341   0.00000  Uiso   1.00
H1532  H     0.93494   0.19950   0.59180   0.00000  Uiso   1.00
H1533  H     0.86312   0.24327   0.59265   0.00000  Uiso   1.00
H1534  H     0.88670   0.22860   0.54980   0.00000  Uiso   1.00
H1535  H     0.88092   0.16318   0.57186   0.00000  Uiso   1.00
H1536  H     0.83755   0.18528   0.56546   0.00000  Uiso   1.00
H1537  H     0.85567   0.17856   0.61321   0.00000  Uiso   1.00
H1538  H     0.72648   0.08658   0.05697   0.00000  Uiso   1.00
H1539  H     0.73208   0.36927   0.00665   0.00000  Uiso   1.00
H1540  H     0.59160   0.24073   0.37471   0.00000  Uiso   1.00
H1541  H     0.58774   0.23676   0.42623   0.00000  Uiso   1.00
H1542  H     0.62480   0.30064   0.38388   0.00000  Uiso   1.00
H1543  H     0.62223   0.29429   0.43518   0.00000  Uiso   1.00
H1544  H     0.65710   0.23547   0.42860   0.00000  Uiso   1.00
H1545  H     0.68211   0.27403   0.40996   0.00000  Uiso   1.00
H1546  H     0.66016   0.24293   0.37707   0.00000  Uiso   1.00
H1547  H     0.75490   0.40857   0.62654   0.00000  Uiso   1.00
H1548  H     0.75936   0.41273   0.57515   0.00000  Uiso   1.00
H1549  H     0.69567   0.37510   0.61715   0.00000  Uiso   1.00
H1550  H     0.72021   0.34834   0.96145   0.00000  Uiso   1.00
H1551  H     0.70137   0.37887   0.56579   0.00000  Uiso   1.00
H1552  H     0.76036   0.34404   0.57070   0.00000  Uiso   1.00
H1553  H     0.72211   0.31838   0.58866   0.00000  Uiso   1.00
H1554  H     0.75314   0.33952   0.62216   0.00000  Uiso   1.00
H1555  H     0.79183   0.08479   0.37744   0.00000  Uiso   1.00
H1556  H     0.79560   0.06997   0.42622   0.00000  Uiso   1.00
H1557  H     0.76086   0.13988   0.39470   0.00000  Uiso   1.00
H1558  H     0.74957   0.12372   0.44195   0.00000  Uiso   1.00
H1559  H     0.81347   0.12592   0.46245   0.00000  Uiso   1.00
H1560  H     0.80085   0.16933   0.44212   0.00000  Uiso   1.00
H1561  H     0.68485   0.36066   0.99509   0.00000  Uiso   1.00
H1562  H     0.82811   0.13782   0.41439   0.00000  Uiso   1.00
H1563  H     0.58869   0.28779   0.61871   0.00000  Uiso   1.00
H1564  H     0.57322   0.29111   0.57029   0.00000  Uiso   1.00
H1565  H     0.64024   0.25161   0.60178   0.00000  Uiso   1.00
H1566  H     0.62168   0.23903   0.55575   0.00000  Uiso   1.00
H1567  H     0.63028   0.29990   0.52988   0.00000  Uiso   1.00
H1568  H     0.67211   0.28631   0.55248   0.00000  Uiso   1.00
H1569  H     0.64226   0.31827   0.57646   0.00000  Uiso   1.00
H1570  H     0.90865   0.26408   0.37660   0.00000  Uiso   1.00
H1571  H     0.90947   0.26254   0.42846   0.00000  Uiso   1.00
H1572  H     0.58347   0.31026   0.98704   0.00000  Uiso   1.00
H1573  H     0.87324   0.20612   0.37517   0.00000  Uiso   1.00
H1574  H     0.87546   0.20315   0.42692   0.00000  Uiso   1.00
H1575  H     0.84173   0.26268   0.43196   0.00000  Uiso   1.00
H1576  H     0.81624   0.22819   0.40667   0.00000  Uiso   1.00
H1577  H     0.83852   0.26387   0.37977   0.00000  Uiso   1.00
H1578  H     0.73861   0.08970   0.62234   0.00000  Uiso   1.00
H1579  H     0.74078   0.08958   0.57043   0.00000  Uiso   1.00
H1580  H     0.79797   0.12410   0.62379   0.00000  Uiso   1.00
H1581  H     0.79882   0.12393   0.57193   0.00000  Uiso   1.00
H1582  H     0.73940   0.15840   0.57160   0.00000  Uiso   1.00
H1583  H     0.56859   0.26450   0.99183   0.00000  Uiso   1.00
H1584  H     0.77482   0.18268   0.59690   0.00000  Uiso   1.00
H1585  H     0.74014   0.15902   0.62384   0.00000  Uiso   1.00
H1586  H     0.72930   0.39939   0.36767   0.00000  Uiso   1.00
H1587  H     0.70262   0.43415   0.38919   0.00000  Uiso   1.00
H1588  H     0.74302   0.37716   0.43891   0.00000  Uiso   1.00
H1589  H     0.70466   0.40512   0.45160   0.00000  Uiso   1.00
H1590  H     0.66784   0.37017   0.40090   0.00000  Uiso   1.00
H1591  H     0.68305   0.34328   0.44136   0.00000  Uiso   1.00
H1592  H     0.70660   0.34007   0.39593   0.00000  Uiso   1.00
H1593  H     0.60723   0.31086   0.05416   0.00000  Uiso   1.00
H1594  H     0.59300   0.26405   0.06046   0.00000  Uiso   1.00
H1595  H     0.63352   0.24501   0.00584   0.00000  Uiso   1.00
H1596  H     0.65857   0.26717   0.04389   0.00000  Uiso   1.00
H1597  H     0.64847   0.29190   0.00032   0.00000  Uiso   1.00
H1598  H     0.73104   0.13180   0.00364   0.00000  Uiso   1.00
H1599  H     0.56391   0.20357   0.00137   0.00000  Uiso   1.00
H1600  H     0.56604   0.18462   0.95285   0.00000  Uiso   1.00
H1601  H     0.54787   0.14269   0.02753   0.00000  Uiso   1.00
H1602  H     0.54911   0.12346   0.97981   0.00000  Uiso   1.00
H1603  H     0.61528   0.14138   0.97427   0.00000  Uiso   1.00
H1604  H     0.60667   0.11100   0.01405   0.00000  Uiso   1.00
H1605  H     0.61349   0.15906   0.02300   0.00000  Uiso   1.00
H1606  H     0.92049   0.31694   0.49221   0.00000  Uiso   1.00
H1607  H     0.96691   0.31830   0.50542   0.00000  Uiso   1.00
H1608  H     0.89924   0.32952   0.55736   0.00000  Uiso   1.00
H1609  H     0.71088   0.15146   0.04629   0.00000  Uiso   1.00
H1610  H     0.94428   0.32541   0.57700   0.00000  Uiso   1.00
H1611  H     0.96581   0.37934   0.54448   0.00000  Uiso   1.00
H1612  H     0.92333   0.39061   0.56744   0.00000  Uiso   1.00
H1613  H     0.92495   0.38295   0.51601   0.00000  Uiso   1.00
H1614  H     0.57291   0.32659   0.51038   0.00000  Uiso   1.00
H1615  H     0.52632   0.31574   0.51490   0.00000  Uiso   1.00
H1616  H     0.56303   0.34681   0.44132   0.00000  Uiso   1.00
H1617  H     0.51473   0.34113   0.44870   0.00000  Uiso   1.00
H1618  H     0.51852   0.38511   0.50508   0.00000  Uiso   1.00
H1619  H     0.53106   0.40533   0.45977   0.00000  Uiso   1.00
H1620  H     0.68243   0.13921   0.00597   0.00000  Uiso   1.00
H1621  H     0.56597   0.39259   0.49363   0.00000  Uiso   1.00
H1622  H     0.66224   0.43698   0.49169   0.00000  Uiso   1.00
H1623  H     0.67804   0.48253   0.49005   0.00000  Uiso   1.00
H1624  H     0.64368   0.44418   0.56084   0.00000  Uiso   1.00
H1625  H     0.65657   0.49172   0.55882   0.00000  Uiso   1.00
H1626  H     0.61229   0.00104   0.50426   0.00000  Uiso   1.00
H1627  H     0.59059   0.48567   0.54791   0.00000  Uiso   1.00
H1628  H     0.59809   0.45393   0.50896   0.00000  Uiso   1.00
H1629  H     0.69320   0.08913   0.51092   0.00000  Uiso   1.00
H1630  H     0.68469   0.04215   0.50260   0.00000  Uiso   1.00
H1631  H     0.77901   0.07296   0.01136   0.00000  Uiso   1.00
H1632  H     0.68249   0.10215   0.43945   0.00000  Uiso   1.00
H1633  H     0.66834   0.05526   0.43400   0.00000  Uiso   1.00
H1634  H     0.61988   0.06537   0.48450   0.00000  Uiso   1.00
H1635  H     0.61485   0.09483   0.44330   0.00000  Uiso   1.00
H1636  H     0.63353   0.11281   0.48746   0.00000  Uiso   1.00
H1637  H     0.57684   0.18065   0.48973   0.00000  Uiso   1.00
H1638  H     0.52917   0.18729   0.48931   0.00000  Uiso   1.00
H1639  H     0.57555   0.16052   0.55812   0.00000  Uiso   1.00
H1640  H     0.52707   0.16726   0.56020   0.00000  Uiso   1.00
H1641  H     0.51758   0.12107   0.50881   0.00000  Uiso   1.00
H1642  H     0.78050   0.08711   0.96115   0.00000  Uiso   1.00
H1643  H     0.54208   0.10222   0.54915   0.00000  Uiso   1.00
H1644  H     0.56617   0.11390   0.50556   0.00000  Uiso   1.00
H1645  H     0.96656   0.18058   0.51382   0.00000  Uiso   1.00
H1646  H     0.96997   0.16776   0.46334   0.00000  Uiso   1.00
H1647  H     0.89723   0.17170   0.50675   0.00000  Uiso   1.00
H1648  H     0.90607   0.15255   0.46009   0.00000  Uiso   1.00
H1649  H     0.94572   0.10476   0.49008   0.00000  Uiso   1.00
H1650  H     0.90018   0.10418   0.50971   0.00000  Uiso   1.00
H1651  H     0.93675   0.12409   0.53724   0.00000  Uiso   1.00
H1652  H     0.83021   0.05789   0.48526   0.00000  Uiso   1.00
O1653  O     0.75000   0.00000   0.25000   0.00000  Uiso   1.00
O1654  O     0.75000   0.46964   0.66317   0.00000  Uiso   1.00
O1655  O     0.83764   0.11056   0.68259   0.00000  Uiso   1.00
O1656  O     0.68493   0.01199   0.09991   0.00000  Uiso   1.00
O1657  O     0.80967   0.02991   0.89750   0.00000  Uiso   1.00
O1658  O     0.96862   0.19206   0.10079   0.00000  Uiso   1.00
O1659  O     0.99720   0.31702   0.89883   0.00000  Uiso   1.00
O1660  O     0.81648   0.49416   0.09996   0.00000  Uiso   1.00
O1661  O     0.69061   0.47200   0.89966   0.00000  Uiso   1.00
O1662  O     0.53234   0.30836   0.10185   0.00000  Uiso   1.00
O1663  O     0.50191   0.18403   0.90073   0.00000  Uiso   1.00
O1664  O     0.93361   0.25740   0.60080   0.00000  Uiso   1.00
O1665  O     0.96964   0.25000   0.33683   0.00000  Uiso   1.00
O1666  O     0.55875   0.28009   0.39893   0.00000  Uiso   1.00
O1667  O     0.71625   0.44217   0.60223   0.00000  Uiso   1.00
O1668  O     0.74317   0.06622   0.39973   0.00000  Uiso   1.00
O1669  O     0.56517   0.24008   0.59918   0.00000  Uiso   1.00
O1670  O     0.93982   0.22200   0.39829   0.00000  Uiso   1.00
O1671  O     0.78047   0.05830   0.60038   0.00000  Uiso   1.00
O1672  O     0.75950   0.43418   0.40029   0.00000  Uiso   1.00
O1673  O     0.53036   0.25000   0.66317   0.00000  Uiso   1.00
O1674  O     0.50000   0.21964   0.83683   0.00000  Uiso   1.00
O1675  O     0.50000   0.28036   0.16317   0.00000  Uiso   1.00
O1676  O     0.78036   0.00000   0.83683   0.00000  Uiso   1.00
O1677  O     0.71964   0.00000   0.16317   0.00000  Uiso   1.00
O1678  O     0.50000   0.28036   0.83683   0.00000  Uiso   1.00
O1679  O     0.50000   0.21964   0.16317   0.00000  Uiso   1.00
O1680  O     0.71964   0.00000   0.83683   0.00000  Uiso   1.00
O1681  O     0.75000   0.00000   0.75000   0.00000  Uiso   1.00
O1682  O     0.78036   0.00000   0.16317   0.00000  Uiso   1.00
O1683  O     0.70725   0.07307   0.27282   0.00000  Uiso   1.00
O1684  O     0.79274   0.42693   0.72718   0.00000  Uiso   1.00
O1685  O     0.92693   0.20726   0.27282   0.00000  Uiso   1.00
O1686  O     0.57307   0.29275   0.72718   0.00000  Uiso   1.00
O1687  O     0.79274   0.42693   0.27282   0.00000  Uiso   1.00
O1688  O     0.70725   0.07307   0.72718   0.00000  Uiso   1.00
O1689  O     0.57307   0.29275   0.27282   0.00000  Uiso   1.00
O1690  O     0.92693   0.20726   0.72718   0.00000  Uiso   1.00
O1691  O     0.70725   0.42693   0.72718   0.00000  Uiso   1.00
O1692  O     0.50000   0.25000   0.25000   0.00000  Uiso   1.00
O1693  O     0.79274   0.07307   0.27282   0.00000  Uiso   1.00
O1694  O     0.92693   0.29275   0.72718   0.00000  Uiso   1.00
O1695  O     0.57307   0.20726   0.27282   0.00000  Uiso   1.00
O1696  O     0.79274   0.07307   0.72718   0.00000  Uiso   1.00
O1697  O     0.70725   0.42693   0.27282   0.00000  Uiso   1.00
O1698  O     0.57307   0.20726   0.72718   0.00000  Uiso   1.00
O1699  O     0.92693   0.29275   0.27282   0.00000  Uiso   1.00
O1700  O     0.95725   0.32307   0.77282   0.00000  Uiso   1.00
O1701  O     0.54274   0.17693   0.22718   0.00000  Uiso   1.00
O1702  O     0.67693   0.45726   0.77282   0.00000  Uiso   1.00
O1703  O     0.50000   0.25000   0.75000   0.00000  Uiso   1.00
O1704  O     0.82307   0.04275   0.22718   0.00000  Uiso   1.00
O1705  O     0.54274   0.17693   0.77282   0.00000  Uiso   1.00
O1706  O     0.95725   0.32307   0.22718   0.00000  Uiso   1.00
O1707  O     0.82307   0.04275   0.77282   0.00000  Uiso   1.00
O1708  O     0.67693   0.45726   0.22718   0.00000  Uiso   1.00
O1709  O     0.95725   0.17693   0.22718   0.00000  Uiso   1.00
O1710  O     0.54274   0.32307   0.77282   0.00000  Uiso   1.00
O1711  O     0.67693   0.04275   0.22718   0.00000  Uiso   1.00
O1712  O     0.82307   0.45726   0.77282   0.00000  Uiso   1.00
O1713  O     0.54274   0.32307   0.22718   0.00000  Uiso   1.00
O1714  O     0.75000   0.46964   0.33683   0.00000  Uiso   1.00
O1715  O     0.95725   0.17693   0.77282   0.00000  Uiso   1.00
O1716  O     0.82307   0.45726   0.22718   0.00000  Uiso   1.00
O1717  O     0.67693   0.04275   0.77282   0.00000  Uiso   1.00
O1718  O     0.68907   0.02924   0.02354   0.00000  Uiso   1.00
O1719  O     0.80704   0.03811   0.97518   0.00000  Uiso   1.00
O1720  O     0.95823   0.19882   0.02288   0.00000  Uiso   1.00
O1721  O     0.98849   0.31716   0.97662   0.00000  Uiso   1.00
O1722  O     0.81382   0.48260   0.02242   0.00000  Uiso   1.00
O1723  O     0.69209   0.47009   0.97788   0.00000  Uiso   1.00
O1724  O     0.54082   0.30448   0.02427   0.00000  Uiso   1.00
O1725  O     0.75000   0.03036   0.66317   0.00000  Uiso   1.00
O1726  O     0.51455   0.18677   0.97848   0.00000  Uiso   1.00
O1727  O     0.93634   0.27279   0.52402   0.00000  Uiso   1.00
O1728  O     0.55733   0.28346   0.47721   0.00000  Uiso   1.00
O1729  O     0.70727   0.44577   0.52474   0.00000  Uiso   1.00
O1730  O     0.73163   0.06495   0.47723   0.00000  Uiso   1.00
O1731  O     0.56021   0.22412   0.52222   0.00000  Uiso   1.00
O1732  O     0.94188   0.21649   0.47640   0.00000  Uiso   1.00
O1733  O     0.78738   0.05332   0.52256   0.00000  Uiso   1.00
O1734  O     0.76299   0.43603   0.47866   0.00000  Uiso   1.00
O1735  O     0.63187   0.41984   0.18530   0.00000  Uiso   1.00
O1736  O     0.53036   0.25000   0.33683   0.00000  Uiso   1.00
O1737  O     0.85868   0.08847   0.81904   0.00000  Uiso   1.00
O1738  O     0.55593   0.10732   0.22189   0.00000  Uiso   1.00
O1739  O     0.93964   0.38921   0.78937   0.00000  Uiso   1.00
O1740  O     0.87378   0.07546   0.18983   0.00000  Uiso   1.00
O1741  O     0.64063   0.41182   0.81825   0.00000  Uiso   1.00
O1742  O     0.94389   0.39144   0.22215   0.00000  Uiso   1.00
O1743  O     0.56133   0.11226   0.79188   0.00000  Uiso   1.00
O1744  O     0.60924   0.05697   0.78247   0.00000  Uiso   1.00
O1745  O     0.88792   0.43870   0.20905   0.00000  Uiso   1.00
O1746  O     0.57887   0.37041   0.81323   0.00000  Uiso   1.00
O1747  O     0.96964   0.25000   0.66317   0.00000  Uiso   1.00
O1748  O     0.91252   0.13894   0.18242   0.00000  Uiso   1.00
O1749  O     0.89243   0.44461   0.77783   0.00000  Uiso   1.00
O1750  O     0.61261   0.06193   0.20775   0.00000  Uiso   1.00
O1751  O     0.91931   0.13179   0.81507   0.00000  Uiso   1.00
O1752  O     0.58928   0.35831   0.18118   0.00000  Uiso   1.00
O1753  O     0.87664   0.17380   0.68920   0.00000  Uiso   1.00
O1754  O     0.60909   0.33856   0.31809   0.00000  Uiso   1.00
O1755  O     0.80732   0.35927   0.71877   0.00000  Uiso   1.00
O1756  O     0.68887   0.13842   0.29108   0.00000  Uiso   1.00
O1757  O     0.61761   0.33073   0.68500   0.00000  Uiso   1.00
O1758  O     0.75000   0.03036   0.33683   0.00000  Uiso   1.00
O1759  O     0.89004   0.16297   0.31836   0.00000  Uiso   1.00
O1760  O     0.69418   0.14248   0.72186   0.00000  Uiso   1.00
O1761  O     0.80945   0.36031   0.28769   0.00000  Uiso   1.00
O1762  O     0.85739   0.30519   0.27708   0.00000  Uiso   1.00
O1763  O     0.63758   0.18800   0.70770   0.00000  Uiso   1.00
O1764  O     0.82972   0.11908   0.31456   0.00000  Uiso   1.00
O1765  O     0.65999   0.39235   0.68104   0.00000  Uiso   1.00
O1766  O     0.64137   0.19381   0.28025   0.00000  Uiso   1.00
O1767  O     0.86252   0.31109   0.70853   0.00000  Uiso   1.00
O1768  O     0.67313   0.37691   0.31109   0.00000  Uiso   1.00
Zn1769 Zn    0.70660   0.00000   0.21760   0.00000  Uiso   1.00
Zn1770 Zn    0.54340   0.25000   0.28240   0.00000  Uiso   1.00
Zn1771 Zn    0.75000   0.45660   0.71760   0.00000  Uiso   1.00
Zn1772 Zn    0.75000   0.04340   0.28240   0.00000  Uiso   1.00
Zn1773 Zn    0.54340   0.25000   0.71760   0.00000  Uiso   1.00
Zn1774 Zn    0.95660   0.25000   0.28240   0.00000  Uiso   1.00
Zn1775 Zn    0.75000   0.04340   0.71760   0.00000  Uiso   1.00
Zn1776 Zn    0.75000   0.45660   0.28240   0.00000  Uiso   1.00
Zn1777 Zn    0.79340   0.00000   0.78240   0.00000  Uiso   1.00
Zn1778 Zn    0.50000   0.20660   0.21760   0.00000  Uiso   1.00
Zn1779 Zn    0.50000   0.29340   0.78240   0.00000  Uiso   1.00
Zn1780 Zn    0.79340   0.00000   0.21760   0.00000  Uiso   1.00
Zn1781 Zn    0.70660   0.00000   0.78240   0.00000  Uiso   1.00
Zn1782 Zn    0.50000   0.29340   0.21760   0.00000  Uiso   1.00
Zn1783 Zn    0.50000   0.20660   0.78240   0.00000  Uiso   1.00
Zn1784 Zn    0.95660   0.25000   0.71760   0.00000  Uiso   1.00
C1785  C     0.21988   0.51574   0.04164   0.00000  Uiso   1.00
C1786  C     0.02760   0.76815   0.45848   0.00000  Uiso   1.00
C1787  C     0.34865   0.90264   0.74870   0.00000  Uiso   1.00
C1788  C     0.40224   0.65182   0.25043   0.00000  Uiso   1.00
C1789  C     0.09807   0.84847   0.74977   0.00000  Uiso   1.00
C1790  C     0.34791   0.90139   0.24958   0.00000  Uiso   1.00
C1791  C     0.15239   0.59834   0.75110   0.00000  Uiso   1.00
C1792  C     0.09839   0.65182   0.75041   0.00000  Uiso   1.00
C1793  C     0.40170   0.84762   0.24966   0.00000  Uiso   1.00
C1794  C     0.15212   0.90194   0.74994   0.00000  Uiso   1.00
C1795  C     0.34899   0.59753   0.25105   0.00000  Uiso   1.00
C1796  C     0.40223   0.84868   0.74930   0.00000  Uiso   1.00
C1797  C     0.22706   0.97334   0.54259   0.00000  Uiso   1.00
C1798  C     0.09773   0.65179   0.25066   0.00000  Uiso   1.00
C1799  C     0.34756   0.59831   0.75063   0.00000  Uiso   1.00
C1800  C     0.15207   0.90136   0.24949   0.00000  Uiso   1.00
C1801  C     0.25050   0.50220   0.10211   0.00000  Uiso   1.00
C1802  C     0.25013   0.50082   0.89752   0.00000  Uiso   1.00
C1803  C     0.00011   0.75032   0.10245   0.00000  Uiso   1.00
C1804  C     0.00001   0.75050   0.89787   0.00000  Uiso   1.00
C1805  C     0.49955   0.74914   0.60219   0.00000  Uiso   1.00
C1806  C     0.49952   0.75071   0.39760   0.00000  Uiso   1.00
C1807  C     0.24870   0.50005   0.60251   0.00000  Uiso   1.00
C1808  C     0.23826   0.53221   0.45846   0.00000  Uiso   1.00
C1809  C     0.24875   0.99993   0.39798   0.00000  Uiso   1.00
C1810  C     0.19547   0.56459   0.00839   0.00000  Uiso   1.00
C1811  C     0.20177   0.59331   0.04003   0.00000  Uiso   1.00
C1812  C     0.20681   0.63128   0.02280   0.00000  Uiso   1.00
C1813  C     0.29601   0.57381   0.98490   0.00000  Uiso   1.00
C1814  C     0.32984   0.59675   0.99312   0.00000  Uiso   1.00
C1815  C     0.32005   0.63360   0.01073   0.00000  Uiso   1.00
C1816  C     0.42562   0.71397   0.00854   0.00000  Uiso   1.00
C1817  C     0.39712   0.71820   0.04044   0.00000  Uiso   1.00
C1818  C     0.36157   0.73328   0.02441   0.00000  Uiso   1.00
C1819  C     0.02981   0.73767   0.54111   0.00000  Uiso   1.00
C1820  C     0.45199   0.82179   0.98841   0.00000  Uiso   1.00
C1821  C     0.42699   0.83046   0.95422   0.00000  Uiso   1.00
C1822  C     0.38979   0.84334   0.96800   0.00000  Uiso   1.00
C1823  C     0.31019   0.94624   0.00907   0.00000  Uiso   1.00
C1824  C     0.33013   0.92015   0.03605   0.00000  Uiso   1.00
C1825  C     0.32028   0.88047   0.02763   0.00000  Uiso   1.00
C1826  C     0.20069   0.93595   0.99450   0.00000  Uiso   1.00
C1827  C     0.20907   0.90646   0.96433   0.00000  Uiso   1.00
C1828  C     0.21169   0.86889   0.98312   0.00000  Uiso   1.00
C1829  C     0.07313   0.79005   0.00825   0.00000  Uiso   1.00
C1830  C     0.47031   0.73415   0.45792   0.00000  Uiso   1.00
C1831  C     0.10237   0.78456   0.03905   0.00000  Uiso   1.00
C1832  C     0.13790   0.77136   0.02105   0.00000  Uiso   1.00
C1833  C     0.05257   0.68256   0.98161   0.00000  Uiso   1.00
C1834  C     0.06075   0.64501   0.99866   0.00000  Uiso   1.00
C1835  C     0.10161   0.63884   0.00270   0.00000  Uiso   1.00
C1836  C     0.43951   0.81055   0.51611   0.00000  Uiso   1.00
C1837  C     0.42863   0.83372   0.55118   0.00000  Uiso   1.00
C1838  C     0.43608   0.87415   0.54420   0.00000  Uiso   1.00
C1839  C     0.04874   0.81770   0.49369   0.00000  Uiso   1.00
C1840  C     0.04101   0.84702   0.46324   0.00000  Uiso   1.00
C1841  C     0.26721   0.52672   0.54153   0.00000  Uiso   1.00
C1842  C     0.03905   0.88482   0.48164   0.00000  Uiso   1.00
C1843  C     0.17409   0.95906   0.50970   0.00000  Uiso   1.00
C1844  C     0.14665   0.96816   0.54156   0.00000  Uiso   1.00
C1845  C     0.10963   0.97777   0.52453   0.00000  Uiso   1.00
C1846  C     0.19480   0.56744   0.48859   0.00000  Uiso   1.00
C1847  C     0.17041   0.57834   0.45467   0.00000  Uiso   1.00
C1848  C     0.13232   0.58843   0.46844   0.00000  Uiso   1.00
C1849  C     0.05340   0.68841   0.50822   0.00000  Uiso   1.00
C1850  C     0.05016   0.66028   0.54090   0.00000  Uiso   1.00
C1851  C     0.04362   0.62201   0.52500   0.00000  Uiso   1.00
C1852  C     0.25515   0.96789   0.45903   0.00000  Uiso   1.00
C1853  C     0.45212   0.68043   0.48569   0.00000  Uiso   1.00
C1854  C     0.41779   0.65708   0.48918   0.00000  Uiso   1.00
C1855  C     0.42575   0.62022   0.50771   0.00000  Uiso   1.00
C1856  C     0.31984   0.53847   0.50724   0.00000  Uiso   1.00
C1857  C     0.34910   0.53426   0.53830   0.00000  Uiso   1.00
C1858  C     0.38403   0.51855   0.52126   0.00000  Uiso   1.00
C1859  C     0.30083   0.93312   0.48420   0.00000  Uiso   1.00
C1860  C     0.30941   0.89401   0.49625   0.00000  Uiso   1.00
C1861  C     0.34982   0.88902   0.50405   0.00000  Uiso   1.00
C1862  C     0.10871   0.95052   0.18941   0.00000  Uiso   1.00
C1863  C     0.21825   0.50959   0.08143   0.00000  Uiso   1.00
C1864  C     0.07294   0.94445   0.16797   0.00000  Uiso   1.00
C1865  C     0.04961   0.97880   0.16829   0.00000  Uiso   1.00
C1866  C     0.32709   0.60466   0.83516   0.00000  Uiso   1.00
C1867  C     0.33711   0.62489   0.87220   0.00000  Uiso   1.00
C1868  C     0.30377   0.64234   0.89078   0.00000  Uiso   1.00
C1869  C     0.03197   0.60007   0.25300   0.00000  Uiso   1.00
C1870  C     0.03514   0.56039   0.26638   0.00000  Uiso   1.00
C1871  C     0.00646   0.55166   0.29689   0.00000  Uiso   1.00
C1872  C     0.43575   0.87666   0.82788   0.00000  Uiso   1.00
C1873  C     0.42528   0.90779   0.85548   0.00000  Uiso   1.00
C1874  C     0.28015   0.51572   0.91732   0.00000  Uiso   1.00
C1875  C     0.38514   0.90638   0.86693   0.00000  Uiso   1.00
C1876  C     0.39692   0.54599   0.19984   0.00000  Uiso   1.00
C1877  C     0.43681   0.55479   0.19091   0.00000  Uiso   1.00
C1878  C     0.46057   0.52082   0.19326   0.00000  Uiso   1.00
C1879  C     0.17084   0.89412   0.83530   0.00000  Uiso   1.00
C1880  C     0.15794   0.86669   0.86564   0.00000  Uiso   1.00
C1881  C     0.18953   0.84408   0.88098   0.00000  Uiso   1.00
C1882  C     0.46205   0.91022   0.25196   0.00000  Uiso   1.00
C1883  C     0.00078   0.91833   0.23880   0.00000  Uiso   1.00
C1884  C     0.02186   0.93949   0.26931   0.00000  Uiso   1.00
C1885  C     0.48330   0.72184   0.08171   0.00000  Uiso   1.00
C1886  C     0.06545   0.62563   0.83002   0.00000  Uiso   1.00
C1887  C     0.08021   0.59604   0.85689   0.00000  Uiso   1.00
C1888  C     0.07873   0.60832   0.89888   0.00000  Uiso   1.00
C1889  C     0.09961   0.53242   0.75257   0.00000  Uiso   1.00
C1890  C     0.05841   0.52681   0.75194   0.00000  Uiso   1.00
C1891  C     0.04779   0.99666   0.72370   0.00000  Uiso   1.00
C1892  C     0.37767   0.93236   0.17017   0.00000  Uiso   1.00
C1893  C     0.41015   0.91912   0.14612   0.00000  Uiso   1.00
C1894  C     0.40039   0.91580   0.10363   0.00000  Uiso   1.00
C1895  C     0.04919   0.89439   0.80699   0.00000  Uiso   1.00
C1896  C     0.27871   0.51982   0.95729   0.00000  Uiso   1.00
C1897  C     0.49739   0.78392   0.91812   0.00000  Uiso   1.00
C1898  C     0.05694   0.93237   0.82360   0.00000  Uiso   1.00
C1899  C     0.02249   0.95542   0.82542   0.00000  Uiso   1.00
C1900  C     0.39378   0.66819   0.16459   0.00000  Uiso   1.00
C1901  C     0.36667   0.65371   0.13471   0.00000  Uiso   1.00
C1902  C     0.34099   0.68374   0.12123   0.00000  Uiso   1.00
C1903  C     0.40139   0.96779   0.74653   0.00000  Uiso   1.00
C1904  C     0.43554   0.98950   0.75674   0.00000  Uiso   1.00
C1905  C     0.44060   0.52232   0.73016   0.00000  Uiso   1.00
C1906  C     0.12629   0.56885   0.17015   0.00000  Uiso   1.00
C1907  C     0.09699   0.58547   0.14423   0.00000  Uiso   1.00
C1908  C     0.28332   0.99718   0.08142   0.00000  Uiso   1.00
C1909  C     0.11184   0.59380   0.10416   0.00000  Uiso   1.00
C1910  C     0.44960   0.60819   0.81062   0.00000  Uiso   1.00
C1911  C     0.44283   0.57164   0.83066   0.00000  Uiso   1.00
C1912  C     0.47755   0.54901   0.83287   0.00000  Uiso   1.00
C1913  C     0.10811   0.82805   0.16532   0.00000  Uiso   1.00
C1914  C     0.13583   0.84090   0.13525   0.00000  Uiso   1.00
C1915  C     0.15942   0.80932   0.12130   0.00000  Uiso   1.00
C1916  C     0.35305   0.70333   0.69797   0.00000  Uiso   1.00
C1917  C     0.31313   0.69403   0.68935   0.00000  Uiso   1.00
C1918  C     0.28927   0.72803   0.69045   0.00000  Uiso   1.00
C1919  C     0.22017   0.98716   0.91850   0.00000  Uiso   1.00
C1920  C     0.07952   0.85733   0.33526   0.00000  Uiso   1.00
C1921  C     0.09344   0.88407   0.36582   0.00000  Uiso   1.00
C1922  C     0.06311   0.90881   0.38042   0.00000  Uiso   1.00
C1923  C     0.28808   0.84103   0.74826   0.00000  Uiso   1.00
C1924  C     0.24949   0.83353   0.73437   0.00000  Uiso   1.00
C1925  C     0.22720   0.81374   0.76500   0.00000  Uiso   1.00
C1926  C     0.18497   0.62583   0.32956   0.00000  Uiso   1.00
C1927  C     0.17461   0.65702   0.35719   0.00000  Uiso   1.00
C1928  C     0.13452   0.65570   0.36880   0.00000  Uiso   1.00
C1929  C     0.14058   0.79985   0.68852   0.00000  Uiso   1.00
C1930  C     0.01674   0.77933   0.08234   0.00000  Uiso   1.00
C1931  C     0.17605   0.80562   0.66632   0.00000  Uiso   1.00
C1932  C     0.19944   0.77128   0.66678   0.00000  Uiso   1.00
C1933  C     0.41998   0.64580   0.33652   0.00000  Uiso   1.00
C1934  C     0.40661   0.62282   0.37049   0.00000  Uiso   1.00
C1935  C     0.43834   0.60633   0.39272   0.00000  Uiso   1.00
C1936  C     0.21790   0.65039   0.75293   0.00000  Uiso   1.00
C1937  C     0.21521   0.69059   0.76469   0.00000  Uiso   1.00
C1938  C     0.24388   0.70013   0.79487   0.00000  Uiso   1.00
C1939  C     0.31269   0.87157   0.32668   0.00000  Uiso   1.00
C1940  C     0.32527   0.84010   0.35235   0.00000  Uiso   1.00
C1941  C     0.00299   0.71766   0.91889   0.00000  Uiso   1.00
C1942  C     0.32172   0.85005   0.39488   0.00000  Uiso   1.00
C1943  C     0.34839   0.78268   0.24524   0.00000  Uiso   1.00
C1944  C     0.31460   0.76030   0.25534   0.00000  Uiso   1.00
C1945  C     0.31016   0.72752   0.22857   0.00000  Uiso   1.00
C1946  C     0.12575   0.68061   0.66952   0.00000  Uiso   1.00
C1947  C     0.15624   0.66354   0.64522   0.00000  Uiso   1.00
C1948  C     0.14436   0.65749   0.60363   0.00000  Uiso   1.00
C1949  C     0.29969   0.64289   0.30967   0.00000  Uiso   1.00
C1950  C     0.30625   0.67918   0.33034   0.00000  Uiso   1.00
C1951  C     0.27181   0.70229   0.33160   0.00000  Uiso   1.00
C1952  C     0.46670   0.75499   0.58194   0.00000  Uiso   1.00
C1953  C     0.14103   0.92283   0.66597   0.00000  Uiso   1.00
C1954  C     0.11210   0.91039   0.63704   0.00000  Uiso   1.00
C1955  C     0.08830   0.94227   0.62444   0.00000  Uiso   1.00
C1956  C     0.15024   0.71762   0.24947   0.00000  Uiso   1.00
C1957  C     0.19133   0.71796   0.24238   0.00000  Uiso   1.00
C1958  C     0.20189   0.74762   0.21359   0.00000  Uiso   1.00
C1959  C     0.37452   0.81495   0.66981   0.00000  Uiso   1.00
C1960  C     0.34268   0.82351   0.64251   0.00000  Uiso   1.00
C1961  C     0.34283   0.86327   0.62920   0.00000  Uiso   1.00
C1962  C     0.20048   0.85078   0.30259   0.00000  Uiso   1.00
C1963  C     0.02930   0.76516   0.41823   0.00000  Uiso   1.00
C1964  C     0.18924   0.81241   0.31583   0.00000  Uiso   1.00
C1965  C     0.22199   0.78725   0.31967   0.00000  Uiso   1.00
C1966  C     0.35615   0.58093   0.66505   0.00000  Uiso   1.00
C1967  C     0.38185   0.59488   0.63357   0.00000  Uiso   1.00
C1968  C     0.40668   0.56455   0.61899   0.00000  Uiso   1.00
C1969  C     0.16450   0.97974   0.09257   0.00000  Uiso   1.00
C1970  C     0.12630   0.98983   0.07875   0.00000  Uiso   1.00
C1971  C     0.10674   0.95725   0.06065   0.00000  Uiso   1.00
C1972  C     0.33984   0.50609   0.90105   0.00000  Uiso   1.00
C1973  C     0.37467   0.52876   0.90344   0.00000  Uiso   1.00
C1974  C     0.23160   0.97122   0.58255   0.00000  Uiso   1.00
C1975  C     0.40842   0.50470   0.90517   0.00000  Uiso   1.00
C1976  C     0.49123   0.66154   0.09385   0.00000  Uiso   1.00
C1977  C     0.47761   0.62880   0.11695   0.00000  Uiso   1.00
C1978  C     0.49861   0.59445   0.10588   0.00000  Uiso   1.00
C1979  C     0.03132   0.83469   0.90353   0.00000  Uiso   1.00
C1980  C     0.02525   0.87442   0.91555   0.00000  Uiso   1.00
C1981  C     0.06079   0.89253   0.92790   0.00000  Uiso   1.00
C1982  C     0.33507   0.52813   0.09784   0.00000  Uiso   1.00
C1983  C     0.37564   0.52138   0.09126   0.00000  Uiso   1.00
C1984  C     0.39698   0.55709   0.08873   0.00000  Uiso   1.00
C1985  C     0.24337   0.53287   0.41848   0.00000  Uiso   1.00
C1986  C     0.16058   0.99609   0.90181   0.00000  Uiso   1.00
C1987  C     0.12551   0.97367   0.90188   0.00000  Uiso   1.00
C1988  C     0.09205   0.99819   0.90065   0.00000  Uiso   1.00
C1989  C     0.00963   0.83945   0.09844   0.00000  Uiso   1.00
C1990  C     0.03324   0.87367   0.09541   0.00000  Uiso   1.00
C1991  C     0.00994   0.90802   0.09319   0.00000  Uiso   1.00
C1992  C     0.46658   0.66874   0.90497   0.00000  Uiso   1.00
C1993  C     0.46949   0.62987   0.92071   0.00000  Uiso   1.00
C1994  C     0.43232   0.61499   0.93264   0.00000  Uiso   1.00
C1995  C     0.41741   0.72224   0.60270   0.00000  Uiso   1.00
C1996  C     0.03175   0.74274   0.58104   0.00000  Uiso   1.00
C1997  C     0.38149   0.72211   0.58055   0.00000  Uiso   1.00
C1998  C     0.36279   0.68497   0.58296   0.00000  Uiso   1.00
C1999  C     0.08924   0.75666   0.40187   0.00000  Uiso   1.00
C2000  C     0.12349   0.77984   0.40703   0.00000  Uiso   1.00
C2001  C     0.15779   0.75650   0.40558   0.00000  Uiso   1.00
C2002  C     0.23928   0.91128   0.59930   0.00000  Uiso   1.00
C2003  C     0.21609   0.87704   0.59367   0.00000  Uiso   1.00
C2004  C     0.23949   0.84268   0.59382   0.00000  Uiso   1.00
C2005  C     0.27712   0.58400   0.40541   0.00000  Uiso   1.00
C2006  C     0.27076   0.62319   0.41916   0.00000  Uiso   1.00
C2007  C     0.47906   0.72500   0.04174   0.00000  Uiso   1.00
C2008  C     0.46919   0.73683   0.41779   0.00000  Uiso   1.00
C2009  C     0.30552   0.64008   0.43546   0.00000  Uiso   1.00
C2010  C     0.08589   0.77207   0.59151   0.00000  Uiso   1.00
C2011  C     0.12382   0.76150   0.57712   0.00000  Uiso   1.00
C2012  C     0.14327   0.79359   0.55794   0.00000  Uiso   1.00
C2013  C     0.40932   0.74540   0.40181   0.00000  Uiso   1.00
C2014  C     0.37470   0.72227   0.40213   0.00000  Uiso   1.00
C2015  C     0.34074   0.74587   0.40534   0.00000  Uiso   1.00
C2016  C     0.25750   0.58920   0.59730   0.00000  Uiso   1.00
C2017  C     0.28074   0.62380   0.59764   0.00000  Uiso   1.00
C2018  C     0.25720   0.65805   0.59744   0.00000  Uiso   1.00
C2019  C     0.26446   0.52904   0.58165   0.00000  Uiso   1.00
C2020  C     0.22614   0.91554   0.39439   0.00000  Uiso   1.00
C2021  C     0.21760   0.88955   0.42787   0.00000  Uiso   1.00
C2022  C     0.19206   0.85890   0.41565   0.00000  Uiso   1.00
C2023  C     0.25312   0.96701   0.41883   0.00000  Uiso   1.00
C2024  C     0.25099   0.50442   0.02099   0.00000  Uiso   1.00
C2025  C     0.25051   0.50293   0.97851   0.00000  Uiso   1.00
C2026  C     0.49973   0.75147   0.02149   0.00000  Uiso   1.00
C2027  C     0.49989   0.75148   0.97898   0.00000  Uiso   1.00
C2028  C     0.49863   0.74964   0.52112   0.00000  Uiso   1.00
C2029  C     0.49864   0.75120   0.47866   0.00000  Uiso   1.00
C2030  C     0.24649   0.50018   0.52156   0.00000  Uiso   1.00
C2031  C     0.49329   0.78391   0.95822   0.00000  Uiso   1.00
C2032  C     0.24602   0.50000   0.47907   0.00000  Uiso   1.00
C2033  C     0.24996   0.50000   0.35536   0.00000  Uiso   1.00
C2034  C     0.24980   0.50000   0.64482   0.00000  Uiso   1.00
C2035  C     0.49993   0.75018   0.35519   0.00000  Uiso   1.00
C2036  C     0.49996   0.74978   0.64473   0.00000  Uiso   1.00
C2037  C     0.49996   0.75007   0.85531   0.00000  Uiso   1.00
C2038  C     0.00007   0.75003   0.14480   0.00000  Uiso   1.00
C2039  C     0.25000   0.50003   0.85516   0.00000  Uiso   1.00
C2040  C     0.25009   0.50040   0.14470   0.00000  Uiso   1.00
C2041  C     0.17993   0.57013   0.25006   0.00000  Uiso   1.00
C2042  C     0.28239   0.99350   0.04134   0.00000  Uiso   1.00
C2043  C     0.32017   0.93017   0.74966   0.00000  Uiso   1.00
C2044  C     0.43004   0.68001   0.25003   0.00000  Uiso   1.00
C2045  C     0.07000   0.82017   0.74992   0.00000  Uiso   1.00
C2046  C     0.31996   0.92978   0.24984   0.00000  Uiso   1.00
C2047  C     0.18010   0.57006   0.75020   0.00000  Uiso   1.00
C2048  C     0.06988   0.82003   0.24999   0.00000  Uiso   1.00
C2049  C     0.42966   0.68017   0.75038   0.00000  Uiso   1.00
C2050  C     0.18006   0.93001   0.74997   0.00000  Uiso   1.00
C2051  C     0.32032   0.56984   0.25040   0.00000  Uiso   1.00
C2052  C     0.43004   0.82019   0.74988   0.00000  Uiso   1.00
C2053  C     0.22174   0.98523   0.95879   0.00000  Uiso   1.00
C2054  C     0.06992   0.67997   0.25008   0.00000  Uiso   1.00
C2055  C     0.31987   0.57002   0.75011   0.00000  Uiso   1.00
C2056  C     0.18009   0.92974   0.24979   0.00000  Uiso   1.00
C2057  C     0.07007   0.67987   0.75000   0.00000  Uiso   1.00
C2058  C     0.42995   0.81991   0.24993   0.00000  Uiso   1.00
C2059  C     0.12867   0.89759   0.21740   0.00000  Uiso   1.00
C2060  C     0.36734   0.60532   0.78452   0.00000  Uiso   1.00
C2061  C     0.09006   0.61683   0.23569   0.00000  Uiso   1.00
C2062  C     0.40807   0.88213   0.76887   0.00000  Uiso   1.00
C2063  C     0.37337   0.60050   0.21968   0.00000  Uiso   1.00
C2064  C     0.02044   0.77746   0.04229   0.00000  Uiso   1.00
C2065  C     0.13219   0.89492   0.78369   0.00000  Uiso   1.00
C2066  C     0.40938   0.88244   0.23483   0.00000  Uiso   1.00
C2067  C     0.09283   0.61893   0.77103   0.00000  Uiso   1.00
C2068  C     0.11792   0.59086   0.76727   0.00000  Uiso   1.00
C2069  C     0.38135   0.90748   0.23044   0.00000  Uiso   1.00
C2070  C     0.10218   0.87186   0.78192   0.00000  Uiso   1.00
C2071  C     0.39590   0.63085   0.21722   0.00000  Uiso   1.00
C2072  C     0.38317   0.91027   0.76435   0.00000  Uiso   1.00
C2073  C     0.11849   0.59236   0.23067   0.00000  Uiso   1.00
C2074  C     0.39695   0.62903   0.78313   0.00000  Uiso   1.00
C2075  C     0.00713   0.71882   0.95892   0.00000  Uiso   1.00
C2076  C     0.10503   0.86788   0.21595   0.00000  Uiso   1.00
C2077  C     0.37664   0.64934   0.71957   0.00000  Uiso   1.00
C2078  C     0.11782   0.85505   0.28340   0.00000  Uiso   1.00
C2079  C     0.34145   0.86815   0.73259   0.00000  Uiso   1.00
C2080  C     0.15729   0.63141   0.27058   0.00000  Uiso   1.00
C2081  C     0.12108   0.85266   0.71735   0.00000  Uiso   1.00
C2082  C     0.38203   0.64525   0.28418   0.00000  Uiso   1.00
C2083  C     0.15999   0.63311   0.73570   0.00000  Uiso   1.00
C2084  C     0.34162   0.86767   0.26836   0.00000  Uiso   1.00
C2085  C     0.36686   0.83972   0.26439   0.00000  Uiso   1.00
C2086  C     0.46753   0.76038   0.54215   0.00000  Uiso   1.00
C2087  C     0.13156   0.65753   0.73048   0.00000  Uiso   1.00
C2088  C     0.35249   0.62146   0.28284   0.00000  Uiso   1.00
C2089  C     0.14462   0.88243   0.71595   0.00000  Uiso   1.00
C2090  C     0.13241   0.65957   0.26610   0.00000  Uiso   1.00
C2091  C     0.36940   0.84295   0.72885   0.00000  Uiso   1.00
C2092  C     0.14828   0.87747   0.28121   0.00000  Uiso   1.00
C2093  C     0.35416   0.61894   0.71731   0.00000  Uiso   1.00
C2094  C     0.09770   0.84818   0.24985   0.00000  Uiso   1.00
C2095  C     0.40085   0.65258   0.75107   0.00000  Uiso   1.00
C2096  C     0.15165   0.59823   0.25048   0.00000  Uiso   1.00
H2097  H     0.17081   0.57249   0.99195   0.00000  Uiso   1.00
H2098  H     0.34765   0.58182   0.01345   0.00000  Uiso   1.00
H2099  H     0.31540   0.51230   0.49187   0.00000  Uiso   1.00
H2100  H     0.35490   0.56140   0.55122   0.00000  Uiso   1.00
H2101  H     0.33932   0.51566   0.56136   0.00000  Uiso   1.00
H2102  H     0.37885   0.99086   0.50936   0.00000  Uiso   1.00
H2103  H     0.40507   0.51641   0.54403   0.00000  Uiso   1.00
H2104  H     0.39455   0.53646   0.49796   0.00000  Uiso   1.00
H2105  H     0.30946   0.95180   0.50776   0.00000  Uiso   1.00
H2106  H     0.31638   0.93949   0.45737   0.00000  Uiso   1.00
H2107  H     0.29389   0.88704   0.52271   0.00000  Uiso   1.00
H2108  H     0.30100   0.87490   0.47307   0.00000  Uiso   1.00
H2109  H     0.34523   0.60116   0.96594   0.00000  Uiso   1.00
H2110  H     0.36591   0.89541   0.47779   0.00000  Uiso   1.00
H2111  H     0.35502   0.86024   0.51230   0.00000  Uiso   1.00
H2112  H     0.35862   0.90710   0.52802   0.00000  Uiso   1.00
H2113  H     0.12281   0.97431   0.17632   0.00000  Uiso   1.00
H2114  H     0.10322   0.95822   0.22003   0.00000  Uiso   1.00
H2115  H     0.07880   0.93667   0.13778   0.00000  Uiso   1.00
H2116  H     0.05757   0.92187   0.18163   0.00000  Uiso   1.00
H2117  H     0.04363   0.98719   0.19838   0.00000  Uiso   1.00
H2118  H     0.02355   0.97336   0.15320   0.00000  Uiso   1.00
H2119  H     0.06385   0.50143   0.15334   0.00000  Uiso   1.00
H2120  H     0.30288   0.64954   0.99056   0.00000  Uiso   1.00
H2121  H     0.30760   0.58246   0.84229   0.00000  Uiso   1.00
H2122  H     0.31241   0.62377   0.81547   0.00000  Uiso   1.00
H2123  H     0.34930   0.60546   0.89295   0.00000  Uiso   1.00
H2124  H     0.35746   0.64649   0.86562   0.00000  Uiso   1.00
H2125  H     0.29162   0.66278   0.87104   0.00000  Uiso   1.00
H2126  H     0.31191   0.65633   0.91782   0.00000  Uiso   1.00
H2127  H     0.28312   0.62117   0.89776   0.00000  Uiso   1.00
H2128  H     0.00383   0.60474   0.24250   0.00000  Uiso   1.00
H2129  H     0.03592   0.61885   0.27797   0.00000  Uiso   1.00
H2130  H     0.03155   0.54176   0.24141   0.00000  Uiso   1.00
H2131  H     0.34536   0.64916   0.01666   0.00000  Uiso   1.00
H2132  H     0.06257   0.55572   0.27881   0.00000  Uiso   1.00
H2133  H     0.00896   0.57071   0.32167   0.00000  Uiso   1.00
H2134  H     0.01035   0.52345   0.30762   0.00000  Uiso   1.00
H2135  H     0.47873   0.55396   0.28442   0.00000  Uiso   1.00
H2136  H     0.46275   0.86631   0.83704   0.00000  Uiso   1.00
H2137  H     0.41704   0.85275   0.83095   0.00000  Uiso   1.00
H2138  H     0.44172   0.90552   0.88224   0.00000  Uiso   1.00
H2139  H     0.43169   0.93466   0.84229   0.00000  Uiso   1.00
H2140  H     0.36734   0.91025   0.84154   0.00000  Uiso   1.00
H2141  H     0.37924   0.92828   0.88812   0.00000  Uiso   1.00
H2142  H     0.30517   0.62973   0.03831   0.00000  Uiso   1.00
H2143  H     0.37863   0.87973   0.88050   0.00000  Uiso   1.00
H2144  H     0.38842   0.52209   0.18236   0.00000  Uiso   1.00
H2145  H     0.39412   0.53752   0.23059   0.00000  Uiso   1.00
H2146  H     0.43882   0.56647   0.16158   0.00000  Uiso   1.00
H2147  H     0.44722   0.57527   0.21179   0.00000  Uiso   1.00
H2148  H     0.45918   0.50871   0.22256   0.00000  Uiso   1.00
H2149  H     0.48917   0.52848   0.18698   0.00000  Uiso   1.00
H2150  H     0.45166   0.50027   0.17170   0.00000  Uiso   1.00
H2151  H     0.18768   0.91523   0.84980   0.00000  Uiso   1.00
H2152  H     0.18921   0.88048   0.81408   0.00000  Uiso   1.00
H2153  H     0.41468   0.69468   0.98673   0.00000  Uiso   1.00
H2154  H     0.14502   0.88167   0.88988   0.00000  Uiso   1.00
H2155  H     0.13747   0.84787   0.85297   0.00000  Uiso   1.00
H2156  H     0.20033   0.82606   0.85794   0.00000  Uiso   1.00
H2157  H     0.17992   0.82674   0.90518   0.00000  Uiso   1.00
H2158  H     0.21173   0.86214   0.89139   0.00000  Uiso   1.00
H2159  H     0.46321   0.89325   0.27861   0.00000  Uiso   1.00
H2160  H     0.44814   0.93654   0.25843   0.00000  Uiso   1.00
H2161  H     0.01507   0.89227   0.23266   0.00000  Uiso   1.00
H2162  H     0.49968   0.93463   0.21189   0.00000  Uiso   1.00
H2163  H     0.00964   0.96687   0.27335   0.00000  Uiso   1.00
H2164  H     0.42995   0.74005   0.99308   0.00000  Uiso   1.00
H2165  H     0.05056   0.94284   0.26003   0.00000  Uiso   1.00
H2166  H     0.02139   0.92455   0.29709   0.00000  Uiso   1.00
H2167  H     0.03805   0.63380   0.84042   0.00000  Uiso   1.00
H2168  H     0.08285   0.65061   0.83188   0.00000  Uiso   1.00
H2169  H     0.06384   0.57075   0.85345   0.00000  Uiso   1.00
H2170  H     0.10893   0.58996   0.84939   0.00000  Uiso   1.00
H2171  H     0.09484   0.63373   0.90286   0.00000  Uiso   1.00
H2172  H     0.09026   0.58676   0.91765   0.00000  Uiso   1.00
H2173  H     0.05016   0.61338   0.90773   0.00000  Uiso   1.00
H2174  H     0.11273   0.50581   0.75898   0.00000  Uiso   1.00
H2175  H     0.39200   0.69111   0.05377   0.00000  Uiso   1.00
H2176  H     0.10929   0.54074   0.72331   0.00000  Uiso   1.00
H2177  H     0.04892   0.51930   0.78125   0.00000  Uiso   1.00
H2178  H     0.04487   0.55263   0.74339   0.00000  Uiso   1.00
H2179  H     0.05636   0.50412   0.69404   0.00000  Uiso   1.00
H2180  H     0.01787   0.99287   0.72400   0.00000  Uiso   1.00
H2181  H     0.06075   0.97044   0.73196   0.00000  Uiso   1.00
H2182  H     0.36807   0.95869   0.15823   0.00000  Uiso   1.00
H2183  H     0.35432   0.91298   0.16713   0.00000  Uiso   1.00
H2184  H     0.43328   0.93842   0.14944   0.00000  Uiso   1.00
H2185  H     0.41879   0.89174   0.15603   0.00000  Uiso   1.00
H2186  H     0.40731   0.73711   0.06304   0.00000  Uiso   1.00
H2187  H     0.37795   0.89579   0.09987   0.00000  Uiso   1.00
H2188  H     0.42436   0.90607   0.08712   0.00000  Uiso   1.00
H2189  H     0.39201   0.94264   0.09200   0.00000  Uiso   1.00
H2190  H     0.02532   0.88259   0.82211   0.00000  Uiso   1.00
H2191  H     0.04116   0.89675   0.77605   0.00000  Uiso   1.00
H2192  H     0.06810   0.92965   0.85306   0.00000  Uiso   1.00
H2193  H     0.07733   0.94667   0.80539   0.00000  Uiso   1.00
H2194  H     0.01099   0.95897   0.79613   0.00000  Uiso   1.00
H2195  H     0.02911   0.98269   0.83750   0.00000  Uiso   1.00
H2196  H     0.00188   0.94229   0.84429   0.00000  Uiso   1.00
H2197  H     0.36606   0.76093   0.01225   0.00000  Uiso   1.00
H2198  H     0.41413   0.68548   0.14954   0.00000  Uiso   1.00
H2199  H     0.37976   0.68676   0.18537   0.00000  Uiso   1.00
H2200  H     0.38183   0.64272   0.10954   0.00000  Uiso   1.00
H2201  H     0.35009   0.63130   0.14722   0.00000  Uiso   1.00
H2202  H     0.32211   0.69136   0.14489   0.00000  Uiso   1.00
H2203  H     0.32473   0.67383   0.09638   0.00000  Uiso   1.00
H2204  H     0.35658   0.70830   0.11235   0.00000  Uiso   1.00
H2205  H     0.37850   0.98704   0.74185   0.00000  Uiso   1.00
H2206  H     0.40653   0.95319   0.71873   0.00000  Uiso   1.00
H2207  H     0.43357   0.99913   0.78697   0.00000  Uiso   1.00
H2208  H     0.21808   0.56491   0.98726   0.00000  Uiso   1.00
H2209  H     0.34105   0.73526   0.04781   0.00000  Uiso   1.00
H2210  H     0.45957   0.97133   0.75443   0.00000  Uiso   1.00
H2211  H     0.44197   0.51327   0.69964   0.00000  Uiso   1.00
H2212  H     0.46627   0.53673   0.73742   0.00000  Uiso   1.00
H2213  H     0.41771   0.54176   0.73381   0.00000  Uiso   1.00
H2214  H     0.13466   0.54228   0.15755   0.00000  Uiso   1.00
H2215  H     0.15117   0.58643   0.17005   0.00000  Uiso   1.00
H2216  H     0.07382   0.56612   0.14191   0.00000  Uiso   1.00
H2217  H     0.08700   0.61146   0.15669   0.00000  Uiso   1.00
H2218  H     0.13369   0.61469   0.10607   0.00000  Uiso   1.00
H2219  H     0.08981   0.60468   0.08566   0.00000  Uiso   1.00
H2220  H     0.35074   0.71512   0.00148   0.00000  Uiso   1.00
H2221  H     0.12280   0.56873   0.09063   0.00000  Uiso   1.00
H2222  H     0.47328   0.62168   0.82449   0.00000  Uiso   1.00
H2223  H     0.45754   0.60343   0.77992   0.00000  Uiso   1.00
H2224  H     0.43272   0.57652   0.86026   0.00000  Uiso   1.00
H2225  H     0.42183   0.55608   0.81465   0.00000  Uiso   1.00
H2226  H     0.48899   0.54457   0.80365   0.00000  Uiso   1.00
H2227  H     0.47137   0.52207   0.84596   0.00000  Uiso   1.00
H2228  H     0.49809   0.56307   0.85099   0.00000  Uiso   1.00
H2229  H     0.08787   0.81021   0.15083   0.00000  Uiso   1.00
H2230  H     0.12177   0.81049   0.18728   0.00000  Uiso   1.00
H2231  H     0.45155   0.84537   0.00855   0.00000  Uiso   1.00
H2232  H     0.12123   0.85314   0.11042   0.00000  Uiso   1.00
H2233  H     0.15394   0.86203   0.14785   0.00000  Uiso   1.00
H2234  H     0.17751   0.80001   0.14490   0.00000  Uiso   1.00
H2235  H     0.17654   0.81847   0.09674   0.00000  Uiso   1.00
H2236  H     0.14221   0.78607   0.11185   0.00000  Uiso   1.00
H2237  H     0.36132   0.72664   0.67949   0.00000  Uiso   1.00
H2238  H     0.35575   0.71293   0.72836   0.00000  Uiso   1.00
H2239  H     0.31091   0.68136   0.66045   0.00000  Uiso   1.00
H2240  H     0.30275   0.67431   0.71102   0.00000  Uiso   1.00
H2241  H     0.29013   0.74082   0.71948   0.00000  Uiso   1.00
H2242  H     0.44167   0.79818   0.00517   0.00000  Uiso   1.00
H2243  H     0.26079   0.72021   0.68382   0.00000  Uiso   1.00
H2244  H     0.29854   0.74813   0.66859   0.00000  Uiso   1.00
H2245  H     0.06181   0.83685   0.34961   0.00000  Uiso   1.00
H2246  H     0.06173   0.87181   0.31417   0.00000  Uiso   1.00
H2247  H     0.10471   0.86838   0.39038   0.00000  Uiso   1.00
H2248  H     0.11543   0.90141   0.35361   0.00000  Uiso   1.00
H2249  H     0.05439   0.92774   0.35728   0.00000  Uiso   1.00
H2250  H     0.07321   0.92527   0.40508   0.00000  Uiso   1.00
H2251  H     0.03936   0.89234   0.38996   0.00000  Uiso   1.00
H2252  H     0.28662   0.85815   0.77483   0.00000  Uiso   1.00
H2253  H     0.43945   0.85224   0.93623   0.00000  Uiso   1.00
H2254  H     0.30133   0.81450   0.75519   0.00000  Uiso   1.00
H2255  H     0.23603   0.85976   0.72721   0.00000  Uiso   1.00
H2256  H     0.25078   0.81653   0.70791   0.00000  Uiso   1.00
H2257  H     0.23839   0.78603   0.76982   0.00000  Uiso   1.00
H2258  H     0.19857   0.81120   0.75536   0.00000  Uiso   1.00
H2259  H     0.22765   0.82920   0.79250   0.00000  Uiso   1.00
H2260  H     0.21196   0.61542   0.33867   0.00000  Uiso   1.00
H2261  H     0.16619   0.60197   0.33261   0.00000  Uiso   1.00
H2262  H     0.19112   0.65474   0.38391   0.00000  Uiso   1.00
H2263  H     0.18100   0.68390   0.34400   0.00000  Uiso   1.00
H2264  H     0.42336   0.80566   0.93617   0.00000  Uiso   1.00
H2265  H     0.11662   0.65872   0.34335   0.00000  Uiso   1.00
H2266  H     0.12857   0.67822   0.38925   0.00000  Uiso   1.00
H2267  H     0.12823   0.62941   0.38323   0.00000  Uiso   1.00
H2268  H     0.12611   0.77617   0.67565   0.00000  Uiso   1.00
H2269  H     0.14648   0.79203   0.71897   0.00000  Uiso   1.00
H2270  H     0.16975   0.81288   0.63611   0.00000  Uiso   1.00
H2271  H     0.19157   0.82846   0.67930   0.00000  Uiso   1.00
H2272  H     0.20609   0.76355   0.69687   0.00000  Uiso   1.00
H2273  H     0.22517   0.77638   0.65089   0.00000  Uiso   1.00
H2274  H     0.18491   0.74830   0.65275   0.00000  Uiso   1.00
H2275  H     0.37710   0.82255   0.98700   0.00000  Uiso   1.00
H2276  H     0.43824   0.66759   0.34756   0.00000  Uiso   1.00
H2277  H     0.43695   0.62858   0.31690   0.00000  Uiso   1.00
H2278  H     0.39043   0.64021   0.39028   0.00000  Uiso   1.00
H2279  H     0.38887   0.60044   0.35975   0.00000  Uiso   1.00
H2280  H     0.45453   0.58818   0.37367   0.00000  Uiso   1.00
H2281  H     0.42772   0.59001   0.41723   0.00000  Uiso   1.00
H2282  H     0.45619   0.62826   0.40424   0.00000  Uiso   1.00
H2283  H     0.24608   0.64490   0.74289   0.00000  Uiso   1.00
H2284  H     0.21339   0.63258   0.77855   0.00000  Uiso   1.00
H2285  H     0.21915   0.70819   0.73899   0.00000  Uiso   1.00
H2286  H     0.37174   0.84782   0.94286   0.00000  Uiso   1.00
H2287  H     0.18778   0.69610   0.77684   0.00000  Uiso   1.00
H2288  H     0.24075   0.68236   0.82058   0.00000  Uiso   1.00
H2289  H     0.24058   0.72893   0.80407   0.00000  Uiso   1.00
H2290  H     0.27163   0.69661   0.78272   0.00000  Uiso   1.00
H2291  H     0.28532   0.88034   0.33640   0.00000  Uiso   1.00
H2292  H     0.33092   0.89571   0.33074   0.00000  Uiso   1.00
H2293  H     0.30856   0.81545   0.34630   0.00000  Uiso   1.00
H2294  H     0.35422   0.83376   0.34617   0.00000  Uiso   1.00
H2295  H     0.33700   0.87553   0.40130   0.00000  Uiso   1.00
H2296  H     0.33287   0.82780   0.41296   0.00000  Uiso   1.00
H2297  H     0.39253   0.86945   0.98405   0.00000  Uiso   1.00
H2298  H     0.29265   0.85391   0.40241   0.00000  Uiso   1.00
H2299  H     0.37149   0.76390   0.23964   0.00000  Uiso   1.00
H2300  H     0.34271   0.79791   0.21799   0.00000  Uiso   1.00
H2301  H     0.31672   0.75057   0.28549   0.00000  Uiso   1.00
H2302  H     0.29022   0.77800   0.25317   0.00000  Uiso   1.00
H2303  H     0.30865   0.73669   0.19813   0.00000  Uiso   1.00
H2304  H     0.28475   0.71261   0.23580   0.00000  Uiso   1.00
H2305  H     0.33338   0.70847   0.23207   0.00000  Uiso   1.00
H2306  H     0.11808   0.70707   0.65624   0.00000  Uiso   1.00
H2307  H     0.10084   0.66312   0.66845   0.00000  Uiso   1.00
H2308  H     0.32299   0.94451   0.98012   0.00000  Uiso   1.00
H2309  H     0.18048   0.68165   0.64575   0.00000  Uiso   1.00
H2310  H     0.16387   0.63656   0.65714   0.00000  Uiso   1.00
H2311  H     0.12141   0.63776   0.60262   0.00000  Uiso   1.00
H2312  H     0.16738   0.64613   0.58672   0.00000  Uiso   1.00
H2313  H     0.13586   0.68357   0.59033   0.00000  Uiso   1.00
H2314  H     0.27562   0.62944   0.32284   0.00000  Uiso   1.00
H2315  H     0.29247   0.64796   0.27885   0.00000  Uiso   1.00
H2316  H     0.31543   0.67393   0.36019   0.00000  Uiso   1.00
H2317  H     0.32789   0.69463   0.31517   0.00000  Uiso   1.00
H2318  H     0.26167   0.70732   0.30202   0.00000  Uiso   1.00
H2319  H     0.17814   0.59353   0.05985   0.00000  Uiso   1.00
H2320  H     0.28162   0.93715   0.00513   0.00000  Uiso   1.00
H2321  H     0.27784   0.72896   0.34541   0.00000  Uiso   1.00
H2322  H     0.25028   0.68834   0.34852   0.00000  Uiso   1.00
H2323  H     0.16099   0.94039   0.65069   0.00000  Uiso   1.00
H2324  H     0.12841   0.94059   0.68851   0.00000  Uiso   1.00
H2325  H     0.12567   0.89816   0.61148   0.00000  Uiso   1.00
H2326  H     0.09426   0.88936   0.65023   0.00000  Uiso   1.00
H2327  H     0.07092   0.95134   0.64880   0.00000  Uiso   1.00
H2328  H     0.07045   0.93353   0.60033   0.00000  Uiso   1.00
H2329  H     0.10533   0.96559   0.61481   0.00000  Uiso   1.00
H2330  H     0.14158   0.74550   0.25808   0.00000  Uiso   1.00
H2331  H     0.35990   0.92401   0.03224   0.00000  Uiso   1.00
H2332  H     0.13563   0.71127   0.22208   0.00000  Uiso   1.00
H2333  H     0.20564   0.72297   0.26999   0.00000  Uiso   1.00
H2334  H     0.20005   0.69100   0.23100   0.00000  Uiso   1.00
H2335  H     0.18828   0.74266   0.18551   0.00000  Uiso   1.00
H2336  H     0.23176   0.74739   0.20900   0.00000  Uiso   1.00
H2337  H     0.19397   0.77494   0.22465   0.00000  Uiso   1.00
H2338  H     0.38598   0.78820   0.66095   0.00000  Uiso   1.00
H2339  H     0.39743   0.83476   0.66613   0.00000  Uiso   1.00
H2340  H     0.34480   0.80596   0.61646   0.00000  Uiso   1.00
H2341  H     0.31626   0.81704   0.65657   0.00000  Uiso   1.00
H2342  H     0.32292   0.92631   0.06646   0.00000  Uiso   1.00
H2343  H     0.34076   0.88216   0.65406   0.00000  Uiso   1.00
H2344  H     0.31935   0.86812   0.60980   0.00000  Uiso   1.00
H2345  H     0.36822   0.86935   0.61303   0.00000  Uiso   1.00
H2346  H     0.22536   0.85900   0.31830   0.00000  Uiso   1.00
H2347  H     0.20832   0.85026   0.27148   0.00000  Uiso   1.00
H2348  H     0.17532   0.81414   0.34408   0.00000  Uiso   1.00
H2349  H     0.17000   0.80032   0.29470   0.00000  Uiso   1.00
H2350  H     0.23604   0.78451   0.29152   0.00000  Uiso   1.00
H2351  H     0.21272   0.75987   0.32925   0.00000  Uiso   1.00
H2352  H     0.24133   0.79813   0.34142   0.00000  Uiso   1.00
H2353  H     0.29170   0.87506   0.03629   0.00000  Uiso   1.00
H2354  H     0.33551   0.56288   0.65149   0.00000  Uiso   1.00
H2355  H     0.37134   0.56331   0.68577   0.00000  Uiso   1.00
H2356  H     0.36552   0.60561   0.60920   0.00000  Uiso   1.00
H2357  H     0.39905   0.61739   0.64495   0.00000  Uiso   1.00
H2358  H     0.42611   0.55648   0.64192   0.00000  Uiso   1.00
H2359  H     0.42237   0.57436   0.59366   0.00000  Uiso   1.00
H2360  H     0.39044   0.54030   0.61044   0.00000  Uiso   1.00
H2361  H     0.16215   0.96408   0.11984   0.00000  Uiso   1.00
H2362  H     0.17715   0.96084   0.07114   0.00000  Uiso   1.00
H2363  H     0.11020   0.50017   0.10351   0.00000  Uiso   1.00
H2364  H     0.33833   0.86211   0.04432   0.00000  Uiso   1.00
H2365  H     0.12798   0.51182   0.05683   0.00000  Uiso   1.00
H2366  H     0.11906   0.95065   0.03228   0.00000  Uiso   1.00
H2367  H     0.07769   0.96414   0.05598   0.00000  Uiso   1.00
H2368  H     0.10851   0.93284   0.07946   0.00000  Uiso   1.00
H2369  H     0.34112   0.98833   0.87509   0.00000  Uiso   1.00
H2370  H     0.33872   0.98800   0.92691   0.00000  Uiso   1.00
H2371  H     0.37660   0.54657   0.87773   0.00000  Uiso   1.00
H2372  H     0.37369   0.54628   0.92957   0.00000  Uiso   1.00
H2373  H     0.40656   0.98534   0.92971   0.00000  Uiso   1.00
H2374  H     0.43294   0.52201   0.90915   0.00000  Uiso   1.00
H2375  H     0.32342   0.87442   0.99646   0.00000  Uiso   1.00
H2376  H     0.41141   0.98925   0.87784   0.00000  Uiso   1.00
H2377  H     0.01984   0.66744   0.10266   0.00000  Uiso   1.00
H2378  H     0.49088   0.65394   0.06282   0.00000  Uiso   1.00
H2379  H     0.48121   0.63427   0.14823   0.00000  Uiso   1.00
H2380  H     0.44824   0.62428   0.11109   0.00000  Uiso   1.00
H2381  H     0.49250   0.58664   0.07564   0.00000  Uiso   1.00
H2382  H     0.49106   0.57147   0.12501   0.00000  Uiso   1.00
H2383  H     0.02818   0.59942   0.10870   0.00000  Uiso   1.00
H2384  H     0.04585   0.83422   0.87545   0.00000  Uiso   1.00
H2385  H     0.04971   0.82142   0.92497   0.00000  Uiso   1.00
H2386  H     0.17634   0.92692   0.01086   0.00000  Uiso   1.00
H2387  H     0.01325   0.88979   0.89115   0.00000  Uiso   1.00
H2388  H     0.00583   0.87572   0.94002   0.00000  Uiso   1.00
H2389  H     0.07159   0.87915   0.95421   0.00000  Uiso   1.00
H2390  H     0.05587   0.92175   0.93445   0.00000  Uiso   1.00
H2391  H     0.08135   0.89048   0.90459   0.00000  Uiso   1.00
H2392  H     0.33135   0.54280   0.12561   0.00000  Uiso   1.00
H2393  H     0.32526   0.54649   0.07432   0.00000  Uiso   1.00
H2394  H     0.38670   0.50500   0.11536   0.00000  Uiso   1.00
H2395  H     0.37945   0.50582   0.06405   0.00000  Uiso   1.00
H2396  H     0.38904   0.57265   0.06273   0.00000  Uiso   1.00
H2397  H     0.22272   0.93822   0.01606   0.00000  Uiso   1.00
H2398  H     0.42652   0.55109   0.08697   0.00000  Uiso   1.00
H2399  H     0.39185   0.57418   0.11454   0.00000  Uiso   1.00
H2400  H     0.16084   0.51422   0.87615   0.00000  Uiso   1.00
H2401  H     0.16053   0.51378   0.92806   0.00000  Uiso   1.00
H2402  H     0.12522   0.95537   0.87642   0.00000  Uiso   1.00
H2403  H     0.12449   0.95654   0.92829   0.00000  Uiso   1.00
H2404  H     0.09201   0.51724   0.92556   0.00000  Uiso   1.00
H2405  H     0.06702   0.98128   0.90197   0.00000  Uiso   1.00
H2406  H     0.09178   0.51399   0.87338   0.00000  Uiso   1.00
H2407  H     0.49230   0.84149   0.12463   0.00000  Uiso   1.00
H2408  H     0.18712   0.90601   0.94238   0.00000  Uiso   1.00
H2409  H     0.49118   0.83880   0.07285   0.00000  Uiso   1.00
H2410  H     0.05122   0.87554   0.12095   0.00000  Uiso   1.00
H2411  H     0.05060   0.87188   0.06922   0.00000  Uiso   1.00
H2412  H     0.49180   0.90684   0.06765   0.00000  Uiso   1.00
H2413  H     0.02770   0.93238   0.09045   0.00000  Uiso   1.00
H2414  H     0.49327   0.91090   0.11973   0.00000  Uiso   1.00
H2415  H     0.45352   0.66775   0.87616   0.00000  Uiso   1.00
H2416  H     0.44789   0.68475   0.92401   0.00000  Uiso   1.00
H2417  H     0.48154   0.61190   0.89834   0.00000  Uiso   1.00
H2418  H     0.48761   0.62943   0.94623   0.00000  Uiso   1.00
H2419  H     0.23531   0.91264   0.94978   0.00000  Uiso   1.00
H2420  H     0.42157   0.63054   0.95766   0.00000  Uiso   1.00
H2421  H     0.43488   0.58590   0.94105   0.00000  Uiso   1.00
H2422  H     0.41278   0.61716   0.90844   0.00000  Uiso   1.00
H2423  H     0.41164   0.71610   0.63341   0.00000  Uiso   1.00
H2424  H     0.43494   0.69950   0.59180   0.00000  Uiso   1.00
H2425  H     0.36312   0.74327   0.59265   0.00000  Uiso   1.00
H2426  H     0.38670   0.72860   0.54980   0.00000  Uiso   1.00
H2427  H     0.38092   0.66318   0.57186   0.00000  Uiso   1.00
H2428  H     0.33755   0.68528   0.56546   0.00000  Uiso   1.00
H2429  H     0.35567   0.67856   0.61321   0.00000  Uiso   1.00
H2430  H     0.22648   0.58658   0.05697   0.00000  Uiso   1.00
H2431  H     0.23208   0.86927   0.00665   0.00000  Uiso   1.00
H2432  H     0.09160   0.74073   0.37471   0.00000  Uiso   1.00
H2433  H     0.08774   0.73676   0.42623   0.00000  Uiso   1.00
H2434  H     0.12480   0.80064   0.38388   0.00000  Uiso   1.00
H2435  H     0.12223   0.79429   0.43518   0.00000  Uiso   1.00
H2436  H     0.15710   0.73547   0.42860   0.00000  Uiso   1.00
H2437  H     0.18211   0.77403   0.40996   0.00000  Uiso   1.00
H2438  H     0.16016   0.74293   0.37707   0.00000  Uiso   1.00
H2439  H     0.25490   0.90857   0.62654   0.00000  Uiso   1.00
H2440  H     0.25936   0.91273   0.57515   0.00000  Uiso   1.00
H2441  H     0.19567   0.87510   0.61715   0.00000  Uiso   1.00
H2442  H     0.22021   0.84834   0.96145   0.00000  Uiso   1.00
H2443  H     0.20137   0.87887   0.56579   0.00000  Uiso   1.00
H2444  H     0.26036   0.84404   0.57070   0.00000  Uiso   1.00
H2445  H     0.22211   0.81838   0.58866   0.00000  Uiso   1.00
H2446  H     0.25314   0.83952   0.62216   0.00000  Uiso   1.00
H2447  H     0.29183   0.58479   0.37744   0.00000  Uiso   1.00
H2448  H     0.29560   0.56997   0.42622   0.00000  Uiso   1.00
H2449  H     0.26086   0.63988   0.39470   0.00000  Uiso   1.00
H2450  H     0.24957   0.62372   0.44195   0.00000  Uiso   1.00
H2451  H     0.31347   0.62592   0.46245   0.00000  Uiso   1.00
H2452  H     0.30085   0.66933   0.44212   0.00000  Uiso   1.00
H2453  H     0.18485   0.86066   0.99509   0.00000  Uiso   1.00
H2454  H     0.32811   0.63782   0.41439   0.00000  Uiso   1.00
H2455  H     0.08869   0.78779   0.61871   0.00000  Uiso   1.00
H2456  H     0.07322   0.79111   0.57029   0.00000  Uiso   1.00
H2457  H     0.14024   0.75161   0.60178   0.00000  Uiso   1.00
H2458  H     0.12168   0.73903   0.55575   0.00000  Uiso   1.00
H2459  H     0.13028   0.79990   0.52988   0.00000  Uiso   1.00
H2460  H     0.17211   0.78631   0.55248   0.00000  Uiso   1.00
H2461  H     0.14226   0.81827   0.57646   0.00000  Uiso   1.00
H2462  H     0.40865   0.76408   0.37660   0.00000  Uiso   1.00
H2463  H     0.40947   0.76254   0.42846   0.00000  Uiso   1.00
H2464  H     0.08347   0.81026   0.98704   0.00000  Uiso   1.00
H2465  H     0.37324   0.70612   0.37517   0.00000  Uiso   1.00
H2466  H     0.37546   0.70315   0.42692   0.00000  Uiso   1.00
H2467  H     0.34173   0.76268   0.43196   0.00000  Uiso   1.00
H2468  H     0.31624   0.72819   0.40667   0.00000  Uiso   1.00
H2469  H     0.33852   0.76387   0.37977   0.00000  Uiso   1.00
H2470  H     0.23861   0.58970   0.62234   0.00000  Uiso   1.00
H2471  H     0.24078   0.58958   0.57043   0.00000  Uiso   1.00
H2472  H     0.29797   0.62410   0.62379   0.00000  Uiso   1.00
H2473  H     0.29882   0.62393   0.57193   0.00000  Uiso   1.00
H2474  H     0.23940   0.65840   0.57160   0.00000  Uiso   1.00
H2475  H     0.06859   0.76450   0.99183   0.00000  Uiso   1.00
H2476  H     0.27482   0.68268   0.59690   0.00000  Uiso   1.00
H2477  H     0.24014   0.65902   0.62384   0.00000  Uiso   1.00
H2478  H     0.22930   0.89939   0.36767   0.00000  Uiso   1.00
H2479  H     0.20262   0.93415   0.38919   0.00000  Uiso   1.00
H2480  H     0.24302   0.87716   0.43891   0.00000  Uiso   1.00
H2481  H     0.20466   0.90512   0.45160   0.00000  Uiso   1.00
H2482  H     0.16784   0.87017   0.40090   0.00000  Uiso   1.00
H2483  H     0.18305   0.84328   0.44136   0.00000  Uiso   1.00
H2484  H     0.20660   0.84007   0.39593   0.00000  Uiso   1.00
H2485  H     0.10723   0.81086   0.05416   0.00000  Uiso   1.00
H2486  H     0.09300   0.76405   0.06046   0.00000  Uiso   1.00
H2487  H     0.13352   0.74501   0.00584   0.00000  Uiso   1.00
H2488  H     0.15857   0.76717   0.04389   0.00000  Uiso   1.00
H2489  H     0.14847   0.79190   0.00032   0.00000  Uiso   1.00
H2490  H     0.23104   0.63180   0.00364   0.00000  Uiso   1.00
H2491  H     0.06391   0.70357   0.00137   0.00000  Uiso   1.00
H2492  H     0.06604   0.68462   0.95285   0.00000  Uiso   1.00
H2493  H     0.04787   0.64269   0.02753   0.00000  Uiso   1.00
H2494  H     0.04911   0.62346   0.97981   0.00000  Uiso   1.00
H2495  H     0.11528   0.64138   0.97427   0.00000  Uiso   1.00
H2496  H     0.10667   0.61100   0.01405   0.00000  Uiso   1.00
H2497  H     0.11349   0.65906   0.02300   0.00000  Uiso   1.00
H2498  H     0.42049   0.81694   0.49221   0.00000  Uiso   1.00
H2499  H     0.46691   0.81830   0.50542   0.00000  Uiso   1.00
H2500  H     0.39924   0.82952   0.55736   0.00000  Uiso   1.00
H2501  H     0.21088   0.65146   0.04629   0.00000  Uiso   1.00
H2502  H     0.44428   0.82541   0.57700   0.00000  Uiso   1.00
H2503  H     0.46581   0.87934   0.54448   0.00000  Uiso   1.00
H2504  H     0.42333   0.89061   0.56744   0.00000  Uiso   1.00
H2505  H     0.42495   0.88295   0.51601   0.00000  Uiso   1.00
H2506  H     0.07291   0.82659   0.51038   0.00000  Uiso   1.00
H2507  H     0.02632   0.81574   0.51490   0.00000  Uiso   1.00
H2508  H     0.06303   0.84681   0.44132   0.00000  Uiso   1.00
H2509  H     0.01473   0.84113   0.44870   0.00000  Uiso   1.00
H2510  H     0.01852   0.88511   0.50508   0.00000  Uiso   1.00
H2511  H     0.03106   0.90533   0.45977   0.00000  Uiso   1.00
H2512  H     0.18243   0.63921   0.00597   0.00000  Uiso   1.00
H2513  H     0.06597   0.89259   0.49363   0.00000  Uiso   1.00
H2514  H     0.16224   0.93698   0.49169   0.00000  Uiso   1.00
H2515  H     0.17804   0.98253   0.49005   0.00000  Uiso   1.00
H2516  H     0.14368   0.94418   0.56084   0.00000  Uiso   1.00
H2517  H     0.15657   0.99172   0.55882   0.00000  Uiso   1.00
H2518  H     0.11229   0.50104   0.50426   0.00000  Uiso   1.00
H2519  H     0.09059   0.98567   0.54791   0.00000  Uiso   1.00
H2520  H     0.09809   0.95393   0.50896   0.00000  Uiso   1.00
H2521  H     0.19320   0.58913   0.51092   0.00000  Uiso   1.00
H2522  H     0.18469   0.54215   0.50260   0.00000  Uiso   1.00
H2523  H     0.27901   0.57296   0.01136   0.00000  Uiso   1.00
H2524  H     0.18249   0.60215   0.43945   0.00000  Uiso   1.00
H2525  H     0.16834   0.55526   0.43400   0.00000  Uiso   1.00
H2526  H     0.11988   0.56537   0.48450   0.00000  Uiso   1.00
H2527  H     0.11485   0.59483   0.44330   0.00000  Uiso   1.00
H2528  H     0.13353   0.61281   0.48746   0.00000  Uiso   1.00
H2529  H     0.07684   0.68065   0.48973   0.00000  Uiso   1.00
H2530  H     0.02917   0.68729   0.48931   0.00000  Uiso   1.00
H2531  H     0.07555   0.66052   0.55812   0.00000  Uiso   1.00
H2532  H     0.02707   0.66726   0.56020   0.00000  Uiso   1.00
H2533  H     0.01758   0.62107   0.50881   0.00000  Uiso   1.00
H2534  H     0.28050   0.58711   0.96115   0.00000  Uiso   1.00
H2535  H     0.04208   0.60222   0.54915   0.00000  Uiso   1.00
H2536  H     0.06617   0.61390   0.50556   0.00000  Uiso   1.00
H2537  H     0.46656   0.68058   0.51382   0.00000  Uiso   1.00
H2538  H     0.46997   0.66776   0.46334   0.00000  Uiso   1.00
H2539  H     0.39723   0.67170   0.50675   0.00000  Uiso   1.00
H2540  H     0.40607   0.65255   0.46009   0.00000  Uiso   1.00
H2541  H     0.44572   0.60476   0.49008   0.00000  Uiso   1.00
H2542  H     0.40018   0.60418   0.50971   0.00000  Uiso   1.00
H2543  H     0.43675   0.62409   0.53724   0.00000  Uiso   1.00
H2544  H     0.33021   0.55789   0.48526   0.00000  Uiso   1.00
O2545  O     0.25000   0.50000   0.25000   0.00000  Uiso   1.00
O2546  O     0.25000   0.96964   0.66317   0.00000  Uiso   1.00
O2547  O     0.33764   0.61056   0.68259   0.00000  Uiso   1.00
O2548  O     0.18493   0.51199   0.09991   0.00000  Uiso   1.00
O2549  O     0.30967   0.52991   0.89750   0.00000  Uiso   1.00
O2550  O     0.46862   0.69206   0.10079   0.00000  Uiso   1.00
O2551  O     0.49720   0.81702   0.89883   0.00000  Uiso   1.00
O2552  O     0.31648   0.99416   0.09996   0.00000  Uiso   1.00
O2553  O     0.19061   0.97200   0.89966   0.00000  Uiso   1.00
O2554  O     0.03234   0.80836   0.10185   0.00000  Uiso   1.00
O2555  O     0.00191   0.68403   0.90073   0.00000  Uiso   1.00
O2556  O     0.43361   0.75740   0.60080   0.00000  Uiso   1.00
O2557  O     0.46964   0.75000   0.33683   0.00000  Uiso   1.00
O2558  O     0.05875   0.78009   0.39893   0.00000  Uiso   1.00
O2559  O     0.21625   0.94217   0.60223   0.00000  Uiso   1.00
O2560  O     0.24317   0.56622   0.39973   0.00000  Uiso   1.00
O2561  O     0.06517   0.74008   0.59918   0.00000  Uiso   1.00
O2562  O     0.43982   0.72200   0.39829   0.00000  Uiso   1.00
O2563  O     0.28047   0.55830   0.60038   0.00000  Uiso   1.00
O2564  O     0.25950   0.93418   0.40029   0.00000  Uiso   1.00
O2565  O     0.03036   0.75000   0.66317   0.00000  Uiso   1.00
O2566  O     0.00000   0.71964   0.83683   0.00000  Uiso   1.00
O2567  O     0.00000   0.78036   0.16317   0.00000  Uiso   1.00
O2568  O     0.28036   0.50000   0.83683   0.00000  Uiso   1.00
O2569  O     0.21964   0.50000   0.16317   0.00000  Uiso   1.00
O2570  O     0.00000   0.78036   0.83683   0.00000  Uiso   1.00
O2571  O     0.00000   0.71964   0.16317   0.00000  Uiso   1.00
O2572  O     0.21964   0.50000   0.83683   0.00000  Uiso   1.00
O2573  O     0.25000   0.50000   0.75000   0.00000  Uiso   1.00
O2574  O     0.28036   0.50000   0.16317   0.00000  Uiso   1.00
O2575  O     0.20725   0.57307   0.27282   0.00000  Uiso   1.00
O2576  O     0.29274   0.92693   0.72718   0.00000  Uiso   1.00
O2577  O     0.42693   0.70726   0.27282   0.00000  Uiso   1.00
O2578  O     0.07307   0.79275   0.72718   0.00000  Uiso   1.00
O2579  O     0.29274   0.92693   0.27282   0.00000  Uiso   1.00
O2580  O     0.20725   0.57307   0.72718   0.00000  Uiso   1.00
O2581  O     0.07307   0.79275   0.27282   0.00000  Uiso   1.00
O2582  O     0.42693   0.70726   0.72718   0.00000  Uiso   1.00
O2583  O     0.20725   0.92693   0.72718   0.00000  Uiso   1.00
O2584  O    -0.00000   0.75000   0.25000   0.00000  Uiso   1.00
O2585  O     0.29274   0.57307   0.27282   0.00000  Uiso   1.00
O2586  O     0.42693   0.79275   0.72718   0.00000  Uiso   1.00
O2587  O     0.07307   0.70726   0.27282   0.00000  Uiso   1.00
O2588  O     0.29274   0.57307   0.72718   0.00000  Uiso   1.00
O2589  O     0.20725   0.92693   0.27282   0.00000  Uiso   1.00
O2590  O     0.07307   0.70726   0.72718   0.00000  Uiso   1.00
O2591  O     0.42693   0.79275   0.27282   0.00000  Uiso   1.00
O2592  O     0.45725   0.82307   0.77282   0.00000  Uiso   1.00
O2593  O     0.04274   0.67693   0.22718   0.00000  Uiso   1.00
O2594  O     0.17693   0.95726   0.77282   0.00000  Uiso   1.00
O2595  O     0.00000   0.75000   0.75000   0.00000  Uiso   1.00
O2596  O     0.32307   0.54275   0.22718   0.00000  Uiso   1.00
O2597  O     0.04274   0.67693   0.77282   0.00000  Uiso   1.00
O2598  O     0.45725   0.82307   0.22718   0.00000  Uiso   1.00
O2599  O     0.32307   0.54275   0.77282   0.00000  Uiso   1.00
O2600  O     0.17693   0.95726   0.22718   0.00000  Uiso   1.00
O2601  O     0.45725   0.67693   0.22718   0.00000  Uiso   1.00
O2602  O     0.04274   0.82307   0.77282   0.00000  Uiso   1.00
O2603  O     0.17693   0.54275   0.22718   0.00000  Uiso   1.00
O2604  O     0.32307   0.95726   0.77282   0.00000  Uiso   1.00
O2605  O     0.04274   0.82307   0.22718   0.00000  Uiso   1.00
O2606  O     0.25000   0.96964   0.33683   0.00000  Uiso   1.00
O2607  O     0.45725   0.67693   0.77282   0.00000  Uiso   1.00
O2608  O     0.32307   0.95726   0.22718   0.00000  Uiso   1.00
O2609  O     0.17693   0.54275   0.77282   0.00000  Uiso   1.00
O2610  O     0.18907   0.52924   0.02354   0.00000  Uiso   1.00
O2611  O     0.30704   0.53811   0.97518   0.00000  Uiso   1.00
O2612  O     0.45823   0.69882   0.02288   0.00000  Uiso   1.00
O2613  O     0.48849   0.81716   0.97662   0.00000  Uiso   1.00
O2614  O     0.31382   0.98260   0.02242   0.00000  Uiso   1.00
O2615  O     0.19209   0.97009   0.97788   0.00000  Uiso   1.00
O2616  O     0.04082   0.80448   0.02427   0.00000  Uiso   1.00
O2617  O     0.25000   0.53036   0.66317   0.00000  Uiso   1.00
O2618  O     0.01455   0.68677   0.97848   0.00000  Uiso   1.00
O2619  O     0.43634   0.77279   0.52402   0.00000  Uiso   1.00
O2620  O     0.05733   0.78346   0.47721   0.00000  Uiso   1.00
O2621  O     0.20727   0.94577   0.52474   0.00000  Uiso   1.00
O2622  O     0.23163   0.56495   0.47723   0.00000  Uiso   1.00
O2623  O     0.06021   0.72412   0.52222   0.00000  Uiso   1.00
O2624  O     0.44188   0.71649   0.47640   0.00000  Uiso   1.00
O2625  O     0.28738   0.55332   0.52256   0.00000  Uiso   1.00
O2626  O     0.26299   0.93603   0.47866   0.00000  Uiso   1.00
O2627  O     0.13187   0.91984   0.18530   0.00000  Uiso   1.00
O2628  O     0.03036   0.75000   0.33683   0.00000  Uiso   1.00
O2629  O     0.35868   0.58847   0.81904   0.00000  Uiso   1.00
O2630  O     0.05593   0.60732   0.22189   0.00000  Uiso   1.00
O2631  O     0.43964   0.88921   0.78937   0.00000  Uiso   1.00
O2632  O     0.37378   0.57546   0.18983   0.00000  Uiso   1.00
O2633  O     0.14063   0.91182   0.81825   0.00000  Uiso   1.00
O2634  O     0.44389   0.89144   0.22215   0.00000  Uiso   1.00
O2635  O     0.06133   0.61226   0.79188   0.00000  Uiso   1.00
O2636  O     0.10924   0.55697   0.78247   0.00000  Uiso   1.00
O2637  O     0.38792   0.93870   0.20905   0.00000  Uiso   1.00
O2638  O     0.07887   0.87041   0.81323   0.00000  Uiso   1.00
O2639  O     0.46964   0.75000   0.66317   0.00000  Uiso   1.00
O2640  O     0.41252   0.63894   0.18242   0.00000  Uiso   1.00
O2641  O     0.39243   0.94461   0.77783   0.00000  Uiso   1.00
O2642  O     0.11261   0.56193   0.20775   0.00000  Uiso   1.00
O2643  O     0.41931   0.63179   0.81507   0.00000  Uiso   1.00
O2644  O     0.08928   0.85831   0.18118   0.00000  Uiso   1.00
O2645  O     0.37664   0.67380   0.68920   0.00000  Uiso   1.00
O2646  O     0.10909   0.83856   0.31809   0.00000  Uiso   1.00
O2647  O     0.30732   0.85927   0.71877   0.00000  Uiso   1.00
O2648  O     0.18887   0.63842   0.29108   0.00000  Uiso   1.00
O2649  O     0.11761   0.83073   0.68500   0.00000  Uiso   1.00
O2650  O     0.25000   0.53036   0.33683   0.00000  Uiso   1.00
O2651  O     0.39004   0.66297   0.31836   0.00000  Uiso   1.00
O2652  O     0.19418   0.64248   0.72186   0.00000  Uiso   1.00
O2653  O     0.30945   0.86031   0.28769   0.00000  Uiso   1.00
O2654  O     0.35739   0.80519   0.27708   0.00000  Uiso   1.00
O2655  O     0.13758   0.68800   0.70770   0.00000  Uiso   1.00
O2656  O     0.32972   0.61908   0.31456   0.00000  Uiso   1.00
O2657  O     0.15999   0.89235   0.68104   0.00000  Uiso   1.00
O2658  O     0.14137   0.69381   0.28025   0.00000  Uiso   1.00
O2659  O     0.36252   0.81109   0.70853   0.00000  Uiso   1.00
O2660  O     0.17313   0.87691   0.31109   0.00000  Uiso   1.00
Zn2661 Zn    0.20660   0.50000   0.21760   0.00000  Uiso   1.00
Zn2662 Zn    0.04340   0.75000   0.28240   0.00000  Uiso   1.00
Zn2663 Zn    0.25000   0.95660   0.71760   0.00000  Uiso   1.00
Zn2664 Zn    0.25000   0.54340   0.28240   0.00000  Uiso   1.00
Zn2665 Zn    0.04340   0.75000   0.71760   0.00000  Uiso   1.00
Zn2666 Zn    0.45660   0.75000   0.28240   0.00000  Uiso   1.00
Zn2667 Zn    0.25000   0.54340   0.71760   0.00000  Uiso   1.00
Zn2668 Zn    0.25000   0.95660   0.28240   0.00000  Uiso   1.00
Zn2669 Zn    0.29340   0.50000   0.78240   0.00000  Uiso   1.00
Zn2670 Zn    0.00000   0.70660   0.21760   0.00000  Uiso   1.00
Zn2671 Zn    0.00000   0.79340   0.78240   0.00000  Uiso   1.00
Zn2672 Zn    0.29340   0.50000   0.21760   0.00000  Uiso   1.00
Zn2673 Zn    0.20660   0.50000   0.78240   0.00000  Uiso   1.00
Zn2674 Zn    0.00000   0.79340   0.21760   0.00000  Uiso   1.00
Zn2675 Zn    0.00000   0.70660   0.78240   0.00000  Uiso   1.00
Zn2676 Zn    0.45660   0.75000   0.71760   0.00000  Uiso   1.00
C2677  C     0.71988   0.51574   0.04164   0.00000  Uiso   1.00
C2678  C     0.52760   0.76815   0.45848   0.00000  Uiso   1.00
C2679  C     0.84865   0.90264   0.74870   0.00000  Uiso   1.00
C2680  C     0.90224   0.65182   0.25043   0.00000  Uiso   1.00
C2681  C     0.59807   0.84847   0.74977   0.00000  Uiso   1.00
C2682  C     0.84791   0.90139   0.24958   0.00000  Uiso   1.00
C2683  C     0.65239   0.59834   0.75110   0.00000  Uiso   1.00
C2684  C     0.59839   0.65182   0.75041   0.00000  Uiso   1.00
C2685  C     0.90170   0.84762   0.24966   0.00000  Uiso   1.00
C2686  C     0.65212   0.90194   0.74994   0.00000  Uiso   1.00
C2687  C     0.84899   0.59753   0.25105   0.00000  Uiso   1.00
C2688  C     0.90223   0.84868   0.74930   0.00000  Uiso   1.00
C2689  C     0.72706   0.97334   0.54259   0.00000  Uiso   1.00
C2690  C     0.59773   0.65179   0.25066   0.00000  Uiso   1.00
C2691  C     0.84756   0.59831   0.75063   0.00000  Uiso   1.00
C2692  C     0.65207   0.90136   0.24949   0.00000  Uiso   1.00
C2693  C     0.75050   0.50220   0.10211   0.00000  Uiso   1.00
C2694  C     0.75013   0.50082   0.89752   0.00000  Uiso   1.00
C2695  C     0.50011   0.75032   0.10245   0.00000  Uiso   1.00
C2696  C     0.50001   0.75050   0.89787   0.00000  Uiso   1.00
C2697  C     0.99955   0.74914   0.60219   0.00000  Uiso   1.00
C2698  C     0.99952   0.75071   0.39760   0.00000  Uiso   1.00
C2699  C     0.74870   0.50005   0.60251   0.00000  Uiso   1.00
C2700  C     0.73826   0.53221   0.45846   0.00000  Uiso   1.00
C2701  C     0.74875   0.99993   0.39798   0.00000  Uiso   1.00
C2702  C     0.69547   0.56459   0.00839   0.00000  Uiso   1.00
C2703  C     0.70177   0.59331   0.04003   0.00000  Uiso   1.00
C2704  C     0.70681   0.63128   0.02280   0.00000  Uiso   1.00
C2705  C     0.79601   0.57381   0.98490   0.00000  Uiso   1.00
C2706  C     0.82984   0.59675   0.99312   0.00000  Uiso   1.00
C2707  C     0.82005   0.63360   0.01073   0.00000  Uiso   1.00
C2708  C     0.92562   0.71397   0.00854   0.00000  Uiso   1.00
C2709  C     0.89712   0.71820   0.04044   0.00000  Uiso   1.00
C2710  C     0.86157   0.73328   0.02441   0.00000  Uiso   1.00
C2711  C     0.52981   0.73767   0.54111   0.00000  Uiso   1.00
C2712  C     0.95199   0.82179   0.98841   0.00000  Uiso   1.00
C2713  C     0.92699   0.83046   0.95422   0.00000  Uiso   1.00
C2714  C     0.88979   0.84334   0.96800   0.00000  Uiso   1.00
C2715  C     0.81019   0.94624   0.00907   0.00000  Uiso   1.00
C2716  C     0.83013   0.92015   0.03605   0.00000  Uiso   1.00
C2717  C     0.82028   0.88047   0.02763   0.00000  Uiso   1.00
C2718  C     0.70069   0.93595   0.99450   0.00000  Uiso   1.00
C2719  C     0.70907   0.90646   0.96433   0.00000  Uiso   1.00
C2720  C     0.71169   0.86889   0.98312   0.00000  Uiso   1.00
C2721  C     0.57313   0.79005   0.00825   0.00000  Uiso   1.00
C2722  C     0.97031   0.73415   0.45792   0.00000  Uiso   1.00
C2723  C     0.60237   0.78456   0.03905   0.00000  Uiso   1.00
C2724  C     0.63790   0.77136   0.02105   0.00000  Uiso   1.00
C2725  C     0.55257   0.68256   0.98161   0.00000  Uiso   1.00
C2726  C     0.56075   0.64501   0.99866   0.00000  Uiso   1.00
C2727  C     0.60161   0.63884   0.00270   0.00000  Uiso   1.00
C2728  C     0.93951   0.81055   0.51611   0.00000  Uiso   1.00
C2729  C     0.92863   0.83372   0.55118   0.00000  Uiso   1.00
C2730  C     0.93608   0.87415   0.54420   0.00000  Uiso   1.00
C2731  C     0.54874   0.81770   0.49369   0.00000  Uiso   1.00
C2732  C     0.54101   0.84702   0.46324   0.00000  Uiso   1.00
C2733  C     0.76721   0.52672   0.54153   0.00000  Uiso   1.00
C2734  C     0.53905   0.88482   0.48164   0.00000  Uiso   1.00
C2735  C     0.67409   0.95906   0.50970   0.00000  Uiso   1.00
C2736  C     0.64665   0.96816   0.54156   0.00000  Uiso   1.00
C2737  C     0.60963   0.97777   0.52453   0.00000  Uiso   1.00
C2738  C     0.69480   0.56744   0.48859   0.00000  Uiso   1.00
C2739  C     0.67041   0.57834   0.45467   0.00000  Uiso   1.00
C2740  C     0.63232   0.58843   0.46844   0.00000  Uiso   1.00
C2741  C     0.55340   0.68841   0.50822   0.00000  Uiso   1.00
C2742  C     0.55016   0.66028   0.54090   0.00000  Uiso   1.00
C2743  C     0.54362   0.62201   0.52500   0.00000  Uiso   1.00
C2744  C     0.75515   0.96789   0.45903   0.00000  Uiso   1.00
C2745  C     0.95212   0.68043   0.48569   0.00000  Uiso   1.00
C2746  C     0.91779   0.65708   0.48918   0.00000  Uiso   1.00
C2747  C     0.92575   0.62022   0.50771   0.00000  Uiso   1.00
C2748  C     0.81984   0.53847   0.50724   0.00000  Uiso   1.00
C2749  C     0.84910   0.53426   0.53830   0.00000  Uiso   1.00
C2750  C     0.88403   0.51855   0.52126   0.00000  Uiso   1.00
C2751  C     0.80083   0.93312   0.48420   0.00000  Uiso   1.00
C2752  C     0.80941   0.89401   0.49625   0.00000  Uiso   1.00
C2753  C     0.84982   0.88902   0.50405   0.00000  Uiso   1.00
C2754  C     0.60871   0.95052   0.18941   0.00000  Uiso   1.00
C2755  C     0.71825   0.50959   0.08143   0.00000  Uiso   1.00
C2756  C     0.57294   0.94445   0.16797   0.00000  Uiso   1.00
C2757  C     0.54961   0.97880   0.16829   0.00000  Uiso   1.00
C2758  C     0.82709   0.60466   0.83516   0.00000  Uiso   1.00
C2759  C     0.83711   0.62489   0.87220   0.00000  Uiso   1.00
C2760  C     0.80377   0.64234   0.89078   0.00000  Uiso   1.00
C2761  C     0.53197   0.60007   0.25300   0.00000  Uiso   1.00
C2762  C     0.53514   0.56039   0.26638   0.00000  Uiso   1.00
C2763  C     0.50646   0.55166   0.29689   0.00000  Uiso   1.00
C2764  C     0.93575   0.87666   0.82788   0.00000  Uiso   1.00
C2765  C     0.92528   0.90779   0.85548   0.00000  Uiso   1.00
C2766  C     0.78015   0.51572   0.91732   0.00000  Uiso   1.00
C2767  C     0.88514   0.90638   0.86693   0.00000  Uiso   1.00
C2768  C     0.89692   0.54599   0.19984   0.00000  Uiso   1.00
C2769  C     0.93681   0.55479   0.19091   0.00000  Uiso   1.00
C2770  C     0.96057   0.52082   0.19326   0.00000  Uiso   1.00
C2771  C     0.67084   0.89412   0.83530   0.00000  Uiso   1.00
C2772  C     0.65794   0.86669   0.86564   0.00000  Uiso   1.00
C2773  C     0.68953   0.84408   0.88098   0.00000  Uiso   1.00
C2774  C     0.96205   0.91022   0.25196   0.00000  Uiso   1.00
C2775  C     0.50078   0.91833   0.23880   0.00000  Uiso   1.00
C2776  C     0.52186   0.93949   0.26931   0.00000  Uiso   1.00
C2777  C     0.98330   0.72184   0.08171   0.00000  Uiso   1.00
C2778  C     0.56545   0.62563   0.83002   0.00000  Uiso   1.00
C2779  C     0.58021   0.59604   0.85689   0.00000  Uiso   1.00
C2780  C     0.57873   0.60832   0.89888   0.00000  Uiso   1.00
C2781  C     0.59961   0.53242   0.75257   0.00000  Uiso   1.00
C2782  C     0.55841   0.52681   0.75194   0.00000  Uiso   1.00
C2783  C     0.54779   0.99666   0.72370   0.00000  Uiso   1.00
C2784  C     0.87767   0.93236   0.17017   0.00000  Uiso   1.00
C2785  C     0.91015   0.91912   0.14612   0.00000  Uiso   1.00
C2786  C     0.90039   0.91580   0.10363   0.00000  Uiso   1.00
C2787  C     0.54919   0.89439   0.80699   0.00000  Uiso   1.00
C2788  C     0.77871   0.51982   0.95729   0.00000  Uiso   1.00
C2789  C     0.99739   0.78392   0.91812   0.00000  Uiso   1.00
C2790  C     0.55694   0.93237   0.82360   0.00000  Uiso   1.00
C2791  C     0.52249   0.95542   0.82542   0.00000  Uiso   1.00
C2792  C     0.89378   0.66819   0.16459   0.00000  Uiso   1.00
C2793  C     0.86667   0.65371   0.13471   0.00000  Uiso   1.00
C2794  C     0.84099   0.68374   0.12123   0.00000  Uiso   1.00
C2795  C     0.90139   0.96779   0.74653   0.00000  Uiso   1.00
C2796  C     0.93554   0.98950   0.75674   0.00000  Uiso   1.00
C2797  C     0.94060   0.52232   0.73016   0.00000  Uiso   1.00
C2798  C     0.62629   0.56885   0.17015   0.00000  Uiso   1.00
C2799  C     0.59699   0.58547   0.14423   0.00000  Uiso   1.00
C2800  C     0.78332   0.99718   0.08142   0.00000  Uiso   1.00
C2801  C     0.61184   0.59380   0.10416   0.00000  Uiso   1.00
C2802  C     0.94960   0.60819   0.81062   0.00000  Uiso   1.00
C2803  C     0.94283   0.57164   0.83066   0.00000  Uiso   1.00
C2804  C     0.97755   0.54901   0.83287   0.00000  Uiso   1.00
C2805  C     0.60811   0.82805   0.16532   0.00000  Uiso   1.00
C2806  C     0.63583   0.84090   0.13525   0.00000  Uiso   1.00
C2807  C     0.65942   0.80932   0.12130   0.00000  Uiso   1.00
C2808  C     0.85305   0.70333   0.69797   0.00000  Uiso   1.00
C2809  C     0.81313   0.69403   0.68935   0.00000  Uiso   1.00
C2810  C     0.78927   0.72803   0.69045   0.00000  Uiso   1.00
C2811  C     0.72017   0.98716   0.91850   0.00000  Uiso   1.00
C2812  C     0.57952   0.85733   0.33526   0.00000  Uiso   1.00
C2813  C     0.59344   0.88407   0.36582   0.00000  Uiso   1.00
C2814  C     0.56311   0.90881   0.38042   0.00000  Uiso   1.00
C2815  C     0.78808   0.84103   0.74826   0.00000  Uiso   1.00
C2816  C     0.74949   0.83353   0.73437   0.00000  Uiso   1.00
C2817  C     0.72720   0.81374   0.76500   0.00000  Uiso   1.00
C2818  C     0.68497   0.62583   0.32956   0.00000  Uiso   1.00
C2819  C     0.67461   0.65702   0.35719   0.00000  Uiso   1.00
C2820  C     0.63452   0.65570   0.36880   0.00000  Uiso   1.00
C2821  C     0.64058   0.79985   0.68852   0.00000  Uiso   1.00
C2822  C     0.51674   0.77933   0.08234   0.00000  Uiso   1.00
C2823  C     0.67605   0.80562   0.66632   0.00000  Uiso   1.00
C2824  C     0.69944   0.77128   0.66678   0.00000  Uiso   1.00
C2825  C     0.91998   0.64580   0.33652   0.00000  Uiso   1.00
C2826  C     0.90661   0.62282   0.37049   0.00000  Uiso   1.00
C2827  C     0.93834   0.60633   0.39272   0.00000  Uiso   1.00
C2828  C     0.71790   0.65039   0.75293   0.00000  Uiso   1.00
C2829  C     0.71521   0.69059   0.76469   0.00000  Uiso   1.00
C2830  C     0.74388   0.70013   0.79487   0.00000  Uiso   1.00
C2831  C     0.81269   0.87157   0.32668   0.00000  Uiso   1.00
C2832  C     0.82527   0.84010   0.35235   0.00000  Uiso   1.00
C2833  C     0.50299   0.71766   0.91889   0.00000  Uiso   1.00
C2834  C     0.82172   0.85005   0.39488   0.00000  Uiso   1.00
C2835  C     0.84839   0.78268   0.24524   0.00000  Uiso   1.00
C2836  C     0.81460   0.76030   0.25534   0.00000  Uiso   1.00
C2837  C     0.81016   0.72752   0.22857   0.00000  Uiso   1.00
C2838  C     0.62575   0.68061   0.66952   0.00000  Uiso   1.00
C2839  C     0.65624   0.66354   0.64522   0.00000  Uiso   1.00
C2840  C     0.64436   0.65749   0.60363   0.00000  Uiso   1.00
C2841  C     0.79969   0.64289   0.30967   0.00000  Uiso   1.00
C2842  C     0.80625   0.67918   0.33034   0.00000  Uiso   1.00
C2843  C     0.77181   0.70229   0.33160   0.00000  Uiso   1.00
C2844  C     0.96670   0.75499   0.58194   0.00000  Uiso   1.00
C2845  C     0.64103   0.92283   0.66597   0.00000  Uiso   1.00
C2846  C     0.61210   0.91039   0.63704   0.00000  Uiso   1.00
C2847  C     0.58830   0.94227   0.62444   0.00000  Uiso   1.00
C2848  C     0.65024   0.71762   0.24947   0.00000  Uiso   1.00
C2849  C     0.69133   0.71796   0.24238   0.00000  Uiso   1.00
C2850  C     0.70189   0.74762   0.21359   0.00000  Uiso   1.00
C2851  C     0.87452   0.81495   0.66981   0.00000  Uiso   1.00
C2852  C     0.84268   0.82351   0.64251   0.00000  Uiso   1.00
C2853  C     0.84283   0.86327   0.62920   0.00000  Uiso   1.00
C2854  C     0.70048   0.85078   0.30259   0.00000  Uiso   1.00
C2855  C     0.52930   0.76516   0.41823   0.00000  Uiso   1.00
C2856  C     0.68924   0.81241   0.31583   0.00000  Uiso   1.00
C2857  C     0.72199   0.78725   0.31967   0.00000  Uiso   1.00
C2858  C     0.85615   0.58093   0.66505   0.00000  Uiso   1.00
C2859  C     0.88185   0.59488   0.63357   0.00000  Uiso   1.00
C2860  C     0.90668   0.56455   0.61899   0.00000  Uiso   1.00
C2861  C     0.66450   0.97974   0.09257   0.00000  Uiso   1.00
C2862  C     0.62630   0.98983   0.07875   0.00000  Uiso   1.00
C2863  C     0.60674   0.95725   0.06065   0.00000  Uiso   1.00
C2864  C     0.83984   0.50609   0.90105   0.00000  Uiso   1.00
C2865  C     0.87467   0.52876   0.90344   0.00000  Uiso   1.00
C2866  C     0.73160   0.97122   0.58255   0.00000  Uiso   1.00
C2867  C     0.90842   0.50470   0.90517   0.00000  Uiso   1.00
C2868  C     0.99123   0.66154   0.09385   0.00000  Uiso   1.00
C2869  C     0.97761   0.62880   0.11695   0.00000  Uiso   1.00
C2870  C     0.99861   0.59445   0.10588   0.00000  Uiso   1.00
C2871  C     0.53132   0.83469   0.90353   0.00000  Uiso   1.00
C2872  C     0.52525   0.87442   0.91555   0.00000  Uiso   1.00
C2873  C     0.56079   0.89253   0.92790   0.00000  Uiso   1.00
C2874  C     0.83507   0.52813   0.09784   0.00000  Uiso   1.00
C2875  C     0.87564   0.52138   0.09126   0.00000  Uiso   1.00
C2876  C     0.89698   0.55709   0.08873   0.00000  Uiso   1.00
C2877  C     0.74337   0.53287   0.41848   0.00000  Uiso   1.00
C2878  C     0.66058   0.99609   0.90181   0.00000  Uiso   1.00
C2879  C     0.62551   0.97367   0.90188   0.00000  Uiso   1.00
C2880  C     0.59205   0.99819   0.90065   0.00000  Uiso   1.00
C2881  C     0.50963   0.83945   0.09844   0.00000  Uiso   1.00
C2882  C     0.53324   0.87367   0.09541   0.00000  Uiso   1.00
C2883  C     0.50994   0.90802   0.09319   0.00000  Uiso   1.00
C2884  C     0.96658   0.66874   0.90497   0.00000  Uiso   1.00
C2885  C     0.96949   0.62987   0.92071   0.00000  Uiso   1.00
C2886  C     0.93232   0.61499   0.93264   0.00000  Uiso   1.00
C2887  C     0.91741   0.72224   0.60270   0.00000  Uiso   1.00
C2888  C     0.53175   0.74274   0.58104   0.00000  Uiso   1.00
C2889  C     0.88149   0.72211   0.58055   0.00000  Uiso   1.00
C2890  C     0.86279   0.68497   0.58296   0.00000  Uiso   1.00
C2891  C     0.58924   0.75666   0.40187   0.00000  Uiso   1.00
C2892  C     0.62349   0.77984   0.40703   0.00000  Uiso   1.00
C2893  C     0.65779   0.75650   0.40558   0.00000  Uiso   1.00
C2894  C     0.73928   0.91128   0.59930   0.00000  Uiso   1.00
C2895  C     0.71609   0.87704   0.59367   0.00000  Uiso   1.00
C2896  C     0.73949   0.84268   0.59382   0.00000  Uiso   1.00
C2897  C     0.77712   0.58400   0.40541   0.00000  Uiso   1.00
C2898  C     0.77076   0.62319   0.41916   0.00000  Uiso   1.00
C2899  C     0.97906   0.72500   0.04174   0.00000  Uiso   1.00
C2900  C     0.96919   0.73683   0.41779   0.00000  Uiso   1.00
C2901  C     0.80552   0.64008   0.43546   0.00000  Uiso   1.00
C2902  C     0.58589   0.77207   0.59151   0.00000  Uiso   1.00
C2903  C     0.62382   0.76150   0.57712   0.00000  Uiso   1.00
C2904  C     0.64327   0.79359   0.55794   0.00000  Uiso   1.00
C2905  C     0.90932   0.74540   0.40181   0.00000  Uiso   1.00
C2906  C     0.87470   0.72227   0.40213   0.00000  Uiso   1.00
C2907  C     0.84074   0.74587   0.40534   0.00000  Uiso   1.00
C2908  C     0.75750   0.58920   0.59730   0.00000  Uiso   1.00
C2909  C     0.78074   0.62380   0.59764   0.00000  Uiso   1.00
C2910  C     0.75720   0.65805   0.59744   0.00000  Uiso   1.00
C2911  C     0.76446   0.52904   0.58165   0.00000  Uiso   1.00
C2912  C     0.72614   0.91554   0.39439   0.00000  Uiso   1.00
C2913  C     0.71760   0.88955   0.42787   0.00000  Uiso   1.00
C2914  C     0.69206   0.85890   0.41565   0.00000  Uiso   1.00
C2915  C     0.75312   0.96701   0.41883   0.00000  Uiso   1.00
C2916  C     0.75099   0.50442   0.02099   0.00000  Uiso   1.00
C2917  C     0.75051   0.50293   0.97851   0.00000  Uiso   1.00
C2918  C     0.99973   0.75147   0.02149   0.00000  Uiso   1.00
C2919  C     0.99989   0.75148   0.97898   0.00000  Uiso   1.00
C2920  C     0.99863   0.74964   0.52112   0.00000  Uiso   1.00
C2921  C     0.99864   0.75120   0.47866   0.00000  Uiso   1.00
C2922  C     0.74649   0.50018   0.52156   0.00000  Uiso   1.00
C2923  C     0.99329   0.78391   0.95822   0.00000  Uiso   1.00
C2924  C     0.74602   0.50000   0.47907   0.00000  Uiso   1.00
C2925  C     0.74996   0.50000   0.35536   0.00000  Uiso   1.00
C2926  C     0.74980   0.50000   0.64482   0.00000  Uiso   1.00
C2927  C     0.99993   0.75018   0.35519   0.00000  Uiso   1.00
C2928  C     0.99996   0.74978   0.64473   0.00000  Uiso   1.00
C2929  C     0.99996   0.75007   0.85531   0.00000  Uiso   1.00
C2930  C     0.50007   0.75003   0.14480   0.00000  Uiso   1.00
C2931  C     0.75000   0.50003   0.85516   0.00000  Uiso   1.00
C2932  C     0.75009   0.50040   0.14470   0.00000  Uiso   1.00
C2933  C     0.67993   0.57013   0.25006   0.00000  Uiso   1.00
C2934  C     0.78239   0.99350   0.04134   0.00000  Uiso   1.00
C2935  C     0.82017   0.93017   0.74966   0.00000  Uiso   1.00
C2936  C     0.93004   0.68001   0.25003   0.00000  Uiso   1.00
C2937  C     0.57000   0.82017   0.74992   0.00000  Uiso   1.00
C2938  C     0.81996   0.92978   0.24984   0.00000  Uiso   1.00
C2939  C     0.68010   0.57006   0.75020   0.00000  Uiso   1.00
C2940  C     0.56988   0.82003   0.24999   0.00000  Uiso   1.00
C2941  C     0.92966   0.68017   0.75038   0.00000  Uiso   1.00
C2942  C     0.68006   0.93001   0.74997   0.00000  Uiso   1.00
C2943  C     0.82032   0.56984   0.25040   0.00000  Uiso   1.00
C2944  C     0.93004   0.82019   0.74988   0.00000  Uiso   1.00
C2945  C     0.72174   0.98523   0.95879   0.00000  Uiso   1.00
C2946  C     0.56992   0.67997   0.25008   0.00000  Uiso   1.00
C2947  C     0.81987   0.57002   0.75011   0.00000  Uiso   1.00
C2948  C     0.68009   0.92974   0.24979   0.00000  Uiso   1.00
C2949  C     0.57007   0.67987   0.75000   0.00000  Uiso   1.00
C2950  C     0.92995   0.81991   0.24993   0.00000  Uiso   1.00
C2951  C     0.62867   0.89759   0.21740   0.00000  Uiso   1.00
C2952  C     0.86734   0.60532   0.78452   0.00000  Uiso   1.00
C2953  C     0.59006   0.61683   0.23569   0.00000  Uiso   1.00
C2954  C     0.90807   0.88213   0.76887   0.00000  Uiso   1.00
C2955  C     0.87337   0.60050   0.21968   0.00000  Uiso   1.00
C2956  C     0.52044   0.77746   0.04229   0.00000  Uiso   1.00
C2957  C     0.63219   0.89492   0.78369   0.00000  Uiso   1.00
C2958  C     0.90938   0.88244   0.23483   0.00000  Uiso   1.00
C2959  C     0.59283   0.61893   0.77103   0.00000  Uiso   1.00
C2960  C     0.61792   0.59086   0.76727   0.00000  Uiso   1.00
C2961  C     0.88135   0.90748   0.23044   0.00000  Uiso   1.00
C2962  C     0.60218   0.87186   0.78192   0.00000  Uiso   1.00
C2963  C     0.89590   0.63085   0.21722   0.00000  Uiso   1.00
C2964  C     0.88317   0.91027   0.76435   0.00000  Uiso   1.00
C2965  C     0.61849   0.59236   0.23067   0.00000  Uiso   1.00
C2966  C     0.89695   0.62903   0.78313   0.00000  Uiso   1.00
C2967  C     0.50713   0.71882   0.95892   0.00000  Uiso   1.00
C2968  C     0.60503   0.86788   0.21595   0.00000  Uiso   1.00
C2969  C     0.87664   0.64934   0.71957   0.00000  Uiso   1.00
C2970  C     0.61782   0.85505   0.28340   0.00000  Uiso   1.00
C2971  C     0.84145   0.86815   0.73259   0.00000  Uiso   1.00
C2972  C     0.65729   0.63141   0.27058   0.00000  Uiso   1.00
C2973  C     0.62108   0.85266   0.71735   0.00000  Uiso   1.00
C2974  C     0.88203   0.64525   0.28418   0.00000  Uiso   1.00
C2975  C     0.65999   0.63311   0.73570   0.00000  Uiso   1.00
C2976  C     0.84162   0.86767   0.26836   0.00000  Uiso   1.00
C2977  C     0.86686   0.83972   0.26439   0.00000  Uiso   1.00
C2978  C     0.96753   0.76038   0.54215   0.00000  Uiso   1.00
C2979  C     0.63156   0.65753   0.73048   0.00000  Uiso   1.00
C2980  C     0.85249   0.62146   0.28284   0.00000  Uiso   1.00
C2981  C     0.64462   0.88243   0.71595   0.00000  Uiso   1.00
C2982  C     0.63241   0.65957   0.26610   0.00000  Uiso   1.00
C2983  C     0.86940   0.84295   0.72885   0.00000  Uiso   1.00
C2984  C     0.64828   0.87747   0.28121   0.00000  Uiso   1.00
C2985  C     0.85416   0.61894   0.71731   0.00000  Uiso   1.00
C2986  C     0.59770   0.84818   0.24985   0.00000  Uiso   1.00
C2987  C     0.90085   0.65258   0.75107   0.00000  Uiso   1.00
C2988  C     0.65165   0.59823   0.25048   0.00000  Uiso   1.00
H2989  H     0.67081   0.57249   0.99195   0.00000  Uiso   1.00
H2990  H     0.84765   0.58182   0.01345   0.00000  Uiso   1.00
H2991  H     0.81540   0.51230   0.49187   0.00000  Uiso   1.00
H2992  H     0.85490   0.56140   0.55122   0.00000  Uiso   1.00
H2993  H     0.83932   0.51566   0.56136   0.00000  Uiso   1.00
H2994  H     0.87885   0.99086   0.50936   0.00000  Uiso   1.00
H2995  H     0.90507   0.51641   0.54403   0.00000  Uiso   1.00
H2996  H     0.89455   0.53646   0.49796   0.00000  Uiso   1.00
H2997  H     0.80946   0.95180   0.50776   0.00000  Uiso   1.00
H2998  H     0.81638   0.93949   0.45737   0.00000  Uiso   1.00
H2999  H     0.79389   0.88704   0.52271   0.00000  Uiso   1.00
H3000  H     0.80100   0.87490   0.47307   0.00000  Uiso   1.00
H3001  H     0.84523   0.60116   0.96594   0.00000  Uiso   1.00
H3002  H     0.86591   0.89541   0.47779   0.00000  Uiso   1.00
H3003  H     0.85502   0.86024   0.51230   0.00000  Uiso   1.00
H3004  H     0.85862   0.90710   0.52802   0.00000  Uiso   1.00
H3005  H     0.62281   0.97431   0.17632   0.00000  Uiso   1.00
H3006  H     0.60322   0.95822   0.22003   0.00000  Uiso   1.00
H3007  H     0.57880   0.93667   0.13778   0.00000  Uiso   1.00
H3008  H     0.55757   0.92187   0.18163   0.00000  Uiso   1.00
H3009  H     0.54363   0.98719   0.19838   0.00000  Uiso   1.00
H3010  H     0.52355   0.97336   0.15320   0.00000  Uiso   1.00
H3011  H     0.56385   0.50143   0.15334   0.00000  Uiso   1.00
H3012  H     0.80288   0.64954   0.99056   0.00000  Uiso   1.00
H3013  H     0.80760   0.58246   0.84229   0.00000  Uiso   1.00
H3014  H     0.81241   0.62377   0.81547   0.00000  Uiso   1.00
H3015  H     0.84930   0.60546   0.89295   0.00000  Uiso   1.00
H3016  H     0.85746   0.64649   0.86562   0.00000  Uiso   1.00
H3017  H     0.79162   0.66278   0.87104   0.00000  Uiso   1.00
H3018  H     0.81191   0.65633   0.91782   0.00000  Uiso   1.00
H3019  H     0.78312   0.62117   0.89776   0.00000  Uiso   1.00
H3020  H     0.50383   0.60474   0.24250   0.00000  Uiso   1.00
H3021  H     0.53592   0.61885   0.27797   0.00000  Uiso   1.00
H3022  H     0.53155   0.54176   0.24141   0.00000  Uiso   1.00
H3023  H     0.84536   0.64916   0.01666   0.00000  Uiso   1.00
H3024  H     0.56257   0.55572   0.27881   0.00000  Uiso   1.00
H3025  H     0.50896   0.57071   0.32167   0.00000  Uiso   1.00
H3026  H     0.51035   0.52345   0.30762   0.00000  Uiso   1.00
H3027  H     0.97873   0.55396   0.28442   0.00000  Uiso   1.00
H3028  H     0.96275   0.86631   0.83704   0.00000  Uiso   1.00
H3029  H     0.91704   0.85275   0.83095   0.00000  Uiso   1.00
H3030  H     0.94172   0.90552   0.88224   0.00000  Uiso   1.00
H3031  H     0.93169   0.93466   0.84229   0.00000  Uiso   1.00
H3032  H     0.86734   0.91025   0.84154   0.00000  Uiso   1.00
H3033  H     0.87924   0.92828   0.88812   0.00000  Uiso   1.00
H3034  H     0.80517   0.62973   0.03831   0.00000  Uiso   1.00
H3035  H     0.87863   0.87973   0.88050   0.00000  Uiso   1.00
H3036  H     0.88842   0.52209   0.18236   0.00000  Uiso   1.00
H3037  H     0.89412   0.53752   0.23059   0.00000  Uiso   1.00
H3038  H     0.93882   0.56647   0.16158   0.00000  Uiso   1.00
H3039  H     0.94722   0.57527   0.21179   0.00000  Uiso   1.00
H3040  H     0.95918   0.50871   0.22256   0.00000  Uiso   1.00
H3041  H     0.98917   0.52848   0.18698   0.00000  Uiso   1.00
H3042  H     0.95166   0.50027   0.17170   0.00000  Uiso   1.00
H3043  H     0.68768   0.91523   0.84980   0.00000  Uiso   1.00
H3044  H     0.68921   0.88048   0.81408   0.00000  Uiso   1.00
H3045  H     0.91468   0.69468   0.98673   0.00000  Uiso   1.00
H3046  H     0.64502   0.88167   0.88988   0.00000  Uiso   1.00
H3047  H     0.63747   0.84787   0.85297   0.00000  Uiso   1.00
H3048  H     0.70033   0.82606   0.85794   0.00000  Uiso   1.00
H3049  H     0.67992   0.82674   0.90518   0.00000  Uiso   1.00
H3050  H     0.71173   0.86214   0.89139   0.00000  Uiso   1.00
H3051  H     0.96321   0.89325   0.27861   0.00000  Uiso   1.00
H3052  H     0.94814   0.93654   0.25843   0.00000  Uiso   1.00
H3053  H     0.51507   0.89227   0.23266   0.00000  Uiso   1.00
H3054  H     0.99968   0.93463   0.21189   0.00000  Uiso   1.00
H3055  H     0.50964   0.96687   0.27335   0.00000  Uiso   1.00
H3056  H     0.92995   0.74005   0.99308   0.00000  Uiso   1.00
H3057  H     0.55056   0.94284   0.26003   0.00000  Uiso   1.00
H3058  H     0.52139   0.92455   0.29709   0.00000  Uiso   1.00
H3059  H     0.53805   0.63380   0.84042   0.00000  Uiso   1.00
H3060  H     0.58285   0.65061   0.83188   0.00000  Uiso   1.00
H3061  H     0.56384   0.57075   0.85345   0.00000  Uiso   1.00
H3062  H     0.60893   0.58996   0.84939   0.00000  Uiso   1.00
H3063  H     0.59484   0.63373   0.90286   0.00000  Uiso   1.00
H3064  H     0.59026   0.58676   0.91765   0.00000  Uiso   1.00
H3065  H     0.55016   0.61338   0.90773   0.00000  Uiso   1.00
H3066  H     0.61273   0.50581   0.75898   0.00000  Uiso   1.00
H3067  H     0.89200   0.69111   0.05377   0.00000  Uiso   1.00
H3068  H     0.60929   0.54074   0.72331   0.00000  Uiso   1.00
H3069  H     0.54892   0.51930   0.78125   0.00000  Uiso   1.00
H3070  H     0.54487   0.55263   0.74339   0.00000  Uiso   1.00
H3071  H     0.55636   0.50412   0.69404   0.00000  Uiso   1.00
H3072  H     0.51787   0.99287   0.72400   0.00000  Uiso   1.00
H3073  H     0.56075   0.97044   0.73196   0.00000  Uiso   1.00
H3074  H     0.86807   0.95869   0.15823   0.00000  Uiso   1.00
H3075  H     0.85432   0.91298   0.16713   0.00000  Uiso   1.00
H3076  H     0.93328   0.93842   0.14944   0.00000  Uiso   1.00
H3077  H     0.91879   0.89174   0.15603   0.00000  Uiso   1.00
H3078  H     0.90731   0.73711   0.06304   0.00000  Uiso   1.00
H3079  H     0.87795   0.89579   0.09987   0.00000  Uiso   1.00
H3080  H     0.92436   0.90607   0.08712   0.00000  Uiso   1.00
H3081  H     0.89201   0.94264   0.09200   0.00000  Uiso   1.00
H3082  H     0.52532   0.88259   0.82211   0.00000  Uiso   1.00
H3083  H     0.54116   0.89675   0.77605   0.00000  Uiso   1.00
H3084  H     0.56810   0.92965   0.85306   0.00000  Uiso   1.00
H3085  H     0.57733   0.94667   0.80539   0.00000  Uiso   1.00
H3086  H     0.51099   0.95897   0.79613   0.00000  Uiso   1.00
H3087  H     0.52911   0.98269   0.83750   0.00000  Uiso   1.00
H3088  H     0.50188   0.94229   0.84429   0.00000  Uiso   1.00
H3089  H     0.86606   0.76093   0.01225   0.00000  Uiso   1.00
H3090  H     0.91413   0.68548   0.14954   0.00000  Uiso   1.00
H3091  H     0.87976   0.68676   0.18537   0.00000  Uiso   1.00
H3092  H     0.88183   0.64272   0.10954   0.00000  Uiso   1.00
H3093  H     0.85009   0.63130   0.14722   0.00000  Uiso   1.00
H3094  H     0.82211   0.69136   0.14489   0.00000  Uiso   1.00
H3095  H     0.82473   0.67383   0.09638   0.00000  Uiso   1.00
H3096  H     0.85658   0.70830   0.11235   0.00000  Uiso   1.00
H3097  H     0.87850   0.98704   0.74185   0.00000  Uiso   1.00
H3098  H     0.90653   0.95319   0.71873   0.00000  Uiso   1.00
H3099  H     0.93357   0.99913   0.78697   0.00000  Uiso   1.00
H3100  H     0.71808   0.56491   0.98726   0.00000  Uiso   1.00
H3101  H     0.84105   0.73526   0.04781   0.00000  Uiso   1.00
H3102  H     0.95957   0.97133   0.75443   0.00000  Uiso   1.00
H3103  H     0.94197   0.51327   0.69964   0.00000  Uiso   1.00
H3104  H     0.96627   0.53673   0.73742   0.00000  Uiso   1.00
H3105  H     0.91771   0.54176   0.73381   0.00000  Uiso   1.00
H3106  H     0.63466   0.54228   0.15755   0.00000  Uiso   1.00
H3107  H     0.65117   0.58643   0.17005   0.00000  Uiso   1.00
H3108  H     0.57382   0.56612   0.14191   0.00000  Uiso   1.00
H3109  H     0.58700   0.61146   0.15669   0.00000  Uiso   1.00
H3110  H     0.63369   0.61469   0.10607   0.00000  Uiso   1.00
H3111  H     0.58981   0.60468   0.08566   0.00000  Uiso   1.00
H3112  H     0.85074   0.71512   0.00148   0.00000  Uiso   1.00
H3113  H     0.62280   0.56873   0.09063   0.00000  Uiso   1.00
H3114  H     0.97328   0.62168   0.82449   0.00000  Uiso   1.00
H3115  H     0.95754   0.60343   0.77992   0.00000  Uiso   1.00
H3116  H     0.93272   0.57652   0.86026   0.00000  Uiso   1.00
H3117  H     0.92183   0.55608   0.81465   0.00000  Uiso   1.00
H3118  H     0.98899   0.54457   0.80365   0.00000  Uiso   1.00
H3119  H     0.97137   0.52207   0.84596   0.00000  Uiso   1.00
H3120  H     0.99809   0.56307   0.85099   0.00000  Uiso   1.00
H3121  H     0.58787   0.81021   0.15083   0.00000  Uiso   1.00
H3122  H     0.62177   0.81049   0.18728   0.00000  Uiso   1.00
H3123  H     0.95155   0.84537   0.00855   0.00000  Uiso   1.00
H3124  H     0.62123   0.85314   0.11042   0.00000  Uiso   1.00
H3125  H     0.65394   0.86203   0.14785   0.00000  Uiso   1.00
H3126  H     0.67751   0.80001   0.14490   0.00000  Uiso   1.00
H3127  H     0.67654   0.81847   0.09674   0.00000  Uiso   1.00
H3128  H     0.64221   0.78607   0.11185   0.00000  Uiso   1.00
H3129  H     0.86132   0.72664   0.67949   0.00000  Uiso   1.00
H3130  H     0.85575   0.71293   0.72836   0.00000  Uiso   1.00
H3131  H     0.81091   0.68136   0.66045   0.00000  Uiso   1.00
H3132  H     0.80275   0.67431   0.71102   0.00000  Uiso   1.00
H3133  H     0.79013   0.74082   0.71948   0.00000  Uiso   1.00
H3134  H     0.94167   0.79818   0.00517   0.00000  Uiso   1.00
H3135  H     0.76079   0.72021   0.68382   0.00000  Uiso   1.00
H3136  H     0.79854   0.74813   0.66859   0.00000  Uiso   1.00
H3137  H     0.56181   0.83685   0.34961   0.00000  Uiso   1.00
H3138  H     0.56173   0.87181   0.31417   0.00000  Uiso   1.00
H3139  H     0.60471   0.86838   0.39038   0.00000  Uiso   1.00
H3140  H     0.61543   0.90141   0.35361   0.00000  Uiso   1.00
H3141  H     0.55439   0.92774   0.35728   0.00000  Uiso   1.00
H3142  H     0.57321   0.92527   0.40508   0.00000  Uiso   1.00
H3143  H     0.53936   0.89234   0.38996   0.00000  Uiso   1.00
H3144  H     0.78662   0.85815   0.77483   0.00000  Uiso   1.00
H3145  H     0.93945   0.85224   0.93623   0.00000  Uiso   1.00
H3146  H     0.80133   0.81450   0.75519   0.00000  Uiso   1.00
H3147  H     0.73603   0.85976   0.72721   0.00000  Uiso   1.00
H3148  H     0.75078   0.81653   0.70791   0.00000  Uiso   1.00
H3149  H     0.73839   0.78603   0.76982   0.00000  Uiso   1.00
H3150  H     0.69857   0.81120   0.75536   0.00000  Uiso   1.00
H3151  H     0.72765   0.82920   0.79250   0.00000  Uiso   1.00
H3152  H     0.71196   0.61542   0.33867   0.00000  Uiso   1.00
H3153  H     0.66619   0.60197   0.33261   0.00000  Uiso   1.00
H3154  H     0.69112   0.65474   0.38391   0.00000  Uiso   1.00
H3155  H     0.68100   0.68390   0.34400   0.00000  Uiso   1.00
H3156  H     0.92336   0.80566   0.93617   0.00000  Uiso   1.00
H3157  H     0.61662   0.65872   0.34335   0.00000  Uiso   1.00
H3158  H     0.62857   0.67822   0.38925   0.00000  Uiso   1.00
H3159  H     0.62823   0.62941   0.38323   0.00000  Uiso   1.00
H3160  H     0.62611   0.77617   0.67565   0.00000  Uiso   1.00
H3161  H     0.64648   0.79203   0.71897   0.00000  Uiso   1.00
H3162  H     0.66975   0.81288   0.63611   0.00000  Uiso   1.00
H3163  H     0.69157   0.82846   0.67930   0.00000  Uiso   1.00
H3164  H     0.70609   0.76355   0.69687   0.00000  Uiso   1.00
H3165  H     0.72517   0.77638   0.65089   0.00000  Uiso   1.00
H3166  H     0.68491   0.74830   0.65275   0.00000  Uiso   1.00
H3167  H     0.87710   0.82255   0.98700   0.00000  Uiso   1.00
H3168  H     0.93824   0.66759   0.34756   0.00000  Uiso   1.00
H3169  H     0.93695   0.62858   0.31690   0.00000  Uiso   1.00
H3170  H     0.89043   0.64021   0.39028   0.00000  Uiso   1.00
H3171  H     0.88887   0.60044   0.35975   0.00000  Uiso   1.00
H3172  H     0.95453   0.58818   0.37367   0.00000  Uiso   1.00
H3173  H     0.92772   0.59001   0.41723   0.00000  Uiso   1.00
H3174  H     0.95619   0.62826   0.40424   0.00000  Uiso   1.00
H3175  H     0.74608   0.64490   0.74289   0.00000  Uiso   1.00
H3176  H     0.71339   0.63258   0.77855   0.00000  Uiso   1.00
H3177  H     0.71915   0.70819   0.73899   0.00000  Uiso   1.00
H3178  H     0.87174   0.84782   0.94286   0.00000  Uiso   1.00
H3179  H     0.68778   0.69610   0.77684   0.00000  Uiso   1.00
H3180  H     0.74075   0.68236   0.82058   0.00000  Uiso   1.00
H3181  H     0.74058   0.72893   0.80407   0.00000  Uiso   1.00
H3182  H     0.77163   0.69661   0.78272   0.00000  Uiso   1.00
H3183  H     0.78532   0.88034   0.33640   0.00000  Uiso   1.00
H3184  H     0.83092   0.89571   0.33074   0.00000  Uiso   1.00
H3185  H     0.80856   0.81545   0.34630   0.00000  Uiso   1.00
H3186  H     0.85422   0.83376   0.34617   0.00000  Uiso   1.00
H3187  H     0.83700   0.87553   0.40130   0.00000  Uiso   1.00
H3188  H     0.83287   0.82780   0.41296   0.00000  Uiso   1.00
H3189  H     0.89253   0.86945   0.98405   0.00000  Uiso   1.00
H3190  H     0.79265   0.85391   0.40241   0.00000  Uiso   1.00
H3191  H     0.87149   0.76390   0.23964   0.00000  Uiso   1.00
H3192  H     0.84271   0.79791   0.21799   0.00000  Uiso   1.00
H3193  H     0.81672   0.75057   0.28549   0.00000  Uiso   1.00
H3194  H     0.79022   0.77800   0.25317   0.00000  Uiso   1.00
H3195  H     0.80865   0.73669   0.19813   0.00000  Uiso   1.00
H3196  H     0.78475   0.71261   0.23580   0.00000  Uiso   1.00
H3197  H     0.83338   0.70847   0.23207   0.00000  Uiso   1.00
H3198  H     0.61808   0.70707   0.65624   0.00000  Uiso   1.00
H3199  H     0.60084   0.66312   0.66845   0.00000  Uiso   1.00
H3200  H     0.82299   0.94451   0.98012   0.00000  Uiso   1.00
H3201  H     0.68048   0.68165   0.64575   0.00000  Uiso   1.00
H3202  H     0.66387   0.63656   0.65714   0.00000  Uiso   1.00
H3203  H     0.62141   0.63776   0.60262   0.00000  Uiso   1.00
H3204  H     0.66738   0.64613   0.58672   0.00000  Uiso   1.00
H3205  H     0.63586   0.68357   0.59033   0.00000  Uiso   1.00
H3206  H     0.77562   0.62944   0.32284   0.00000  Uiso   1.00
H3207  H     0.79247   0.64796   0.27885   0.00000  Uiso   1.00
H3208  H     0.81543   0.67393   0.36019   0.00000  Uiso   1.00
H3209  H     0.82789   0.69463   0.31517   0.00000  Uiso   1.00
H3210  H     0.76167   0.70732   0.30202   0.00000  Uiso   1.00
H3211  H     0.67814   0.59353   0.05985   0.00000  Uiso   1.00
H3212  H     0.78162   0.93715   0.00513   0.00000  Uiso   1.00
H3213  H     0.77784   0.72896   0.34541   0.00000  Uiso   1.00
H3214  H     0.75028   0.68834   0.34852   0.00000  Uiso   1.00
H3215  H     0.66099   0.94039   0.65069   0.00000  Uiso   1.00
H3216  H     0.62841   0.94059   0.68851   0.00000  Uiso   1.00
H3217  H     0.62567   0.89816   0.61148   0.00000  Uiso   1.00
H3218  H     0.59426   0.88936   0.65023   0.00000  Uiso   1.00
H3219  H     0.57092   0.95134   0.64880   0.00000  Uiso   1.00
H3220  H     0.57045   0.93353   0.60033   0.00000  Uiso   1.00
H3221  H     0.60533   0.96559   0.61481   0.00000  Uiso   1.00
H3222  H     0.64158   0.74550   0.25808   0.00000  Uiso   1.00
H3223  H     0.85990   0.92401   0.03224   0.00000  Uiso   1.00
H3224  H     0.63563   0.71127   0.22208   0.00000  Uiso   1.00
H3225  H     0.70564   0.72297   0.26999   0.00000  Uiso   1.00
H3226  H     0.70005   0.69100   0.23100   0.00000  Uiso   1.00
H3227  H     0.68828   0.74266   0.18551   0.00000  Uiso   1.00
H3228  H     0.73176   0.74739   0.20900   0.00000  Uiso   1.00
H3229  H     0.69397   0.77494   0.22465   0.00000  Uiso   1.00
H3230  H     0.88598   0.78820   0.66095   0.00000  Uiso   1.00
H3231  H     0.89743   0.83476   0.66613   0.00000  Uiso   1.00
H3232  H     0.84480   0.80596   0.61646   0.00000  Uiso   1.00
H3233  H     0.81626   0.81704   0.65657   0.00000  Uiso   1.00
H3234  H     0.82292   0.92631   0.06646   0.00000  Uiso   1.00
H3235  H     0.84076   0.88216   0.65406   0.00000  Uiso   1.00
H3236  H     0.81935   0.86812   0.60980   0.00000  Uiso   1.00
H3237  H     0.86822   0.86935   0.61303   0.00000  Uiso   1.00
H3238  H     0.72536   0.85900   0.31830   0.00000  Uiso   1.00
H3239  H     0.70832   0.85026   0.27148   0.00000  Uiso   1.00
H3240  H     0.67532   0.81414   0.34408   0.00000  Uiso   1.00
H3241  H     0.67000   0.80032   0.29470   0.00000  Uiso   1.00
H3242  H     0.73604   0.78451   0.29152   0.00000  Uiso   1.00
H3243  H     0.71272   0.75987   0.32925   0.00000  Uiso   1.00
H3244  H     0.74133   0.79813   0.34142   0.00000  Uiso   1.00
H3245  H     0.79170   0.87506   0.03629   0.00000  Uiso   1.00
H3246  H     0.83551   0.56288   0.65149   0.00000  Uiso   1.00
H3247  H     0.87134   0.56331   0.68577   0.00000  Uiso   1.00
H3248  H     0.86552   0.60561   0.60920   0.00000  Uiso   1.00
H3249  H     0.89905   0.61739   0.64495   0.00000  Uiso   1.00
H3250  H     0.92611   0.55648   0.64192   0.00000  Uiso   1.00
H3251  H     0.92237   0.57436   0.59366   0.00000  Uiso   1.00
H3252  H     0.89044   0.54030   0.61044   0.00000  Uiso   1.00
H3253  H     0.66215   0.96408   0.11984   0.00000  Uiso   1.00
H3254  H     0.67715   0.96084   0.07114   0.00000  Uiso   1.00
H3255  H     0.61020   0.50017   0.10351   0.00000  Uiso   1.00
H3256  H     0.83833   0.86211   0.04432   0.00000  Uiso   1.00
H3257  H     0.62798   0.51182   0.05683   0.00000  Uiso   1.00
H3258  H     0.61906   0.95065   0.03228   0.00000  Uiso   1.00
H3259  H     0.57769   0.96414   0.05598   0.00000  Uiso   1.00
H3260  H     0.60851   0.93284   0.07946   0.00000  Uiso   1.00
H3261  H     0.84112   0.98833   0.87509   0.00000  Uiso   1.00
H3262  H     0.83872   0.98800   0.92691   0.00000  Uiso   1.00
H3263  H     0.87660   0.54657   0.87773   0.00000  Uiso   1.00
H3264  H     0.87369   0.54628   0.92957   0.00000  Uiso   1.00
H3265  H     0.90656   0.98534   0.92971   0.00000  Uiso   1.00
H3266  H     0.93294   0.52201   0.90915   0.00000  Uiso   1.00
H3267  H     0.82342   0.87442   0.99646   0.00000  Uiso   1.00
H3268  H     0.91141   0.98925   0.87784   0.00000  Uiso   1.00
H3269  H     0.51984   0.66744   0.10266   0.00000  Uiso   1.00
H3270  H     0.99088   0.65394   0.06282   0.00000  Uiso   1.00
H3271  H     0.98121   0.63427   0.14823   0.00000  Uiso   1.00
H3272  H     0.94824   0.62428   0.11109   0.00000  Uiso   1.00
H3273  H     0.99250   0.58664   0.07564   0.00000  Uiso   1.00
H3274  H     0.99106   0.57147   0.12501   0.00000  Uiso   1.00
H3275  H     0.52818   0.59942   0.10870   0.00000  Uiso   1.00
H3276  H     0.54585   0.83422   0.87545   0.00000  Uiso   1.00
H3277  H     0.54971   0.82142   0.92497   0.00000  Uiso   1.00
H3278  H     0.67634   0.92692   0.01086   0.00000  Uiso   1.00
H3279  H     0.51325   0.88979   0.89115   0.00000  Uiso   1.00
H3280  H     0.50583   0.87572   0.94002   0.00000  Uiso   1.00
H3281  H     0.57159   0.87915   0.95421   0.00000  Uiso   1.00
H3282  H     0.55587   0.92175   0.93445   0.00000  Uiso   1.00
H3283  H     0.58135   0.89048   0.90459   0.00000  Uiso   1.00
H3284  H     0.83135   0.54280   0.12561   0.00000  Uiso   1.00
H3285  H     0.82526   0.54649   0.07432   0.00000  Uiso   1.00
H3286  H     0.88670   0.50500   0.11536   0.00000  Uiso   1.00
H3287  H     0.87945   0.50582   0.06405   0.00000  Uiso   1.00
H3288  H     0.88904   0.57265   0.06273   0.00000  Uiso   1.00
H3289  H     0.72272   0.93822   0.01606   0.00000  Uiso   1.00
H3290  H     0.92652   0.55109   0.08697   0.00000  Uiso   1.00
H3291  H     0.89185   0.57418   0.11454   0.00000  Uiso   1.00
H3292  H     0.66084   0.51422   0.87615   0.00000  Uiso   1.00
H3293  H     0.66053   0.51378   0.92806   0.00000  Uiso   1.00
H3294  H     0.62522   0.95537   0.87642   0.00000  Uiso   1.00
H3295  H     0.62449   0.95654   0.92829   0.00000  Uiso   1.00
H3296  H     0.59201   0.51724   0.92556   0.00000  Uiso   1.00
H3297  H     0.56702   0.98128   0.90197   0.00000  Uiso   1.00
H3298  H     0.59178   0.51399   0.87338   0.00000  Uiso   1.00
H3299  H     0.99230   0.84149   0.12463   0.00000  Uiso   1.00
H3300  H     0.68712   0.90601   0.94238   0.00000  Uiso   1.00
H3301  H     0.99118   0.83880   0.07285   0.00000  Uiso   1.00
H3302  H     0.55122   0.87554   0.12095   0.00000  Uiso   1.00
H3303  H     0.55060   0.87188   0.06922   0.00000  Uiso   1.00
H3304  H     0.99180   0.90684   0.06765   0.00000  Uiso   1.00
H3305  H     0.52770   0.93238   0.09045   0.00000  Uiso   1.00
H3306  H     0.99327   0.91090   0.11973   0.00000  Uiso   1.00
H3307  H     0.95352   0.66775   0.87616   0.00000  Uiso   1.00
H3308  H     0.94789   0.68475   0.92401   0.00000  Uiso   1.00
H3309  H     0.98154   0.61190   0.89834   0.00000  Uiso   1.00
H3310  H     0.98761   0.62943   0.94623   0.00000  Uiso   1.00
H3311  H     0.73531   0.91264   0.94978   0.00000  Uiso   1.00
H3312  H     0.92157   0.63054   0.95766   0.00000  Uiso   1.00
H3313  H     0.93488   0.58590   0.94105   0.00000  Uiso   1.00
H3314  H     0.91278   0.61716   0.90844   0.00000  Uiso   1.00
H3315  H     0.91164   0.71610   0.63341   0.00000  Uiso   1.00
H3316  H     0.93494   0.69950   0.59180   0.00000  Uiso   1.00
H3317  H     0.86312   0.74327   0.59265   0.00000  Uiso   1.00
H3318  H     0.88670   0.72860   0.54980   0.00000  Uiso   1.00
H3319  H     0.88092   0.66318   0.57186   0.00000  Uiso   1.00
H3320  H     0.83755   0.68528   0.56546   0.00000  Uiso   1.00
H3321  H     0.85567   0.67856   0.61321   0.00000  Uiso   1.00
H3322  H     0.72648   0.58658   0.05697   0.00000  Uiso   1.00
H3323  H     0.73208   0.86927   0.00665   0.00000  Uiso   1.00
H3324  H     0.59160   0.74073   0.37471   0.00000  Uiso   1.00
H3325  H     0.58774   0.73676   0.42623   0.00000  Uiso   1.00
H3326  H     0.62480   0.80064   0.38388   0.00000  Uiso   1.00
H3327  H     0.62223   0.79429   0.43518   0.00000  Uiso   1.00
H3328  H     0.65710   0.73547   0.42860   0.00000  Uiso   1.00
H3329  H     0.68211   0.77403   0.40996   0.00000  Uiso   1.00
H3330  H     0.66016   0.74293   0.37707   0.00000  Uiso   1.00
H3331  H     0.75490   0.90857   0.62654   0.00000  Uiso   1.00
H3332  H     0.75936   0.91273   0.57515   0.00000  Uiso   1.00
H3333  H     0.69567   0.87510   0.61715   0.00000  Uiso   1.00
H3334  H     0.72021   0.84834   0.96145   0.00000  Uiso   1.00
H3335  H     0.70137   0.87887   0.56579   0.00000  Uiso   1.00
H3336  H     0.76036   0.84404   0.57070   0.00000  Uiso   1.00
H3337  H     0.72211   0.81838   0.58866   0.00000  Uiso   1.00
H3338  H     0.75314   0.83952   0.62216   0.00000  Uiso   1.00
H3339  H     0.79183   0.58479   0.37744   0.00000  Uiso   1.00
H3340  H     0.79560   0.56997   0.42622   0.00000  Uiso   1.00
H3341  H     0.76086   0.63988   0.39470   0.00000  Uiso   1.00
H3342  H     0.74957   0.62372   0.44195   0.00000  Uiso   1.00
H3343  H     0.81347   0.62592   0.46245   0.00000  Uiso   1.00
H3344  H     0.80085   0.66933   0.44212   0.00000  Uiso   1.00
H3345  H     0.68485   0.86066   0.99509   0.00000  Uiso   1.00
H3346  H     0.82811   0.63782   0.41439   0.00000  Uiso   1.00
H3347  H     0.58869   0.78779   0.61871   0.00000  Uiso   1.00
H3348  H     0.57322   0.79111   0.57029   0.00000  Uiso   1.00
H3349  H     0.64024   0.75161   0.60178   0.00000  Uiso   1.00
H3350  H     0.62168   0.73903   0.55575   0.00000  Uiso   1.00
H3351  H     0.63028   0.79990   0.52988   0.00000  Uiso   1.00
H3352  H     0.67211   0.78631   0.55248   0.00000  Uiso   1.00
H3353  H     0.64226   0.81827   0.57646   0.00000  Uiso   1.00
H3354  H     0.90865   0.76408   0.37660   0.00000  Uiso   1.00
H3355  H     0.90947   0.76254   0.42846   0.00000  Uiso   1.00
H3356  H     0.58347   0.81026   0.98704   0.00000  Uiso   1.00
H3357  H     0.87324   0.70612   0.37517   0.00000  Uiso   1.00
H3358  H     0.87546   0.70315   0.42692   0.00000  Uiso   1.00
H3359  H     0.84173   0.76268   0.43196   0.00000  Uiso   1.00
H3360  H     0.81624   0.72819   0.40667   0.00000  Uiso   1.00
H3361  H     0.83852   0.76387   0.37977   0.00000  Uiso   1.00
H3362  H     0.73861   0.58970   0.62234   0.00000  Uiso   1.00
H3363  H     0.74078   0.58958   0.57043   0.00000  Uiso   1.00
H3364  H     0.79797   0.62410   0.62379   0.00000  Uiso   1.00
H3365  H     0.79882   0.62393   0.57193   0.00000  Uiso   1.00
H3366  H     0.73940   0.65840   0.57160   0.00000  Uiso   1.00
H3367  H     0.56859   0.76450   0.99183   0.00000  Uiso   1.00
H3368  H     0.77482   0.68268   0.59690   0.00000  Uiso   1.00
H3369  H     0.74014   0.65902   0.62384   0.00000  Uiso   1.00
H3370  H     0.72930   0.89939   0.36767   0.00000  Uiso   1.00
H3371  H     0.70262   0.93415   0.38919   0.00000  Uiso   1.00
H3372  H     0.74302   0.87716   0.43891   0.00000  Uiso   1.00
H3373  H     0.70466   0.90512   0.45160   0.00000  Uiso   1.00
H3374  H     0.66784   0.87017   0.40090   0.00000  Uiso   1.00
H3375  H     0.68305   0.84328   0.44136   0.00000  Uiso   1.00
H3376  H     0.70660   0.84007   0.39593   0.00000  Uiso   1.00
H3377  H     0.60723   0.81086   0.05416   0.00000  Uiso   1.00
H3378  H     0.59300   0.76405   0.06046   0.00000  Uiso   1.00
H3379  H     0.63352   0.74501   0.00584   0.00000  Uiso   1.00
H3380  H     0.65857   0.76717   0.04389   0.00000  Uiso   1.00
H3381  H     0.64847   0.79190   0.00032   0.00000  Uiso   1.00
H3382  H     0.73104   0.63180   0.00364   0.00000  Uiso   1.00
H3383  H     0.56391   0.70357   0.00137   0.00000  Uiso   1.00
H3384  H     0.56604   0.68462   0.95285   0.00000  Uiso   1.00
H3385  H     0.54787   0.64269   0.02753   0.00000  Uiso   1.00
H3386  H     0.54911   0.62346   0.97981   0.00000  Uiso   1.00
H3387  H     0.61528   0.64138   0.97427   0.00000  Uiso   1.00
H3388  H     0.60667   0.61100   0.01405   0.00000  Uiso   1.00
H3389  H     0.61349   0.65906   0.02300   0.00000  Uiso   1.00
H3390  H     0.92049   0.81694   0.49221   0.00000  Uiso   1.00
H3391  H     0.96691   0.81830   0.50542   0.00000  Uiso   1.00
H3392  H     0.89924   0.82952   0.55736   0.00000  Uiso   1.00
H3393  H     0.71088   0.65146   0.04629   0.00000  Uiso   1.00
H3394  H     0.94428   0.82541   0.57700   0.00000  Uiso   1.00
H3395  H     0.96581   0.87934   0.54448   0.00000  Uiso   1.00
H3396  H     0.92333   0.89061   0.56744   0.00000  Uiso   1.00
H3397  H     0.92495   0.88295   0.51601   0.00000  Uiso   1.00
H3398  H     0.57291   0.82659   0.51038   0.00000  Uiso   1.00
H3399  H     0.52632   0.81574   0.51490   0.00000  Uiso   1.00
H3400  H     0.56303   0.84681   0.44132   0.00000  Uiso   1.00
H3401  H     0.51473   0.84113   0.44870   0.00000  Uiso   1.00
H3402  H     0.51852   0.88511   0.50508   0.00000  Uiso   1.00
H3403  H     0.53106   0.90533   0.45977   0.00000  Uiso   1.00
H3404  H     0.68243   0.63921   0.00597   0.00000  Uiso   1.00
H3405  H     0.56597   0.89259   0.49363   0.00000  Uiso   1.00
H3406  H     0.66224   0.93698   0.49169   0.00000  Uiso   1.00
H3407  H     0.67804   0.98253   0.49005   0.00000  Uiso   1.00
H3408  H     0.64368   0.94418   0.56084   0.00000  Uiso   1.00
H3409  H     0.65657   0.99172   0.55882   0.00000  Uiso   1.00
H3410  H     0.61229   0.50104   0.50426   0.00000  Uiso   1.00
H3411  H     0.59059   0.98567   0.54791   0.00000  Uiso   1.00
H3412  H     0.59809   0.95393   0.50896   0.00000  Uiso   1.00
H3413  H     0.69320   0.58913   0.51092   0.00000  Uiso   1.00
H3414  H     0.68469   0.54215   0.50260   0.00000  Uiso   1.00
H3415  H     0.77901   0.57296   0.01136   0.00000  Uiso   1.00
H3416  H     0.68249   0.60215   0.43945   0.00000  Uiso   1.00
H3417  H     0.66834   0.55526   0.43400   0.00000  Uiso   1.00
H3418  H     0.61988   0.56537   0.48450   0.00000  Uiso   1.00
H3419  H     0.61485   0.59483   0.44330   0.00000  Uiso   1.00
H3420  H     0.63353   0.61281   0.48746   0.00000  Uiso   1.00
H3421  H     0.57684   0.68065   0.48973   0.00000  Uiso   1.00
H3422  H     0.52917   0.68729   0.48931   0.00000  Uiso   1.00
H3423  H     0.57555   0.66052   0.55812   0.00000  Uiso   1.00
H3424  H     0.52707   0.66726   0.56020   0.00000  Uiso   1.00
H3425  H     0.51758   0.62107   0.50881   0.00000  Uiso   1.00
H3426  H     0.78050   0.58711   0.96115   0.00000  Uiso   1.00
H3427  H     0.54208   0.60222   0.54915   0.00000  Uiso   1.00
H3428  H     0.56617   0.61390   0.50556   0.00000  Uiso   1.00
H3429  H     0.96656   0.68058   0.51382   0.00000  Uiso   1.00
H3430  H     0.96997   0.66776   0.46334   0.00000  Uiso   1.00
H3431  H     0.89723   0.67170   0.50675   0.00000  Uiso   1.00
H3432  H     0.90607   0.65255   0.46009   0.00000  Uiso   1.00
H3433  H     0.94572   0.60476   0.49008   0.00000  Uiso   1.00
H3434  H     0.90018   0.60418   0.50971   0.00000  Uiso   1.00
H3435  H     0.93675   0.62409   0.53724   0.00000  Uiso   1.00
H3436  H     0.83021   0.55789   0.48526   0.00000  Uiso   1.00
O3437  O     0.75000   0.50000   0.25000   0.00000  Uiso   1.00
O3438  O     0.75000   0.96964   0.66317   0.00000  Uiso   1.00
O3439  O     0.83764   0.61056   0.68259   0.00000  Uiso   1.00
O3440  O     0.68493   0.51199   0.09991   0.00000  Uiso   1.00
O3441  O     0.80967   0.52991   0.89750   0.00000  Uiso   1.00
O3442  O     0.96862   0.69206   0.10079   0.00000  Uiso   1.00
O3443  O     0.99720   0.81702   0.89883   0.00000  Uiso   1.00
O3444  O     0.81648   0.99416   0.09996   0.00000  Uiso   1.00
O3445  O     0.69061   0.97200   0.89966   0.00000  Uiso   1.00
O3446  O     0.53234   0.80836   0.10185   0.00000  Uiso   1.00
O3447  O     0.50191   0.68403   0.90073   0.00000  Uiso   1.00
O3448  O     0.93361   0.75740   0.60080   0.00000  Uiso   1.00
O3449  O     0.96964   0.75000   0.33683   0.00000  Uiso   1.00
O3450  O     0.55875   0.78009   0.39893   0.00000  Uiso   1.00
O3451  O     0.71625   0.94217   0.60223   0.00000  Uiso   1.00
O3452  O     0.74317   0.56622   0.39973   0.00000  Uiso   1.00
O3453  O     0.56517   0.74008   0.59918   0.00000  Uiso   1.00
O3454  O     0.93982   0.72200   0.39829   0.00000  Uiso   1.00
O3455  O     0.78047   0.55830   0.60038   0.00000  Uiso   1.00
O3456  O     0.75950   0.93418   0.40029   0.00000  Uiso   1.00
O3457  O     0.53036   0.75000   0.66317   0.00000  Uiso   1.00
O3458  O     0.50000   0.71964   0.83683   0.00000  Uiso   1.00
O3459  O     0.50000   0.78036   0.16317   0.00000  Uiso   1.00
O3460  O     0.78036   0.50000   0.83683   0.00000  Uiso   1.00
O3461  O     0.71964   0.50000   0.16317   0.00000  Uiso   1.00
O3462  O     0.50000   0.78036   0.83683   0.00000  Uiso   1.00
O3463  O     0.50000   0.71964   0.16317   0.00000  Uiso   1.00
O3464  O     0.71964   0.50000   0.83683   0.00000  Uiso   1.00
O3465  O     0.75000   0.50000   0.75000   0.00000  Uiso   1.00
O3466  O     0.78036   0.50000   0.16317   0.00000  Uiso   1.00
O3467  O     0.70725   0.57307   0.27282   0.00000  Uiso   1.00
O3468  O     0.79274   0.92693   0.72718   0.00000  Uiso   1.00
O3469  O     0.92693   0.70726   0.27282   0.00000  Uiso   1.00
O3470  O     0.57307   0.79275   0.72718   0.00000  Uiso   1.00
O3471  O     0.79274   0.92693   0.27282   0.00000  Uiso   1.00
O3472  O     0.70725   0.57307   0.72718   0.00000  Uiso   1.00
O3473  O     0.57307   0.79275   0.27282   0.00000  Uiso   1.00
O3474  O     0.92693   0.70726   0.72718   0.00000  Uiso   1.00
O3475  O     0.70725   0.92693   0.72718   0.00000  Uiso   1.00
O3476  O     0.50000   0.75000   0.25000   0.00000  Uiso   1.00
O3477  O     0.79274   0.57307   0.27282   0.00000  Uiso   1.00
O3478  O     0.92693   0.79275   0.72718   0.00000  Uiso   1.00
O3479  O     0.57307   0.70726   0.27282   0.00000  Uiso   1.00
O3480  O     0.79274   0.57307   0.72718   0.00000  Uiso   1.00
O3481  O     0.70725   0.92693   0.27282   0.00000  Uiso   1.00
O3482  O     0.57307   0.70726   0.72718   0.00000  Uiso   1.00
O3483  O     0.92693   0.79275   0.27282   0.00000  Uiso   1.00
O3484  O     0.95725   0.82307   0.77282   0.00000  Uiso   1.00
O3485  O     0.54274   0.67693   0.22718   0.00000  Uiso   1.00
O3486  O     0.67693   0.95726   0.77282   0.00000  Uiso   1.00
O3487  O     0.50000   0.75000   0.75000   0.00000  Uiso   1.00
O3488  O     0.82307   0.54275   0.22718   0.00000  Uiso   1.00
O3489  O     0.54274   0.67693   0.77282   0.00000  Uiso   1.00
O3490  O     0.95725   0.82307   0.22718   0.00000  Uiso   1.00
O3491  O     0.82307   0.54275   0.77282   0.00000  Uiso   1.00
O3492  O     0.67693   0.95726   0.22718   0.00000  Uiso   1.00
O3493  O     0.95725   0.67693   0.22718   0.00000  Uiso   1.00
O3494  O     0.54274   0.82307   0.77282   0.00000  Uiso   1.00
O3495  O     0.67693   0.54275   0.22718   0.00000  Uiso   1.00
O3496  O     0.82307   0.95726   0.77282   0.00000  Uiso   1.00
O3497  O     0.54274   0.82307   0.22718   0.00000  Uiso   1.00
O3498  O     0.75000   0.96964   0.33683   0.00000  Uiso   1.00
O3499  O     0.95725   0.67693   0.77282   0.00000  Uiso   1.00
O3500  O     0.82307   0.95726   0.22718   0.00000  Uiso   1.00
O3501  O     0.67693   0.54275   0.77282   0.00000  Uiso   1.00
O3502  O     0.68907   0.52924   0.02354   0.00000  Uiso   1.00
O3503  O     0.80704   0.53811   0.97518   0.00000  Uiso   1.00
O3504  O     0.95823   0.69882   0.02288   0.00000  Uiso   1.00
O3505  O     0.98849   0.81716   0.97662   0.00000  Uiso   1.00
O3506  O     0.81382   0.98260   0.02242   0.00000  Uiso   1.00
O3507  O     0.69209   0.97009   0.97788   0.00000  Uiso   1.00
O3508  O     0.54082   0.80448   0.02427   0.00000  Uiso   1.00
O3509  O     0.75000   0.53036   0.66317   0.00000  Uiso   1.00
O3510  O     0.51455   0.68677   0.97848   0.00000  Uiso   1.00
O3511  O     0.93634   0.77279   0.52402   0.00000  Uiso   1.00
O3512  O     0.55733   0.78346   0.47721   0.00000  Uiso   1.00
O3513  O     0.70727   0.94577   0.52474   0.00000  Uiso   1.00
O3514  O     0.73163   0.56495   0.47723   0.00000  Uiso   1.00
O3515  O     0.56021   0.72412   0.52222   0.00000  Uiso   1.00
O3516  O     0.94188   0.71649   0.47640   0.00000  Uiso   1.00
O3517  O     0.78738   0.55332   0.52256   0.00000  Uiso   1.00
O3518  O     0.76299   0.93603   0.47866   0.00000  Uiso   1.00
O3519  O     0.63187   0.91984   0.18530   0.00000  Uiso   1.00
O3520  O     0.53036   0.75000   0.33683   0.00000  Uiso   1.00
O3521  O     0.85868   0.58847   0.81904   0.00000  Uiso   1.00
O3522  O     0.55593   0.60732   0.22189   0.00000  Uiso   1.00
O3523  O     0.93964   0.88921   0.78937   0.00000  Uiso   1.00
O3524  O     0.87378   0.57546   0.18983   0.00000  Uiso   1.00
O3525  O     0.64063   0.91182   0.81825   0.00000  Uiso   1.00
O3526  O     0.94389   0.89144   0.22215   0.00000  Uiso   1.00
O3527  O     0.56133   0.61226   0.79188   0.00000  Uiso   1.00
O3528  O     0.60924   0.55697   0.78247   0.00000  Uiso   1.00
O3529  O     0.88792   0.93870   0.20905   0.00000  Uiso   1.00
O3530  O     0.57887   0.87041   0.81323   0.00000  Uiso   1.00
O3531  O     0.96964   0.75000   0.66317   0.00000  Uiso   1.00
O3532  O     0.91252   0.63894   0.18242   0.00000  Uiso   1.00
O3533  O     0.89243   0.94461   0.77783   0.00000  Uiso   1.00
O3534  O     0.61261   0.56193   0.20775   0.00000  Uiso   1.00
O3535  O     0.91931   0.63179   0.81507   0.00000  Uiso   1.00
O3536  O     0.58928   0.85831   0.18118   0.00000  Uiso   1.00
O3537  O     0.87664   0.67380   0.68920   0.00000  Uiso   1.00
O3538  O     0.60909   0.83856   0.31809   0.00000  Uiso   1.00
O3539  O     0.80732   0.85927   0.71877   0.00000  Uiso   1.00
O3540  O     0.68887   0.63842   0.29108   0.00000  Uiso   1.00
O3541  O     0.61761   0.83073   0.68500   0.00000  Uiso   1.00
O3542  O     0.75000   0.53036   0.33683   0.00000  Uiso   1.00
O3543  O     0.89004   0.66297   0.31836   0.00000  Uiso   1.00
O3544  O     0.69418   0.64248   0.72186   0.00000  Uiso   1.00
O3545  O     0.80945   0.86031   0.28769   0.00000  Uiso   1.00
O3546  O     0.85739   0.80519   0.27708   0.00000  Uiso   1.00
O3547  O     0.63758   0.68800   0.70770   0.00000  Uiso   1.00
O3548  O     0.82972   0.61908   0.31456   0.00000  Uiso   1.00
O3549  O     0.65999   0.89235   0.68104   0.00000  Uiso   1.00
O3550  O     0.64137   0.69381   0.28025   0.00000  Uiso   1.00
O3551  O     0.86252   0.81109   0.70853   0.00000  Uiso   1.00
O3552  O     0.67313   0.87691   0.31109   0.00000  Uiso   1.00
Zn3553 Zn    0.70660   0.50000   0.21760   0.00000  Uiso   1.00
Zn3554 Zn    0.54340   0.75000   0.28240   0.00000  Uiso   1.00
Zn3555 Zn    0.75000   0.95660   0.71760   0.00000  Uiso   1.00
Zn3556 Zn    0.75000   0.54340   0.28240   0.00000  Uiso   1.00
Zn3557 Zn    0.54340   0.75000   0.71760   0.00000  Uiso   1.00
Zn3558 Zn    0.95660   0.75000   0.28240   0.00000  Uiso   1.00
Zn3559 Zn    0.75000   0.54340   0.71760   0.00000  Uiso   1.00
Zn3560 Zn    0.75000   0.95660   0.28240   0.00000  Uiso   1.00
Zn3561 Zn    0.79340   0.50000   0.78240   0.00000  Uiso   1.00
Zn3562 Zn    0.50000   0.70660   0.21760   0.00000  Uiso   1.00
Zn3563 Zn    0.50000   0.79340   0.78240   0.00000  Uiso   1.00
Zn3564 Zn    0.79340   0.50000   0.21760   0.00000  Uiso   1.00
Zn3565 Zn    0.70660   0.50000   0.78240   0.00000  Uiso   1.00
Zn3566 Zn    0.50000   0.79340   0.21760   0.00000  Uiso   1.00
Zn3567 Zn    0.50000   0.70660   0.78240   0.00000  Uiso   1.00
Zn3568 Zn    0.95660   0.75000   0.71760   0.00000  Uiso   1.00
loop_
_geom_bond_atom_site_label_1
_geom_bond_atom_site_label_2
_geom_bond_distance
_geom_bond_site_symmetry_2
_ccdc_geom_bond_type
C1     C240    1.412   .     A
C1     C79     1.400   .     A
C1     O826    1.388   .     S
C2     O836    1.389   .     S
C2     C179    1.402   .     A
C2     C1137   1.416   1_455 S
C3     C288    1.408   .     A
C3     C259    1.456   .     S
C3     C295    1.406   .     A
C4     C260    1.451   .     S
C4     C298    1.407   .     A
C4     C287    1.404   .     A
C5     C286    1.415   .     A
C5     C261    1.461   .     S
C5     C297    1.415   .     A
C6     C285    1.414   .     A
C6     C262    1.464   .     S
C6     C300    1.416   .     A
C7     C284    1.412   .     A
C7     C263    1.455   .     S
C7     C299    1.409   .     A
C8     C283    1.416   .     A
C8     C273    1.465   .     S
C8     C303    1.416   .     A
C9     C282    1.404   .     A
C9     C274    1.454   .     S
C9     C301    1.408   .     A
C10    C266    1.451   .     S
C10    C305    1.406   .     A
C10    C281    1.405   .     A
C11    C304    1.414   .     A
C11    C279    1.413   .     A
C11    C267    1.461   .     S
C12    C268    1.463   .     S
C12    C307    1.416   .     A
C12    C278    1.417   .     A
C13    O837    1.389   .     S
C13    C190    1.399   .     A
C13    C2030   1.417   .     S
C14    C277    1.410   .     A
C14    C270    1.455   .     S
C14    C306    1.412   .     A
C15    C309    1.403   .     A
C15    C276    1.407   .     A
C15    C271    1.451   .     S
C16    C308    1.414   .     A
C16    C275    1.415   .     A
C16    C272    1.462   .     S
C17    C256    1.479   .     S
C17    C79     1.414   .     A
C17    C1908   1.416   1_545 S
C18    C90     1.410   .     A
C18    C255    1.470   .     S
C18    C1919   1.411   1_545 S
C19    C146    1.410   .     A
C19    C254    1.470   .     S
C19    C993    1.409   1_455 S
C20    C157    1.412   .     A
C20    C1005   1.415   1_455 S
C20    C1145   1.477   1_455 S
C21    C168    1.415   .     A
C21    C252    1.477   .     S
C21    C1104   1.412   .     S
C22    C224    1.410   .     A
C22    C251    1.472   .     S
C22    C1071   1.411   .     S
C23    C235    1.409   .     A
C23    C250    1.469   .     S
C23    C1974   1.410   1_545 S
C24    C201    1.400   .     A
C24    O838    1.386   .     S
C24    C248    1.411   .     S
C25    C2033   1.480   .     S
C25    C239    1.417   .     A
C25    C1985   1.414   .     S
C26    O826    1.418   .     S
C26    C27     1.538   .     S
C26    H313    1.111   1_554 S
C26    H424    1.108   1_554 S
C27    H535    1.107   .     S
C27    H646    1.111   .     S
C27    C28     1.526   .     S
C28    H728    1.110   .     S
C28    H706    1.111   .     S
C28    H717    1.110   .     S
C29    C30     1.527   .     S
C29    O827    1.411   .     S
C29    H750    1.116   .     S
C29    H739    1.111   1_556 S
C30    H325    1.111   .     S
C30    C31     1.525   1_556 S
C30    H314    1.109   1_556 S
C31    H347    1.110   .     S
C31    H358    1.111   .     S
C31    C30     1.525   1_554 S
C31    H336    1.110   1_554 S
C32    O828    1.414   .     S
C32    C33     1.531   .     S
C32    H369    1.110   1_554 S
C32    H380    1.107   1_554 S
C33    H391    1.111   .     S
C33    H402    1.111   .     S
C33    C34     1.526   .     S
C34    H425    1.110   .     S
C34    H413    1.110   .     S
C34    H436    1.110   .     S
C35    C212    1.400   .     A
C35    O839    1.387   .     S
C35    C1136   1.412   1_455 S
C36    C37     1.536   .     S
C36    O829    1.412   .     S
C36    H447    1.111   1_556 S
C36    H458    1.109   1_556 S
C37    C38     1.524   .     S
C37    H469    1.111   .     S
C37    H480    1.111   .     S
C38    H502    1.110   .     S
C38    H491    1.110   .     S
C38    H513    1.111   .     S
C39    O830    1.416   .     S
C39    H536    1.110   .     S
C39    C40     1.528   .     S
C39    H524    1.111   1_554 S
C40    H558    1.111   .     S
C40    C41     1.526   .     S
C40    H547    1.111   .     S
C41    H580    1.110   .     S
C41    H569    1.110   .     S
C41    H591    1.110   1_554 S
C42    O831    1.415   .     S
C42    C43     1.535   .     S
C42    H602    1.109   1_556 S
C42    H613    1.106   1_556 S
C43    H635    1.111   .     S
C43    H624    1.111   .     S
C43    C44     1.527   .     S
C44    H669    1.111   .     S
C44    H658    1.109   .     S
C44    H647    1.110   1_556 S
C45    C47     1.531   .     S
C45    O832    1.414   .     S
C45    H680    1.111   1_554 S
C45    H691    1.108   1_554 S
C46    C224    1.397   .     A
C46    O840    1.385   .     S
C46    C245    1.411   .     A
C47    C48     1.527   .     S
C47    H701    1.111   .     S
C47    H702    1.111   .     S
C48    H705    1.111   .     S
C48    H703    1.111   .     S
C48    H704    1.110   .     S
C49    O834    1.411   .     S
C49    C50     1.529   .     S
C49    H708    1.116   .     S
C49    H707    1.111   1_556 S
C50    H710    1.111   .     S
C50    C51     1.526   1_556 S
C50    H709    1.111   1_556 S
C51    H712    1.110   .     S
C51    H713    1.111   .     S
C51    C50     1.526   1_554 S
C51    H711    1.110   1_554 S
C52    C53     1.536   .     S
C52    O835    1.415   .     S
C52    H714    1.111   .     S
C52    H715    1.110   .     S
C53    C54     1.526   .     S
C53    H716    1.111   .     S
C53    H718    1.109   .     S
C54    H719    1.109   .     S
C54    H721    1.109   .     S
C54    H720    1.110   .     S
C55    O836    1.415   .     S
C55    H722    1.109   .     S
C55    C56     1.535   .     S
C55    H723    1.107   .     S
C56    H724    1.110   .     S
C56    H725    1.111   .     S
C56    C58     1.526   .     S
C57    C246    1.415   .     A
C57    C235    1.398   .     A
C57    O841    1.389   .     S
C58    H729    1.111   .     S
C58    H726    1.109   .     S
C58    H727    1.109   .     S
C59    O837    1.415   .     S
C59    H730    1.110   .     S
C59    C60     1.533   .     S
C59    H731    1.107   .     S
C60    H733    1.111   .     S
C60    C61     1.526   .     S
C60    H732    1.110   .     S
C61    H736    1.111   .     S
C61    H735    1.110   .     S
C61    H2518   1.110   .     S
C62    H738    1.110   .     S
C62    O838    1.413   .     S
C62    C63     1.535   .     S
C62    H737    1.111   .     S
C63    C64     1.525   .     S
C63    H741    1.111   .     S
C63    H740    1.111   .     S
C64    H742    1.110   .     S
C64    H744    1.111   .     S
C64    H743    1.110   .     S
C65    H746    1.108   .     S
C65    O839    1.417   .     S
C65    H745    1.111   .     S
C65    C66     1.537   .     S
C66    H747    1.109   .     S
C66    C67     1.525   .     S
C66    H748    1.111   .     S
C67    H752    1.109   .     S
C67    H751    1.110   .     S
C67    H749    1.111   .     S
C68    O842    1.383   .     S
C68    C2032   1.407   .     A
C68    C239    1.397   .     A
C69    O840    1.412   .     S
C69    C70     1.528   .     S
C69    H753    1.112   .     S
C69    H754    1.117   .     S
C70    C71     1.525   .     S
C70    H755    1.109   .     S
C70    H756    1.110   .     S
C71    H758    1.110   .     S
C71    H759    1.111   .     S
C71    H757    1.111   .     S
C72    O841    1.415   .     S
C72    C73     1.532   .     S
C72    H315    1.109   .     S
C72    H760    1.110   .     S
C73    H317    1.111   .     S
C73    H316    1.111   .     S
C73    C74     1.527   .     S
C74    H320    1.111   .     S
C74    H319    1.110   .     S
C74    H2102   1.111   1_545 S
C75    H322    1.116   .     S
C75    C76     1.527   .     S
C75    O842    1.409   .     S
C75    H321    1.112   .     S
C76    H324    1.110   .     S
C76    C77     1.522   .     S
C76    H323    1.110   .     S
C77    H326    1.111   .     S
C77    H327    1.110   .     S
C77    H328    1.111   .     S
C78    O843    1.419   .     S
C78    H330    1.117   .     S
C78    C80     1.528   .     S
C78    H329    1.111   .     S
C79    O764    1.385   .     S
C80    H331    1.106   .     S
C80    H332    1.108   .     S
C80    C81     1.525   .     S
C81    H334    1.110   .     S
C81    H333    1.110   .     S
C81    H2119   1.108   .     S
C82    O845    1.419   .     S
C82    H337    1.111   .     S
C82    C83     1.528   .     S
C82    H338    1.119   .     S
C83    H340    1.111   .     S
C83    C84     1.525   .     S
C83    H339    1.109   .     S
C84    H343    1.111   .     S
C84    H342    1.110   .     S
C84    H341    1.111   .     S
C85    C86     1.532   .     S
C85    O846    1.417   .     S
C85    H344    1.111   .     S
C85    H345    1.115   .     S
C86    H348    1.111   .     S
C86    H346    1.110   .     S
C86    C87     1.527   .     S
C87    H349    1.111   .     S
C87    H350    1.109   .     S
C87    H1243   1.111   1_455 S
C88    H352    1.110   .     S
C88    C89     1.538   .     S
C88    H353    1.118   .     S
C88    O847    1.421   .     S
C89    H354    1.112   .     S
C89    C91     1.529   .     S
C89    H355    1.111   .     S
C90    O765    1.385   .     S
C90    C112    1.396   .     A
C91    H356    1.108   .     S
C91    H359    1.110   .     S
C91    H357    1.109   .     S
C92    H361    1.116   .     S
C92    C93     1.532   .     S
C92    H360    1.109   .     S
C92    O848    1.420   .     S
C93    H363    1.110   .     S
C93    H362    1.107   .     S
C93    C94     1.525   .     S
C94    H364    1.111   .     S
C94    H365    1.109   .     S
C94    H366    1.110   .     S
C95    C96     1.531   .     S
C95    O849    1.418   .     S
C95    H368    1.117   .     S
C95    H367    1.110   .     S
C96    H371    1.110   .     S
C96    H370    1.111   .     S
C96    C97     1.525   .     S
C97    H372    1.110   .     S
C97    H374    1.110   .     S
C97    H373    1.110   .     S
C98    H375    1.116   .     S
C98    O850    1.410   .     S
C98    H376    1.115   .     S
C98    C991    1.523   .     S
C99    H377    1.111   .     S
C99    C100    1.523   .     S
C99    C990    1.523   1_455 S
C99    H1270   1.110   1_455 S
C100   H379    1.109   .     S
C100   H381    1.109   .     S
C100   H382    1.109   .     S
C101   C223    1.401   .     A
C101   O766    1.385   .     S
C101   C911    1.409   .     S
C102   O851    1.419   .     S
C102   H383    1.111   .     S
C102   C103    1.532   .     S
C102   H384    1.117   .     S
C103   H385    1.110   .     S
C103   H386    1.110   .     S
C103   C104    1.525   .     S
C104   H388    1.110   .     S
C104   H389    1.110   .     S
C104   H387    1.111   .     S
C105   H390    1.112   .     S
C105   H392    1.118   .     S
C105   C106    1.528   .     S
C105   O852    1.417   .     S
C106   H394    1.111   .     S
C106   H393    1.110   .     S
C106   C1891   1.526   1_545 S
C107   H396    1.109   .     S
C107   H397    1.111   .     S
C107   C1890   1.526   .     S
C107   H2179   1.111   .     S
C108   C109    1.535   .     S
C108   H399    1.118   .     S
C108   O853    1.420   .     S
C108   H398    1.109   .     S
C109   H400    1.111   .     S
C109   H401    1.108   .     S
C109   C110    1.523   .     S
C110   H405    1.108   .     S
C110   H403    1.110   .     S
C110   H404    1.110   .     S
C111   O854    1.420   .     S
C111   H406    1.109   .     S
C111   H407    1.117   .     S
C111   C114    1.532   .     S
C112   O827    1.385   .     S
C112   C241    1.413   .     A
C113   O767    1.386   .     S
C113   C247    1.400   .     A
C113   C912    1.415   .     S
C114   C115    1.525   .     S
C114   H409    1.111   .     S
C114   H408    1.107   .     S
C115   H412    1.110   .     S
C115   H410    1.109   .     S
C115   H411    1.110   .     S
C116   H414    1.109   .     S
C116   O856    1.419   .     S
C116   C117    1.533   .     S
C116   H415    1.117   .     S
C117   H417    1.110   .     S
C117   C118    1.526   .     S
C117   H416    1.111   .     S
C118   H420    1.110   .     S
C118   H418    1.110   .     S
C118   H419    1.110   .     S
C119   H422    1.119   .     S
C119   O857    1.418   .     S
C119   H421    1.111   .     S
C119   C120    1.527   .     S
C120   H426    1.110   .     S
C120   H423    1.109   .     S
C120   C1905   1.527   .     S
C121   H428    1.110   .     S
C121   H427    1.111   .     S
C121   H429    1.111   .     S
C121   C1904   1.527   1_545 S
C122   H431    1.117   .     S
C122   C123    1.532   .     S
C122   H430    1.111   .     S
C122   O858    1.420   .     S
C123   H433    1.109   .     S
C123   C125    1.524   .     S
C123   H432    1.110   .     S
C124   O768    1.384   .     S
C124   C258    1.398   .     A
C124   C1801   1.416   .     S
C125   H435    1.109   .     S
C125   H434    1.111   .     S
C125   H437    1.108   .     S
C126   C127    1.529   .     S
C126   H438    1.110   .     S
C126   O859    1.420   .     S
C126   H439    1.118   .     S
C127   H441    1.108   .     S
C127   C128    1.526   .     S
C127   H440    1.107   .     S
C128   H444    1.109   .     S
C128   H443    1.110   .     S
C128   H442    1.109   .     S
C129   H445    1.110   .     S
C129   C130    1.531   .     S
C129   O860    1.419   .     S
C129   H446    1.118   .     S
C130   C131    1.525   .     S
C130   H448    1.111   .     S
C130   H449    1.110   .     S
C131   H452    1.110   .     S
C131   H450    1.110   .     S
C131   H451    1.110   .     S
C132   H453    1.110   .     S
C132   H454    1.116   .     S
C132   O861    1.421   .     S
C132   C133    1.536   .     S
C133   H456    1.110   .     S
C133   H455    1.108   .     S
C133   C134    1.526   .     S
C134   H457    1.111   .     S
C134   H460    1.111   .     S
C134   H459    1.109   .     S
C135   C269    1.401   .     A
C135   O769    1.384   .     S
C135   C1802   1.411   .     S
C136   H462    1.118   .     S
C136   O862    1.418   .     S
C136   C137    1.531   .     S
C136   H461    1.110   .     S
C137   H464    1.111   .     S
C137   H463    1.110   .     S
C137   C138    1.525   .     S
C138   H467    1.110   .     S
C138   H465    1.110   .     S
C138   H466    1.110   .     S
C139   C140    1.523   .     S
C139   O863    1.411   .     S
C139   H470    1.115   .     S
C139   H468    1.116   .     S
C140   C141    1.524   .     S
C140   H472    1.110   .     S
C140   H471    1.110   .     S
C141   H475    1.109   .     S
C141   H474    1.108   .     S
C141   H473    1.109   .     S
C142   H477    1.118   .     S
C142   C143    1.539   .     S
C142   H476    1.110   .     S
C142   O864    1.420   .     S
C143   C144    1.528   .     S
C143   H478    1.112   .     S
C143   H479    1.111   .     S
C144   H481    1.108   .     S
C144   H483    1.110   .     S
C144   H482    1.110   .     S
C145   H485    1.117   .     S
C145   O865    1.419   .     S
C145   H484    1.111   .     S
C145   C147    1.528   .     S
C146   C280    1.398   .     A
C146   O770    1.384   .     S
C147   H486    1.107   .     S
C147   C148    1.526   .     S
C147   H487    1.108   .     S
C148   H490    1.109   .     S
C148   H489    1.110   .     S
C148   H488    1.110   .     S
C149   H493    1.118   .     S
C149   H492    1.110   .     S
C149   C150    1.529   .     S
C149   O867    1.418   .     S
C150   H494    1.110   .     S
C150   C151    1.525   .     S
C150   H495    1.111   .     S
C151   H497    1.110   .     S
C151   H498    1.111   .     S
C151   H496    1.111   .     S
C152   H499    1.111   .     S
C152   O868    1.417   .     S
C152   C153    1.531   .     S
C152   H500    1.116   .     S
C153   H501    1.110   .     S
C153   H503    1.111   .     S
C153   C154    1.527   .     S
C154   H504    1.111   .     S
C154   H505    1.109   .     S
C154   H506    1.111   .     S
C155   H508    1.118   .     S
C155   C156    1.531   .     S
C155   H507    1.109   .     S
C155   O869    1.419   .     S
C156   C158    1.525   .     S
C156   H510    1.110   .     S
C156   H509    1.111   .     S
C157   C291    1.398   .     A
C157   O771    1.384   .     S
C158   H511    1.111   .     S
C158   H512    1.109   .     S
C158   H514    1.109   .     S
C159   O870    1.417   .     S
C159   C160    1.527   .     S
C159   H515    1.111   .     S
C159   H516    1.119   .     S
C160   H517    1.109   .     S
C160   H518    1.110   .     S
C160   C161    1.526   .     S
C161   H519    1.110   .     S
C161   H520    1.110   .     S
C161   H521    1.111   .     S
C162   C163    1.536   .     S
C162   H522    1.111   .     S
C162   H523    1.117   .     S
C162   O871    1.421   .     S
C163   H526    1.109   .     S
C163   C164    1.524   .     S
C163   H525    1.110   .     S
C164   H527    1.110   .     S
C164   H528    1.111   .     S
C164   H529    1.108   .     S
C165   H531    1.118   .     S
C165   O872    1.419   .     S
C165   C166    1.529   .     S
C165   H530    1.110   .     S
C166   H532    1.107   .     S
C166   H533    1.108   .     S
C166   C167    1.525   .     S
C167   H537    1.110   .     S
C167   H534    1.108   .     S
C167   H538    1.109   .     S
C168   O772    1.384   .     S
C168   C302    1.395   .     A
C169   O873    1.419   .     S
C169   H540    1.118   .     S
C169   C170    1.532   .     S
C169   H539    1.110   .     S
C170   C171    1.526   .     S
C170   H541    1.111   .     S
C170   H542    1.109   .     S
C171   H544    1.110   .     S
C171   H545    1.110   .     S
C171   H543    1.110   .     S
C172   O874    1.417   .     S
C172   H546    1.111   .     S
C172   H548    1.117   .     S
C172   C173    1.530   .     S
C173   H549    1.109   .     S
C173   C174    1.526   .     S
C173   H550    1.111   .     S
C174   H553    1.111   .     S
C174   H552    1.109   .     S
C174   H551    1.111   .     S
C175   H555    1.118   .     S
C175   C176    1.540   .     S
C175   O875    1.421   .     S
C175   H554    1.111   .     S
C176   H557    1.111   .     S
C176   H556    1.112   .     S
C176   C177    1.529   .     S
C177   H559    1.108   .     S
C177   H561    1.111   .     S
C177   H560    1.110   .     S
C178   O876    1.421   .     S
C178   C180    1.535   .     S
C178   H562    1.107   .     S
C178   H563    1.117   .     S
C179   O774    1.384   .     S
C179   C914    1.411   1_455 S
C180   H564    1.107   .     S
C180   H565    1.111   .     S
C180   C181    1.524   .     S
C181   H567    1.110   .     S
C181   H568    1.111   .     S
C181   H566    1.109   .     S
C182   H571    1.118   .     S
C182   C183    1.531   .     S
C182   H570    1.110   .     S
C182   O763    1.419   .     S
C183   H572    1.111   .     S
C183   H573    1.110   .     S
C183   C184    1.525   .     S
C184   H575    1.110   .     S
C184   H576    1.110   .     S
C184   H574    1.111   .     S
C185   H577    1.110   .     S
C185   C186    1.531   .     S
C185   H578    1.117   .     S
C185   O2548   1.422   .     S
C186   C187    1.527   .     S
C186   H2363   1.110   .     S
C186   H2365   1.110   .     S
C187   H584    1.110   .     S
C187   H582    1.110   .     S
C187   H583    1.110   .     S
C188   O765    1.419   .     S
C188   C189    1.527   .     S
C188   H2369   1.111   1_545 S
C188   H2370   1.117   1_545 S
C189   H588    1.111   .     S
C189   C191    1.525   .     S
C189   H587    1.108   .     S
C190   O775    1.384   .     S
C190   C1807   1.410   .     S
C191   H590    1.110   .     S
C191   H2373   1.111   1_545 S
C191   H2376   1.110   1_545 S
C192   O766    1.415   .     S
C192   H594    1.112   .     S
C192   C193    1.527   .     S
C192   H1485   1.116   .     S
C193   C194    1.526   .     S
C193   H596    1.111   .     S
C193   H595    1.112   .     S
C194   H597    1.111   .     S
C194   H598    1.108   .     S
C194   H1491   1.106   .     S
C195   H600    1.111   .     S
C195   C196    1.531   .     S
C195   H601    1.118   .     S
C195   O1659   1.420   1_455 S
C196   H604    1.110   .     S
C196   H603    1.110   .     S
C196   C197    1.526   .     S
C197   H605    1.111   .     S
C197   H607    1.109   .     S
C197   H606    1.110   .     S
C198   H608    1.112   .     S
C198   H609    1.119   .     S
C198   C199    1.529   .     S
C198   O2552   1.421   1_545 S
C199   H610    1.108   .     S
C199   H611    1.111   .     S
C199   C200    1.526   .     S
C200   H612    1.108   .     S
C200   H615    1.108   .     S
C200   H614    1.110   .     S
C201   O776    1.385   .     S
C201   C1809   1.414   1_545 S
C202   C203    1.527   .     S
C202   O769    1.417   .     S
C202   H2400   1.112   .     S
C202   H2401   1.117   .     S
C203   H618    1.109   .     S
C203   H619    1.112   .     S
C203   C204    1.525   .     S
C204   H621    1.109   .     S
C204   H2404   1.111   .     S
C204   H2406   1.110   .     S
C205   O770    1.419   .     S
C205   C206    1.527   .     S
C205   H1515   1.112   1_455 S
C205   H1517   1.118   1_455 S
C206   C207    1.526   .     S
C206   H627    1.112   .     S
C206   H626    1.108   .     S
C207   H629    1.109   .     S
C207   H1520   1.111   1_455 S
C207   H1522   1.111   1_455 S
C208   H631    1.110   .     S
C208   C209    1.530   .     S
C208   H632    1.119   .     S
C208   O1663   1.421   .     S
C209   H634    1.109   .     S
C209   C210    1.527   .     S
C209   H633    1.110   .     S
C210   H638    1.109   .     S
C210   H636    1.111   .     S
C210   H637    1.110   .     S
C211   H640    1.120   .     S
C211   O772    1.420   .     S
C211   H639    1.110   .     S
C211   C213    1.529   .     S
C212   O777    1.385   .     S
C212   C913    1.412   1_455 S
C213   C214    1.526   .     S
C213   H642    1.110   .     S
C213   H641    1.111   .     S
C214   H643    1.109   .     S
C214   H644    1.110   .     S
C214   H645    1.107   .     S
C215   H649    1.118   .     S
C215   O774    1.418   .     S
C215   C216    1.528   .     S
C215   H648    1.111   .     S
C216   H650    1.109   .     S
C216   C217    1.526   .     S
C216   H651    1.111   .     S
C217   H654    1.110   .     S
C217   H653    1.110   .     S
C217   H652    1.111   .     S
C218   O775    1.419   .     S
C218   H656    1.117   .     S
C218   H655    1.111   .     S
C218   C219    1.528   .     S
C219   H657    1.109   .     S
C219   H659    1.111   .     S
C219   C220    1.527   .     S
C220   H660    1.111   .     S
C220   H662    1.111   .     S
C220   H661    1.109   .     S
C221   O776    1.421   .     S
C221   C222    1.531   .     S
C221   H664    1.118   .     S
C221   H663    1.111   .     S
C222   H666    1.110   .     S
C222   H665    1.109   .     S
C222   C225    1.527   .     S
C223   C242    1.417   .     A
C223   O828    1.390   .     S
C224   O778    1.385   .     S
C225   H668    1.110   .     S
C225   H670    1.109   .     S
C225   H667    1.111   .     S
C226   H671    1.110   .     S
C226   C227    1.531   .     S
C226   H672    1.118   .     S
C226   O777    1.422   .     S
C227   H673    1.110   .     S
C227   H674    1.110   .     S
C227   C228    1.528   .     S
C228   H675    1.110   .     S
C228   H677    1.110   .     S
C228   H676    1.110   .     S
C229   H679    1.117   .     S
C229   O778    1.418   .     S
C229   C230    1.527   .     S
C229   H678    1.112   .     S
C230   H682    1.110   .     S
C230   H681    1.108   .     S
C230   C231    1.524   .     S
C231   H683    1.111   .     S
C231   H685    1.109   .     S
C231   H684    1.109   .     S
C232   H686    1.112   .     S
C232   C233    1.527   .     S
C232   H687    1.118   .     S
C232   O779    1.418   .     S
C233   C234    1.526   .     S
C233   H688    1.107   .     S
C233   H689    1.112   .     S
C234   H692    1.110   .     S
C234   H690    1.111   .     S
C234   H693    1.110   .     S
C235   O779    1.384   .     S
C236   O780    1.417   .     S
C236   H694    1.105   .     S
C236   C237    1.535   .     S
C236   H695    1.117   .     S
C237   H697    1.108   .     S
C237   H696    1.109   .     S
C237   C238    1.523   .     S
C238   H699    1.110   .     S
C238   H700    1.109   .     S
C238   H698    1.108   .     S
C239   O780    1.384   .     S
C240   C241    1.475   1_554 S
C240   C2042   1.413   1_545 S
C241   C240    1.475   1_556 S
C241   C2053   1.416   1_545 S
C242   C243    1.475   1_554 S
C242   C1172   1.416   .     S
C243   C247    1.412   .     A
C243   C242    1.475   1_556 S
C243   C1183   1.410   .     S
C244   C245    1.475   .     S
C244   C302    1.412   .     A
C244   C927    1.412   .     S
C245   C894    1.416   .     S
C246   C1797   1.417   1_545 S
C246   C248    1.475   .     S
C247   O829    1.386   .     S
C248   C1852   1.407   1_545 A
C249   C1809   1.480   1_545 S
C249   O2606   1.284   1_545 A
C249   O866    1.286   .     S
C250   O833    1.281   .     A
C250   O2546   1.282   1_545 S
C251   O773    1.284   .     A
C251   O1736   1.287   .     S
C252   O855    1.285   .     A
C252   O1673   1.289   .     S
C253   C912    1.477   .     S
C253   O1674   1.286   .     S
C253   O1678   1.282   .     S
C254   O787    1.284   .     A
C254   O783    1.281   .     A
C255   O784    1.284   .     S
C255   O788    1.285   .     S
C256   O785    1.289   .     A
C256   O790    1.285   .     A
C257   C312    1.465   .     S
C257   O791    1.283   .     A
C257   O819    1.284   .     A
C258   O830    1.388   .     S
C258   C2024   1.413   .     S
C259   O792    1.281   .     A
C259   O820    1.281   .     A
C260   O793    1.278   .     A
C260   O817    1.281   .     A
C261   O794    1.282   .     A
C261   O818    1.283   .     A
C262   O824    1.283   .     A
C262   O795    1.283   .     A
C263   O825    1.278   .     A
C263   O796    1.282   .     A
C264   O797    1.282   .     A
C264   O821    1.279   .     A
C264   C310    1.451   .     S
C265   O823    1.286   .     A
C265   C311    1.463   .     S
C265   O798    1.283   .     A
C266   O810    1.280   .     A
C266   O799    1.279   .     A
C267   O801    1.283   .     A
C267   O812    1.282   .     A
C268   O802    1.282   .     A
C268   O808    1.284   .     A
C269   O831    1.390   .     S
C269   C2025   1.416   .     S
C270   O803    1.278   .     A
C270   O809    1.282   .     A
C271   O815    1.279   .     A
C271   O804    1.282   .     A
C272   O816    1.284   .     A
C272   O805    1.284   .     A
C273   O813    1.283   .     A
C273   O806    1.283   .     A
C274   O814    1.281   .     A
C274   O807    1.279   .     A
C275   C292    1.392   .     A
C275   O843    1.385   .     S
C276   O845    1.384   .     S
C276   C290    1.392   .     A
C277   O846    1.387   .     S
C277   C289    1.389   .     A
C278   C288    1.389   .     A
C278   O847    1.386   .     S
C279   O848    1.383   .     S
C279   C287    1.388   .     A
C280   O832    1.389   .     S
C280   C1134   1.416   1_455 S
C281   C286    1.389   .     A
C281   O849    1.385   .     S
C282   O850    1.382   .     S
C282   C285    1.390   .     A
C283   C284    1.389   .     A
C283   O851    1.386   .     S
C284   O852    1.386   .     S
C285   O853    1.385   .     S
C286   O854    1.384   .     S
C287   O856    1.385   .     S
C288   O857    1.384   .     S
C289   C312    1.416   .     A
C289   O858    1.386   .     S
C290   C311    1.416   .     A
C290   O859    1.385   .     S
C291   O834    1.385   .     S
C291   C1135   1.410   1_455 S
C292   O860    1.384   .     S
C292   C310    1.406   .     A
C293   C309    1.388   .     A
C293   C311    1.415   .     A
C293   O861    1.384   .     S
C294   C308    1.389   .     A
C294   C310    1.403   .     A
C294   O862    1.385   .     S
C295   C307    1.389   .     A
C295   O863    1.382   .     S
C296   O864    1.386   .     S
C296   C312    1.416   .     A
C296   C306    1.389   .     A
C297   C305    1.392   .     A
C297   O865    1.386   .     S
C298   O867    1.383   .     S
C298   C304    1.392   .     A
C299   C303    1.390   .     A
C299   O868    1.387   .     S
C300   C301    1.390   .     A
C300   O869    1.385   .     S
C301   O870    1.384   .     S
C302   O835    1.387   .     S
C303   O871    1.386   .     S
C304   O872    1.385   .     S
C305   O873    1.384   .     S
C306   O874    1.386   .     S
C307   O875    1.386   .     S
C308   O876    1.383   .     S
C309   O763    1.384   .     S
H313   C26     1.111   1_556 S
H314   C30     1.109   1_554 S
H318   C1858   1.111   .     S
H335   C1865   1.108   1_545 S
H336   C31     1.110   1_556 S
H351   C979    1.111   .     S
H369   C32     1.110   1_556 S
H378   C991    1.110   .     S
H380   C32     1.107   1_556 S
H395   C1891   1.111   1_545 S
H424   C26     1.108   1_556 S
H447   C36     1.111   1_554 S
H458   C36     1.109   1_554 S
H524   C39     1.111   1_556 S
H579   C1970   1.110   1_545 S
H581   C1970   1.110   1_545 S
H585   C1972   1.111   .     S
H586   C1972   1.117   .     S
H589   C1975   1.111   .     S
H591   C41     1.110   1_556 S
H592   C1975   1.110   .     S
H593   C1084   1.116   1_455 S
H599   C1086   1.106   1_455 S
H602   C42     1.109   1_554 S
H613   C42     1.106   1_554 S
H616   C1986   1.112   1_545 S
H617   C1986   1.117   1_545 S
H620   C1988   1.111   1_545 S
H622   C1988   1.110   1_545 S
H623   C1097   1.112   .     S
H625   C1097   1.118   .     S
H628   C1099   1.111   .     S
H630   C1099   1.111   .     S
H647   C44     1.110   1_554 S
H680   C45     1.111   1_556 S
H691   C45     1.108   1_556 S
H707   C49     1.111   1_554 S
H709   C50     1.111   1_554 S
H711   C51     1.110   1_556 S
H734   C1845   1.110   1_545 S
H739   C29     1.111   1_554 S
O761   Zn880   1.947   .     S
O761   Zn877   1.953   .     S
O761   Zn2668  1.949   1_545 S
O761   Zn888   1.951   .     S
O762   Zn879   1.949   .     S
O762   C2034   1.282   .     S
O764   C1969   1.422   1_545 S
O767   C1087   1.420   .     S
O768   C1982   1.421   .     S
O771   C1100   1.421   1_455 S
O773   Zn882   1.949   .     S
O781   Zn881   1.949   .     S
O781   C1144   1.289   1_455 S
O782   Zn891   1.948   .     S
O782   C1145   1.286   1_455 S
O783   Zn890   1.948   .     S
O784   Zn885   1.948   .     S
O785   Zn877   1.948   .     S
O786   Zn887   1.949   .     S
O786   C1145   1.282   1_455 S
O787   Zn886   1.949   .     S
O788   Zn889   1.949   .     S
O789   Zn889   1.951   .     S
O789   Zn885   1.953   .     S
O789   Zn883   1.949   .     S
O789   Zn2663  1.947   1_545 S
O790   Zn888   1.949   .     S
O791   Zn880   1.942   .     S
O792   Zn879   1.942   .     S
O793   Zn882   1.935   .     S
O794   Zn881   1.935   .     S
O795   Zn884   1.941   .     S
O796   Zn883   1.941   .     S
O797   Zn878   1.935   .     S
O798   Zn892   1.935   .     S
O799   Zn879   1.937   .     S
O800   Zn1774  1.951   1_455 S
O800   Zn878   1.953   .     S
O800   Zn886   1.947   .     S
O800   Zn890   1.949   .     S
O801   Zn880   1.937   .     S
O802   Zn892   1.939   .     S
O803   Zn878   1.939   .     S
O804   Zn883   1.938   .     S
O805   Zn884   1.938   .     S
O806   Zn881   1.940   .     S
O807   Zn882   1.940   .     S
O808   Zn1779  1.942   .     S
O809   Zn886   1.942   .     S
O810   Zn2673  1.935   .     S
O811   Zn891   1.949   .     S
O811   Zn887   1.947   .     S
O811   Zn881   1.951   .     S
O811   Zn1784  1.953   1_455 S
O812   Zn888   1.935   .     S
O813   Zn891   1.941   .     S
O814   Zn1782  1.941   .     S
O815   Zn885   1.935   .     S
O816   Zn2661  1.935   .     S
O817   Zn1778  1.937   .     S
O818   Zn887   1.937   .     S
O819   Zn877   1.939   .     S
O820   Zn2669  1.939   .     S
O821   Zn890   1.938   .     S
O822   Zn884   1.948   .     S
O822   C2033   1.284   .     A
O823   Zn1783  1.938   .     S
O824   Zn2672  1.940   .     S
O825   Zn889   1.940   .     S
O833   Zn883   1.948   .     S
O844   Zn878   1.948   .     S
O844   C1143   1.287   1_455 S
O855   Zn892   1.948   .     S
O866   Zn880   1.949   .     S
Zn877  O2600   1.935   1_545 S
Zn879  O2573   1.947   .     S
Zn882  O1692   1.951   .     S
Zn884  O2545   1.949   .     S
Zn885  O2604   1.939   1_545 S
Zn886  O1709   1.937   1_455 S
Zn887  O1700   1.942   1_455 S
Zn888  O2608   1.940   1_545 S
Zn889  O2594   1.935   1_545 S
Zn890  O1706   1.941   1_455 S
Zn891  O1715   1.938   1_455 S
Zn892  O1703   1.953   .     S
C893   C1132   1.412   .     A
C893   C971    1.400   .     A
C893   O1718   1.388   .     S
C894   O1728   1.389   .     S
C894   C1071   1.402   .     A
C895   C1180   1.408   .     A
C895   C1151   1.456   .     S
C895   C1187   1.406   .     A
C896   C1152   1.451   .     S
C896   C1190   1.407   .     A
C896   C1179   1.404   .     A
C897   C1178   1.415   .     A
C897   C1153   1.461   .     S
C897   C1189   1.415   .     A
C898   C1177   1.414   .     A
C898   C1154   1.464   .     S
C898   C1192   1.416   .     A
C899   C1176   1.412   .     A
C899   C1155   1.455   .     S
C899   C1191   1.409   .     A
C900   C1175   1.416   .     A
C900   C1165   1.465   .     S
C900   C1195   1.416   .     A
C901   C1174   1.404   .     A
C901   C1166   1.454   .     S
C901   C1193   1.408   .     A
C902   C1158   1.451   .     S
C902   C1197   1.406   .     A
C902   C1173   1.405   .     A
C903   C1196   1.414   .     A
C903   C1171   1.413   .     A
C903   C1159   1.461   .     S
C904   C1160   1.463   .     S
C904   C1199   1.416   .     A
C904   C1170   1.417   .     A
C905   O1729   1.389   .     S
C905   C1082   1.399   .     A
C905   C2922   1.417   .     S
C906   C1169   1.410   .     A
C906   C1162   1.455   .     S
C906   C1198   1.412   .     A
C907   C1201   1.403   .     A
C907   C1168   1.407   .     A
C907   C1163   1.451   .     S
C908   C1200   1.414   .     A
C908   C1167   1.415   .     A
C908   C1164   1.462   .     S
C909   C1148   1.479   .     S
C909   C971    1.414   .     A
C909   C2800   1.416   1_545 S
C910   C982    1.410   .     A
C910   C1147   1.470   .     S
C910   C2811   1.411   1_545 S
C911   C1038   1.410   .     A
C911   C1146   1.470   .     S
C912   C1049   1.412   .     A
C913   C1060   1.415   .     A
C913   C1144   1.477   .     S
C913   C212    1.412   1_655 S
C914   C1116   1.410   .     A
C914   C1143   1.472   .     S
C914   C179    1.411   1_655 S
C915   C1127   1.409   .     A
C915   C1142   1.469   .     S
C915   C2866   1.410   1_545 S
C916   C1093   1.400   .     A
C916   O1730   1.386   .     S
C916   C1140   1.411   .     S
C917   C2925   1.480   .     S
C917   C1131   1.417   .     A
C917   C2877   1.414   .     S
C918   O1718   1.418   .     S
C918   C919    1.538   .     S
C918   H1205   1.111   1_554 S
C918   H1316   1.108   1_554 S
C919   H1427   1.107   .     S
C919   H1538   1.111   .     S
C919   C920    1.526   .     S
C920   H1620   1.110   .     S
C920   H1598   1.111   .     S
C920   H1609   1.110   .     S
C921   C922    1.527   .     S
C921   O1719   1.411   .     S
C921   H1642   1.116   .     S
C921   H1631   1.111   1_556 S
C922   H1217   1.111   .     S
C922   C923    1.525   1_556 S
C922   H1206   1.109   1_556 S
C923   H1239   1.110   .     S
C923   H1250   1.111   .     S
C923   C922    1.525   1_554 S
C923   H1228   1.110   1_554 S
C924   O1720   1.414   .     S
C924   C925    1.531   .     S
C924   H1261   1.110   1_554 S
C924   H1272   1.107   1_554 S
C925   H1283   1.111   .     S
C925   H1294   1.111   .     S
C925   C926    1.526   .     S
C926   H1317   1.110   .     S
C926   H1305   1.110   .     S
C926   H1328   1.110   .     S
C927   C1104   1.400   .     A
C927   O1731   1.387   .     S
C928   C929    1.536   .     S
C928   O1721   1.412   .     S
C928   H1339   1.111   1_556 S
C928   H1350   1.109   1_556 S
C929   C930    1.524   .     S
C929   H1361   1.111   .     S
C929   H1372   1.111   .     S
C930   H1394   1.110   .     S
C930   H1383   1.110   .     S
C930   H1405   1.111   .     S
C931   O1722   1.416   .     S
C931   H1428   1.110   .     S
C931   C932    1.528   .     S
C931   H1416   1.111   1_554 S
C932   H1450   1.111   .     S
C932   C933    1.526   .     S
C932   H1439   1.111   .     S
C933   H1472   1.110   .     S
C933   H1461   1.110   .     S
C933   H1483   1.110   1_554 S
C934   O1723   1.415   .     S
C934   C935    1.535   .     S
C934   H1494   1.109   1_556 S
C934   H1505   1.106   1_556 S
C935   H1527   1.111   .     S
C935   H1516   1.111   .     S
C935   C936    1.527   .     S
C936   H1561   1.111   .     S
C936   H1550   1.109   .     S
C936   H1539   1.110   1_556 S
C937   C939    1.531   .     S
C937   O1724   1.414   .     S
C937   H1572   1.111   1_554 S
C937   H1583   1.108   1_554 S
C938   C1116   1.397   .     A
C938   O1732   1.385   .     S
C938   C1137   1.411   .     A
C939   C940    1.527   .     S
C939   H1593   1.111   .     S
C939   H1594   1.111   .     S
C940   H1597   1.111   .     S
C940   H1595   1.111   .     S
C940   H1596   1.110   .     S
C941   O1726   1.411   .     S
C941   C942    1.529   .     S
C941   H1600   1.116   .     S
C941   H1599   1.111   1_556 S
C942   H1602   1.111   .     S
C942   C943    1.526   1_556 S
C942   H1601   1.111   1_556 S
C943   H1604   1.110   .     S
C943   H1605   1.111   .     S
C943   C942    1.526   1_554 S
C943   H1603   1.110   1_554 S
C944   C945    1.536   .     S
C944   O1727   1.415   .     S
C944   H1606   1.111   .     S
C944   H1607   1.110   .     S
C945   C946    1.526   .     S
C945   H1608   1.111   .     S
C945   H1610   1.109   .     S
C946   H1611   1.109   .     S
C946   H1613   1.109   .     S
C946   H1612   1.110   .     S
C947   O1728   1.415   .     S
C947   H1614   1.109   .     S
C947   C948    1.535   .     S
C947   H1615   1.107   .     S
C948   H1616   1.110   .     S
C948   H1617   1.111   .     S
C948   C950    1.526   .     S
C949   C1138   1.415   .     A
C949   C1127   1.398   .     A
C949   O1733   1.389   .     S
C950   H1621   1.111   .     S
C950   H1618   1.109   .     S
C950   H1619   1.109   .     S
C951   O1729   1.415   .     S
C951   H1622   1.110   .     S
C951   C952    1.533   .     S
C951   H1623   1.107   .     S
C952   H1625   1.111   .     S
C952   C953    1.526   .     S
C952   H1624   1.110   .     S
C953   H1628   1.111   .     S
C953   H1627   1.110   .     S
C953   H3410   1.110   .     S
C954   H1630   1.110   .     S
C954   O1730   1.413   .     S
C954   C955    1.535   .     S
C954   H1629   1.111   .     S
C955   C956    1.525   .     S
C955   H1633   1.111   .     S
C955   H1632   1.111   .     S
C956   H1634   1.110   .     S
C956   H1636   1.111   .     S
C956   H1635   1.110   .     S
C957   H1638   1.108   .     S
C957   O1731   1.417   .     S
C957   H1637   1.111   .     S
C957   C958    1.537   .     S
C958   H1639   1.109   .     S
C958   C959    1.525   .     S
C958   H1640   1.111   .     S
C959   H1644   1.109   .     S
C959   H1643   1.110   .     S
C959   H1641   1.111   .     S
C960   O1734   1.383   .     S
C960   C2924   1.407   .     A
C960   C1131   1.397   .     A
C961   O1732   1.412   .     S
C961   C962    1.528   .     S
C961   H1645   1.112   .     S
C961   H1646   1.117   .     S
C962   C963    1.525   .     S
C962   H1647   1.109   .     S
C962   H1648   1.110   .     S
C963   H1650   1.110   .     S
C963   H1651   1.111   .     S
C963   H1649   1.111   .     S
C964   O1733   1.415   .     S
C964   C965    1.532   .     S
C964   H1207   1.109   .     S
C964   H1652   1.110   .     S
C965   H1209   1.111   .     S
C965   H1208   1.111   .     S
C965   C966    1.527   .     S
C966   H1212   1.111   .     S
C966   H1211   1.110   .     S
C966   H2994   1.111   1_545 S
C967   H1214   1.116   .     S
C967   C968    1.527   .     S
C967   O1734   1.409   .     S
C967   H1213   1.112   .     S
C968   H1216   1.110   .     S
C968   C969    1.522   .     S
C968   H1215   1.110   .     S
C969   H1218   1.111   .     S
C969   H1219   1.110   .     S
C969   H1220   1.111   .     S
C970   O1735   1.419   .     S
C970   H1222   1.117   .     S
C970   C972    1.528   .     S
C970   H1221   1.111   .     S
C971   O1656   1.385   .     S
C972   H1223   1.106   .     S
C972   H1224   1.108   .     S
C972   C973    1.525   .     S
C973   H1226   1.110   .     S
C973   H1225   1.110   .     S
C973   H3011   1.108   .     S
C974   O1737   1.419   .     S
C974   H1229   1.111   .     S
C974   C975    1.528   .     S
C974   H1230   1.119   .     S
C975   H1232   1.111   .     S
C975   C976    1.525   .     S
C975   H1231   1.109   .     S
C976   H1235   1.111   .     S
C976   H1234   1.110   .     S
C976   H1233   1.111   .     S
C977   C978    1.532   .     S
C977   O1738   1.417   .     S
C977   H1236   1.111   .     S
C977   H1237   1.115   .     S
C978   H1240   1.111   .     S
C978   H1238   1.110   .     S
C978   C979    1.527   .     S
C979   H1241   1.111   .     S
C979   H1242   1.109   .     S
C980   H1244   1.110   .     S
C980   C981    1.538   .     S
C980   H1245   1.118   .     S
C980   O1739   1.421   .     S
C981   H1246   1.112   .     S
C981   C983    1.529   .     S
C981   H1247   1.111   .     S
C982   O1657   1.385   .     S
C982   C1004   1.396   .     A
C983   H1248   1.108   .     S
C983   H1251   1.110   .     S
C983   H1249   1.109   .     S
C984   H1253   1.116   .     S
C984   C985    1.532   .     S
C984   H1252   1.109   .     S
C984   O1740   1.420   .     S
C985   H1255   1.110   .     S
C985   H1254   1.107   .     S
C985   C986    1.525   .     S
C986   H1256   1.111   .     S
C986   H1257   1.109   .     S
C986   H1258   1.110   .     S
C987   C988    1.531   .     S
C987   O1741   1.418   .     S
C987   H1260   1.117   .     S
C987   H1259   1.110   .     S
C988   H1263   1.110   .     S
C988   H1262   1.111   .     S
C988   C989    1.525   .     S
C989   H1264   1.110   .     S
C989   H1266   1.110   .     S
C989   H1265   1.110   .     S
C990   H1267   1.116   .     S
C990   O1742   1.410   .     S
C990   H1268   1.115   .     S
C990   C99     1.523   1_655 S
C991   H1269   1.111   .     S
C991   C992    1.523   .     S
C992   H1271   1.109   .     S
C992   H1273   1.109   .     S
C992   H1274   1.109   .     S
C993   C1115   1.401   .     A
C993   O1658   1.385   .     S
C993   C19     1.409   1_655 S
C994   O1743   1.419   .     S
C994   H1275   1.111   .     S
C994   C995    1.532   .     S
C994   H1276   1.117   .     S
C995   H1277   1.110   .     S
C995   H1278   1.110   .     S
C995   C996    1.525   .     S
C996   H1280   1.110   .     S
C996   H1281   1.110   .     S
C996   H1279   1.111   .     S
C997   H1282   1.112   .     S
C997   H1284   1.118   .     S
C997   C998    1.528   .     S
C997   O1744   1.417   .     S
C998   H1286   1.111   .     S
C998   H1285   1.110   .     S
C998   C2783   1.526   1_545 S
C999   H1288   1.109   .     S
C999   H1289   1.111   .     S
C999   C2782   1.526   .     S
C999   H3071   1.111   .     S
C1000  C1001   1.535   .     S
C1000  H1291   1.118   .     S
C1000  O1745   1.420   .     S
C1000  H1290   1.109   .     S
C1001  H1292   1.111   .     S
C1001  H1293   1.108   .     S
C1001  C1002   1.523   .     S
C1002  H1297   1.108   .     S
C1002  H1295   1.110   .     S
C1002  H1296   1.110   .     S
C1003  O1746   1.420   .     S
C1003  H1298   1.109   .     S
C1003  H1299   1.117   .     S
C1003  C1006   1.532   .     S
C1004  O1719   1.385   .     S
C1004  C1133   1.413   .     A
C1005  O1659   1.386   .     S
C1005  C1139   1.400   .     A
C1005  C20     1.415   1_655 S
C1006  C1007   1.525   .     S
C1006  H1301   1.111   .     S
C1006  H1300   1.107   .     S
C1007  H1304   1.110   .     S
C1007  H1302   1.109   .     S
C1007  H1303   1.110   .     S
C1008  H1306   1.109   .     S
C1008  O1748   1.419   .     S
C1008  C1009   1.533   .     S
C1008  H1307   1.117   .     S
C1009  H1309   1.110   .     S
C1009  C1010   1.526   .     S
C1009  H1308   1.111   .     S
C1010  H1312   1.110   .     S
C1010  H1310   1.110   .     S
C1010  H1311   1.110   .     S
C1011  H1314   1.119   .     S
C1011  O1749   1.418   .     S
C1011  H1313   1.111   .     S
C1011  C1012   1.527   .     S
C1012  H1318   1.110   .     S
C1012  H1315   1.109   .     S
C1012  C2797   1.527   .     S
C1013  H1320   1.110   .     S
C1013  H1319   1.111   .     S
C1013  H1321   1.111   .     S
C1013  C2796   1.527   1_545 S
C1014  H1323   1.117   .     S
C1014  C1015   1.532   .     S
C1014  H1322   1.111   .     S
C1014  O1750   1.420   .     S
C1015  H1325   1.109   .     S
C1015  C1017   1.524   .     S
C1015  H1324   1.110   .     S
C1016  O1660   1.384   .     S
C1016  C1150   1.398   .     A
C1016  C2693   1.416   .     S
C1017  H1327   1.109   .     S
C1017  H1326   1.111   .     S
C1017  H1329   1.108   .     S
C1018  C1019   1.529   .     S
C1018  H1330   1.110   .     S
C1018  O1751   1.420   .     S
C1018  H1331   1.118   .     S
C1019  H1333   1.108   .     S
C1019  C1020   1.526   .     S
C1019  H1332   1.107   .     S
C1020  H1336   1.109   .     S
C1020  H1335   1.110   .     S
C1020  H1334   1.109   .     S
C1021  H1337   1.110   .     S
C1021  C1022   1.531   .     S
C1021  O1752   1.419   .     S
C1021  H1338   1.118   .     S
C1022  C1023   1.525   .     S
C1022  H1340   1.111   .     S
C1022  H1341   1.110   .     S
C1023  H1344   1.110   .     S
C1023  H1342   1.110   .     S
C1023  H1343   1.110   .     S
C1024  H1345   1.110   .     S
C1024  H1346   1.116   .     S
C1024  O1753   1.421   .     S
C1024  C1025   1.536   .     S
C1025  H1348   1.110   .     S
C1025  H1347   1.108   .     S
C1025  C1026   1.526   .     S
C1026  H1349   1.111   .     S
C1026  H1352   1.111   .     S
C1026  H1351   1.109   .     S
C1027  C1161   1.401   .     A
C1027  O1661   1.384   .     S
C1027  C2694   1.411   .     S
C1028  H1354   1.118   .     S
C1028  O1754   1.418   .     S
C1028  C1029   1.531   .     S
C1028  H1353   1.110   .     S
C1029  H1356   1.111   .     S
C1029  H1355   1.110   .     S
C1029  C1030   1.525   .     S
C1030  H1359   1.110   .     S
C1030  H1357   1.110   .     S
C1030  H1358   1.110   .     S
C1031  C1032   1.523   .     S
C1031  O1755   1.411   .     S
C1031  H1362   1.115   .     S
C1031  H1360   1.116   .     S
C1032  C1033   1.524   .     S
C1032  H1364   1.110   .     S
C1032  H1363   1.110   .     S
C1033  H1367   1.109   .     S
C1033  H1366   1.108   .     S
C1033  H1365   1.109   .     S
C1034  H1369   1.118   .     S
C1034  C1035   1.539   .     S
C1034  H1368   1.110   .     S
C1034  O1756   1.420   .     S
C1035  C1036   1.528   .     S
C1035  H1370   1.112   .     S
C1035  H1371   1.111   .     S
C1036  H1373   1.108   .     S
C1036  H1375   1.110   .     S
C1036  H1374   1.110   .     S
C1037  H1377   1.117   .     S
C1037  O1757   1.419   .     S
C1037  H1376   1.111   .     S
C1037  C1039   1.528   .     S
C1038  C1172   1.398   .     A
C1038  O1662   1.384   .     S
C1039  H1378   1.107   .     S
C1039  C1040   1.526   .     S
C1039  H1379   1.108   .     S
C1040  H1382   1.109   .     S
C1040  H1381   1.110   .     S
C1040  H1380   1.110   .     S
C1041  H1385   1.118   .     S
C1041  H1384   1.110   .     S
C1041  C1042   1.529   .     S
C1041  O1759   1.418   .     S
C1042  H1386   1.110   .     S
C1042  C1043   1.525   .     S
C1042  H1387   1.111   .     S
C1043  H1389   1.110   .     S
C1043  H1390   1.111   .     S
C1043  H1388   1.111   .     S
C1044  H1391   1.111   .     S
C1044  O1760   1.417   .     S
C1044  C1045   1.531   .     S
C1044  H1392   1.116   .     S
C1045  H1393   1.110   .     S
C1045  H1395   1.111   .     S
C1045  C1046   1.527   .     S
C1046  H1396   1.111   .     S
C1046  H1397   1.109   .     S
C1046  H1398   1.111   .     S
C1047  H1400   1.118   .     S
C1047  C1048   1.531   .     S
C1047  H1399   1.109   .     S
C1047  O1761   1.419   .     S
C1048  C1050   1.525   .     S
C1048  H1402   1.110   .     S
C1048  H1401   1.111   .     S
C1049  C1183   1.398   .     A
C1049  O1663   1.384   .     S
C1050  H1403   1.111   .     S
C1050  H1404   1.109   .     S
C1050  H1406   1.109   .     S
C1051  O1762   1.417   .     S
C1051  C1052   1.527   .     S
C1051  H1407   1.111   .     S
C1051  H1408   1.119   .     S
C1052  H1409   1.109   .     S
C1052  H1410   1.110   .     S
C1052  C1053   1.526   .     S
C1053  H1411   1.110   .     S
C1053  H1412   1.110   .     S
C1053  H1413   1.111   .     S
C1054  C1055   1.536   .     S
C1054  H1414   1.111   .     S
C1054  H1415   1.117   .     S
C1054  O1763   1.421   .     S
C1055  H1418   1.109   .     S
C1055  C1056   1.524   .     S
C1055  H1417   1.110   .     S
C1056  H1419   1.110   .     S
C1056  H1420   1.111   .     S
C1056  H1421   1.108   .     S
C1057  H1423   1.118   .     S
C1057  O1764   1.419   .     S
C1057  C1058   1.529   .     S
C1057  H1422   1.110   .     S
C1058  H1424   1.107   .     S
C1058  H1425   1.108   .     S
C1058  C1059   1.525   .     S
C1059  H1429   1.110   .     S
C1059  H1426   1.108   .     S
C1059  H1430   1.109   .     S
C1060  O1664   1.384   .     S
C1060  C1194   1.395   .     A
C1061  O1765   1.419   .     S
C1061  H1432   1.118   .     S
C1061  C1062   1.532   .     S
C1061  H1431   1.110   .     S
C1062  C1063   1.526   .     S
C1062  H1433   1.111   .     S
C1062  H1434   1.109   .     S
C1063  H1436   1.110   .     S
C1063  H1437   1.110   .     S
C1063  H1435   1.110   .     S
C1064  O1766   1.417   .     S
C1064  H1438   1.111   .     S
C1064  H1440   1.117   .     S
C1064  C1065   1.530   .     S
C1065  H1441   1.109   .     S
C1065  C1066   1.526   .     S
C1065  H1442   1.111   .     S
C1066  H1445   1.111   .     S
C1066  H1444   1.109   .     S
C1066  H1443   1.111   .     S
C1067  H1447   1.118   .     S
C1067  C1068   1.540   .     S
C1067  O1767   1.421   .     S
C1067  H1446   1.111   .     S
C1068  H1449   1.111   .     S
C1068  H1448   1.112   .     S
C1068  C1069   1.529   .     S
C1069  H1451   1.108   .     S
C1069  H1453   1.111   .     S
C1069  H1452   1.110   .     S
C1070  O1768   1.421   .     S
C1070  C1072   1.535   .     S
C1070  H1454   1.107   .     S
C1070  H1455   1.117   .     S
C1071  O1666   1.384   .     S
C1072  H1456   1.107   .     S
C1072  H1457   1.111   .     S
C1072  C1073   1.524   .     S
C1073  H1459   1.110   .     S
C1073  H1460   1.111   .     S
C1073  H1458   1.109   .     S
C1074  H1463   1.118   .     S
C1074  C1075   1.531   .     S
C1074  H1462   1.110   .     S
C1074  O1655   1.419   .     S
C1075  H1464   1.111   .     S
C1075  H1465   1.110   .     S
C1075  C1076   1.525   .     S
C1076  H1467   1.110   .     S
C1076  H1468   1.110   .     S
C1076  H1466   1.111   .     S
C1077  H1469   1.110   .     S
C1077  C1078   1.531   .     S
C1077  H1470   1.117   .     S
C1077  O3440   1.422   .     S
C1078  C1079   1.527   .     S
C1078  H3255   1.110   .     S
C1078  H3257   1.110   .     S
C1079  H1476   1.110   .     S
C1079  H1474   1.110   .     S
C1079  H1475   1.110   .     S
C1080  O1657   1.419   .     S
C1080  C1081   1.527   .     S
C1080  H3261   1.111   1_545 S
C1080  H3262   1.117   1_545 S
C1081  H1480   1.111   .     S
C1081  C1083   1.525   .     S
C1081  H1479   1.108   .     S
C1082  O1667   1.384   .     S
C1082  C2699   1.410   .     S
C1083  H1482   1.110   .     S
C1083  H3265   1.111   1_545 S
C1083  H3268   1.110   1_545 S
C1084  O1658   1.415   .     S
C1084  H1486   1.112   .     S
C1084  C1085   1.527   .     S
C1084  H593    1.116   1_655 S
C1085  C1086   1.526   .     S
C1085  H1488   1.111   .     S
C1085  H1487   1.112   .     S
C1086  H1489   1.111   .     S
C1086  H1490   1.108   .     S
C1086  H599    1.106   1_655 S
C1087  H1492   1.111   .     S
C1087  C1088   1.531   .     S
C1087  H1493   1.118   .     S
C1088  H1496   1.110   .     S
C1088  H1495   1.110   .     S
C1088  C1089   1.526   .     S
C1089  H1497   1.111   .     S
C1089  H1499   1.109   .     S
C1089  H1498   1.110   .     S
C1090  H1500   1.112   .     S
C1090  H1501   1.119   .     S
C1090  C1091   1.529   .     S
C1090  O3444   1.421   1_545 S
C1091  H1502   1.108   .     S
C1091  H1503   1.111   .     S
C1091  C1092   1.526   .     S
C1092  H1504   1.108   .     S
C1092  H1507   1.108   .     S
C1092  H1506   1.110   .     S
C1093  O1668   1.385   .     S
C1093  C2701   1.414   1_545 S
C1094  C1095   1.527   .     S
C1094  O1661   1.417   .     S
C1094  H3292   1.112   .     S
C1094  H3293   1.117   .     S
C1095  H1510   1.109   .     S
C1095  H1511   1.112   .     S
C1095  C1096   1.525   .     S
C1096  H1513   1.109   .     S
C1096  H3296   1.111   .     S
C1096  H3298   1.110   .     S
C1097  O1662   1.419   .     S
C1097  C1098   1.527   .     S
C1098  C1099   1.526   .     S
C1098  H1519   1.112   .     S
C1098  H1518   1.108   .     S
C1099  H1521   1.109   .     S
C1100  H1523   1.110   .     S
C1100  C1101   1.530   .     S
C1100  H1524   1.119   .     S
C1100  O771    1.421   1_655 S
C1101  H1526   1.109   .     S
C1101  C1102   1.527   .     S
C1101  H1525   1.110   .     S
C1102  H1530   1.109   .     S
C1102  H1528   1.111   .     S
C1102  H1529   1.110   .     S
C1103  H1532   1.120   .     S
C1103  O1664   1.420   .     S
C1103  H1531   1.110   .     S
C1103  C1105   1.529   .     S
C1104  O1669   1.385   .     S
C1105  C1106   1.526   .     S
C1105  H1534   1.110   .     S
C1105  H1533   1.111   .     S
C1106  H1535   1.109   .     S
C1106  H1536   1.110   .     S
C1106  H1537   1.107   .     S
C1107  H1541   1.118   .     S
C1107  O1666   1.418   .     S
C1107  C1108   1.528   .     S
C1107  H1540   1.111   .     S
C1108  H1542   1.109   .     S
C1108  C1109   1.526   .     S
C1108  H1543   1.111   .     S
C1109  H1546   1.110   .     S
C1109  H1545   1.110   .     S
C1109  H1544   1.111   .     S
C1110  O1667   1.419   .     S
C1110  H1548   1.117   .     S
C1110  H1547   1.111   .     S
C1110  C1111   1.528   .     S
C1111  H1549   1.109   .     S
C1111  H1551   1.111   .     S
C1111  C1112   1.527   .     S
C1112  H1552   1.111   .     S
C1112  H1554   1.111   .     S
C1112  H1553   1.109   .     S
C1113  O1668   1.421   .     S
C1113  C1114   1.531   .     S
C1113  H1556   1.118   .     S
C1113  H1555   1.111   .     S
C1114  H1558   1.110   .     S
C1114  H1557   1.109   .     S
C1114  C1117   1.527   .     S
C1115  C1134   1.417   .     A
C1115  O1720   1.390   .     S
C1116  O1670   1.385   .     S
C1117  H1560   1.110   .     S
C1117  H1562   1.109   .     S
C1117  H1559   1.111   .     S
C1118  H1563   1.110   .     S
C1118  C1119   1.531   .     S
C1118  H1564   1.118   .     S
C1118  O1669   1.422   .     S
C1119  H1565   1.110   .     S
C1119  H1566   1.110   .     S
C1119  C1120   1.528   .     S
C1120  H1567   1.110   .     S
C1120  H1569   1.110   .     S
C1120  H1568   1.110   .     S
C1121  H1571   1.117   .     S
C1121  O1670   1.418   .     S
C1121  C1122   1.527   .     S
C1121  H1570   1.112   .     S
C1122  H1574   1.110   .     S
C1122  H1573   1.108   .     S
C1122  C1123   1.524   .     S
C1123  H1575   1.111   .     S
C1123  H1577   1.109   .     S
C1123  H1576   1.109   .     S
C1124  H1578   1.112   .     S
C1124  C1125   1.527   .     S
C1124  H1579   1.118   .     S
C1124  O1671   1.418   .     S
C1125  C1126   1.526   .     S
C1125  H1580   1.107   .     S
C1125  H1581   1.112   .     S
C1126  H1584   1.110   .     S
C1126  H1582   1.111   .     S
C1126  H1585   1.110   .     S
C1127  O1671   1.384   .     S
C1128  O1672   1.417   .     S
C1128  H1586   1.105   .     S
C1128  C1129   1.535   .     S
C1128  H1587   1.117   .     S
C1129  H1589   1.108   .     S
C1129  H1588   1.109   .     S
C1129  C1130   1.523   .     S
C1130  H1591   1.110   .     S
C1130  H1592   1.109   .     S
C1130  H1590   1.108   .     S
C1131  O1672   1.384   .     S
C1132  C1133   1.475   1_554 S
C1132  C2934   1.413   1_545 S
C1133  C1132   1.475   1_556 S
C1133  C2945   1.416   1_545 S
C1134  C1135   1.475   1_554 S
C1134  C280    1.416   1_655 S
C1135  C1139   1.412   .     A
C1135  C1134   1.475   1_556 S
C1135  C291    1.410   1_655 S
C1136  C1137   1.475   .     S
C1136  C1194   1.412   .     A
C1136  C35     1.412   1_655 S
C1137  C2      1.416   1_655 S
C1138  C2689   1.417   1_545 S
C1138  C1140   1.475   .     S
C1139  O1721   1.386   .     S
C1140  C2744   1.407   1_545 A
C1141  C2701   1.480   1_545 S
C1141  O3498   1.284   1_545 A
C1141  O1758   1.286   .     S
C1142  O1725   1.281   .     A
C1142  O3438   1.282   1_545 S
C1143  O1665   1.284   .     A
C1143  O844    1.287   1_655 S
C1144  O1747   1.285   .     A
C1144  O781    1.289   1_655 S
C1145  C20     1.477   1_655 S
C1145  O782    1.286   1_655 S
C1145  O786    1.282   1_655 S
C1146  O1679   1.284   .     A
C1146  O1675   1.281   .     A
C1147  O1676   1.284   .     S
C1147  O1680   1.285   .     S
C1148  O1677   1.289   .     A
C1148  O1682   1.285   .     A
C1149  C1204   1.465   .     S
C1149  O1683   1.283   .     A
C1149  O1711   1.284   .     A
C1150  O1722   1.388   .     S
C1150  C2916   1.413   .     S
C1151  O1684   1.281   .     A
C1151  O1712   1.281   .     A
C1152  O1685   1.278   .     A
C1152  O1709   1.281   .     A
C1153  O1686   1.282   .     A
C1153  O1710   1.283   .     A
C1154  O1716   1.283   .     A
C1154  O1687   1.283   .     A
C1155  O1717   1.278   .     A
C1155  O1688   1.282   .     A
C1156  O1689   1.282   .     A
C1156  O1713   1.279   .     A
C1156  C1202   1.451   .     S
C1157  O1715   1.286   .     A
C1157  C1203   1.463   .     S
C1157  O1690   1.283   .     A
C1158  O1702   1.280   .     A
C1158  O1691   1.279   .     A
C1159  O1693   1.283   .     A
C1159  O1704   1.282   .     A
C1160  O1694   1.282   .     A
C1160  O1700   1.284   .     A
C1161  O1723   1.390   .     S
C1161  C2917   1.416   .     S
C1162  O1695   1.278   .     A
C1162  O1701   1.282   .     A
C1163  O1707   1.279   .     A
C1163  O1696   1.282   .     A
C1164  O1708   1.284   .     A
C1164  O1697   1.284   .     A
C1165  O1705   1.283   .     A
C1165  O1698   1.283   .     A
C1166  O1706   1.281   .     A
C1166  O1699   1.279   .     A
C1167  C1184   1.392   .     A
C1167  O1735   1.385   .     S
C1168  O1737   1.384   .     S
C1168  C1182   1.392   .     A
C1169  O1738   1.387   .     S
C1169  C1181   1.389   .     A
C1170  C1180   1.389   .     A
C1170  O1739   1.386   .     S
C1171  O1740   1.383   .     S
C1171  C1179   1.388   .     A
C1172  O1724   1.389   .     S
C1173  C1178   1.389   .     A
C1173  O1741   1.385   .     S
C1174  O1742   1.382   .     S
C1174  C1177   1.390   .     A
C1175  C1176   1.389   .     A
C1175  O1743   1.386   .     S
C1176  O1744   1.386   .     S
C1177  O1745   1.385   .     S
C1178  O1746   1.384   .     S
C1179  O1748   1.385   .     S
C1180  O1749   1.384   .     S
C1181  C1204   1.416   .     A
C1181  O1750   1.386   .     S
C1182  C1203   1.416   .     A
C1182  O1751   1.385   .     S
C1183  O1726   1.385   .     S
C1184  O1752   1.384   .     S
C1184  C1202   1.406   .     A
C1185  C1201   1.388   .     A
C1185  C1203   1.415   .     A
C1185  O1753   1.384   .     S
C1186  C1200   1.389   .     A
C1186  C1202   1.403   .     A
C1186  O1754   1.385   .     S
C1187  C1199   1.389   .     A
C1187  O1755   1.382   .     S
C1188  O1756   1.386   .     S
C1188  C1204   1.416   .     A
C1188  C1198   1.389   .     A
C1189  C1197   1.392   .     A
C1189  O1757   1.386   .     S
C1190  O1759   1.383   .     S
C1190  C1196   1.392   .     A
C1191  C1195   1.390   .     A
C1191  O1760   1.387   .     S
C1192  C1193   1.390   .     A
C1192  O1761   1.385   .     S
C1193  O1762   1.384   .     S
C1194  O1727   1.387   .     S
C1195  O1763   1.386   .     S
C1196  O1764   1.385   .     S
C1197  O1765   1.384   .     S
C1198  O1766   1.386   .     S
C1199  O1767   1.386   .     S
C1200  O1768   1.383   .     S
C1201  O1655   1.384   .     S
H1205  C918    1.111   1_556 S
H1206  C922    1.109   1_554 S
H1210  C2750   1.111   .     S
H1227  C2757   1.108   1_545 S
H1228  C923    1.110   1_556 S
H1243  C87     1.111   1_655 S
H1261  C924    1.110   1_556 S
H1270  C99     1.110   1_655 S
H1272  C924    1.107   1_556 S
H1287  C2783   1.111   1_545 S
H1316  C918    1.108   1_556 S
H1339  C928    1.111   1_554 S
H1350  C928    1.109   1_554 S
H1416  C931    1.111   1_556 S
H1471  C2862   1.110   1_545 S
H1473  C2862   1.110   1_545 S
H1477  C2864   1.111   .     S
H1478  C2864   1.117   .     S
H1481  C2867   1.111   .     S
H1483  C933    1.110   1_556 S
H1484  C2867   1.110   .     S
H1494  C934    1.109   1_554 S
H1505  C934    1.106   1_554 S
H1508  C2878   1.112   1_545 S
H1509  C2878   1.117   1_545 S
H1512  C2880   1.111   1_545 S
H1514  C2880   1.110   1_545 S
H1515  C205    1.112   1_655 S
H1517  C205    1.118   1_655 S
H1520  C207    1.111   1_655 S
H1522  C207    1.111   1_655 S
H1539  C936    1.110   1_554 S
H1572  C937    1.111   1_556 S
H1583  C937    1.108   1_556 S
H1599  C941    1.111   1_554 S
H1601  C942    1.111   1_554 S
H1603  C943    1.110   1_556 S
H1626  C2737   1.110   1_545 S
H1631  C921    1.111   1_554 S
O1653  Zn1772  1.947   .     S
O1653  Zn1769  1.953   .     S
O1653  Zn3560  1.949   1_545 S
O1653  Zn1780  1.951   .     S
O1654  Zn1771  1.949   .     S
O1654  C2926   1.282   .     S
O1656  C2861   1.422   1_545 S
O1659  C195    1.420   1_655 S
O1660  C2874   1.421   .     S
O1665  Zn1774  1.949   .     S
O1673  Zn1773  1.949   .     S
O1674  Zn1783  1.948   .     S
O1675  Zn1782  1.948   .     S
O1676  Zn1777  1.948   .     S
O1677  Zn1769  1.948   .     S
O1678  Zn1779  1.949   .     S
O1679  Zn1778  1.949   .     S
O1680  Zn1781  1.949   .     S
O1681  Zn1781  1.951   .     S
O1681  Zn1777  1.953   .     S
O1681  Zn1775  1.949   .     S
O1681  Zn3555  1.947   1_545 S
O1682  Zn1780  1.949   .     S
O1683  Zn1772  1.942   .     S
O1684  Zn1771  1.942   .     S
O1685  Zn1774  1.935   .     S
O1686  Zn1773  1.935   .     S
O1687  Zn1776  1.941   .     S
O1688  Zn1775  1.941   .     S
O1689  Zn1770  1.935   .     S
O1690  Zn1784  1.935   .     S
O1691  Zn1771  1.937   .     S
O1692  Zn1770  1.953   .     S
O1692  Zn1778  1.947   .     S
O1692  Zn1782  1.949   .     S
O1693  Zn1772  1.937   .     S
O1694  Zn1784  1.939   .     S
O1695  Zn1770  1.939   .     S
O1696  Zn1775  1.938   .     S
O1697  Zn1776  1.938   .     S
O1698  Zn1773  1.940   .     S
O1699  Zn1774  1.940   .     S
O1700  Zn887   1.942   1_655 S
O1701  Zn1778  1.942   .     S
O1702  Zn3565  1.935   .     S
O1703  Zn1783  1.949   .     S
O1703  Zn1779  1.947   .     S
O1703  Zn1773  1.951   .     S
O1704  Zn1780  1.935   .     S
O1705  Zn1783  1.941   .     S
O1706  Zn890   1.941   1_655 S
O1707  Zn1777  1.935   .     S
O1708  Zn3553  1.935   .     S
O1709  Zn886   1.937   1_655 S
O1710  Zn1779  1.937   .     S
O1711  Zn1769  1.939   .     S
O1712  Zn3561  1.939   .     S
O1713  Zn1782  1.938   .     S
O1714  Zn1776  1.948   .     S
O1714  C2925   1.284   .     A
O1715  Zn891   1.938   1_655 S
O1716  Zn3564  1.940   .     S
O1717  Zn1781  1.940   .     S
O1725  Zn1775  1.948   .     S
O1736  Zn1770  1.948   .     S
O1747  Zn1784  1.948   .     S
O1758  Zn1772  1.949   .     S
Zn1769 O3492   1.935   1_545 S
Zn1771 O3465   1.947   .     S
Zn1774 O800    1.951   1_655 S
Zn1776 O3437   1.949   .     S
Zn1777 O3496   1.939   1_545 S
Zn1780 O3500   1.940   1_545 S
Zn1781 O3486   1.935   1_545 S
Zn1784 O811    1.953   1_655 S
C1785  C2024   1.412   .     A
C1785  C1863   1.400   .     A
C1785  O2610   1.388   .     S
C1786  O2620   1.389   .     S
C1786  C1963   1.402   .     A
C1786  C2921   1.416   1_455 S
C1787  C2072   1.408   .     A
C1787  C2043   1.456   .     S
C1787  C2079   1.406   .     A
C1788  C2044   1.451   .     S
C1788  C2082   1.407   .     A
C1788  C2071   1.404   .     A
C1789  C2070   1.415   .     A
C1789  C2045   1.461   .     S
C1789  C2081   1.415   .     A
C1790  C2069   1.414   .     A
C1790  C2046   1.464   .     S
C1790  C2084   1.416   .     A
C1791  C2068   1.412   .     A
C1791  C2047   1.455   .     S
C1791  C2083   1.409   .     A
C1792  C2067   1.416   .     A
C1792  C2057   1.465   .     S
C1792  C2087   1.416   .     A
C1793  C2066   1.404   .     A
C1793  C2058   1.454   .     S
C1793  C2085   1.408   .     A
C1794  C2050   1.451   .     S
C1794  C2089   1.406   .     A
C1794  C2065   1.405   .     A
C1795  C2088   1.414   .     A
C1795  C2063   1.413   .     A
C1795  C2051   1.461   .     S
C1796  C2052   1.463   .     S
C1796  C2091   1.416   .     A
C1796  C2062   1.417   .     A
C1797  O2621   1.389   .     S
C1797  C1974   1.399   .     A
C1797  C246    1.417   1_565 S
C1798  C2061   1.410   .     A
C1798  C2054   1.455   .     S
C1798  C2090   1.412   .     A
C1799  C2093   1.403   .     A
C1799  C2060   1.407   .     A
C1799  C2055   1.451   .     S
C1800  C2092   1.414   .     A
C1800  C2059   1.415   .     A
C1800  C2056   1.462   .     S
C1801  C2040   1.479   .     S
C1801  C1863   1.414   .     A
C1802  C1874   1.410   .     A
C1802  C2039   1.470   .     S
C1803  C1930   1.410   .     A
C1803  C2038   1.470   .     S
C1803  C2777   1.409   1_455 S
C1804  C1941   1.412   .     A
C1804  C2789   1.415   1_455 S
C1804  C2929   1.477   1_455 S
C1805  C1952   1.415   .     A
C1805  C2036   1.477   .     S
C1805  C2888   1.412   .     S
C1806  C2008   1.410   .     A
C1806  C2035   1.472   .     S
C1806  C2855   1.411   .     S
C1807  C2019   1.409   .     A
C1807  C2034   1.469   .     S
C1808  C1985   1.400   .     A
C1808  O2622   1.386   .     S
C1808  C2032   1.411   .     S
C1809  C249    1.480   1_565 S
C1809  C2023   1.417   .     A
C1809  C201    1.414   1_565 S
C1810  O2610   1.418   .     S
C1810  C1811   1.538   .     S
C1810  H2097   1.111   1_554 S
C1810  H2208   1.108   1_554 S
C1811  H2319   1.107   .     S
C1811  H2430   1.111   .     S
C1811  C1812   1.526   .     S
C1812  H2512   1.110   .     S
C1812  H2490   1.111   .     S
C1812  H2501   1.110   .     S
C1813  C1814   1.527   .     S
C1813  O2611   1.411   .     S
C1813  H2534   1.116   .     S
C1813  H2523   1.111   1_556 S
C1814  H2109   1.111   .     S
C1814  C1815   1.525   1_556 S
C1814  H2098   1.109   1_556 S
C1815  H2131   1.110   .     S
C1815  H2142   1.111   .     S
C1815  C1814   1.525   1_554 S
C1815  H2120   1.110   1_554 S
C1816  O2612   1.414   .     S
C1816  C1817   1.531   .     S
C1816  H2153   1.110   1_554 S
C1816  H2164   1.107   1_554 S
C1817  H2175   1.111   .     S
C1817  H2186   1.111   .     S
C1817  C1818   1.526   .     S
C1818  H2209   1.110   .     S
C1818  H2197   1.110   .     S
C1818  H2220   1.110   .     S
C1819  C1996   1.400   .     A
C1819  O2623   1.387   .     S
C1819  C2920   1.412   1_455 S
C1820  C1821   1.536   .     S
C1820  O2613   1.412   .     S
C1820  H2231   1.111   1_556 S
C1820  H2242   1.109   1_556 S
C1821  C1822   1.524   .     S
C1821  H2253   1.111   .     S
C1821  H2264   1.111   .     S
C1822  H2286   1.110   .     S
C1822  H2275   1.110   .     S
C1822  H2297   1.111   .     S
C1823  O2614   1.416   .     S
C1823  H2320   1.110   .     S
C1823  C1824   1.528   .     S
C1823  H2308   1.111   1_554 S
C1824  H2342   1.111   .     S
C1824  C1825   1.526   .     S
C1824  H2331   1.111   .     S
C1825  H2364   1.110   .     S
C1825  H2353   1.110   .     S
C1825  H2375   1.110   1_554 S
C1826  O2615   1.415   .     S
C1826  C1827   1.535   .     S
C1826  H2386   1.109   1_556 S
C1826  H2397   1.106   1_556 S
C1827  H2419   1.111   .     S
C1827  H2408   1.111   .     S
C1827  C1828   1.527   .     S
C1828  H2453   1.111   .     S
C1828  H2442   1.109   .     S
C1828  H2431   1.110   1_556 S
C1829  C1831   1.531   .     S
C1829  O2616   1.414   .     S
C1829  H2464   1.111   1_554 S
C1829  H2475   1.108   1_554 S
C1830  C2008   1.397   .     A
C1830  O2624   1.385   .     S
C1830  C2029   1.411   .     A
C1831  C1832   1.527   .     S
C1831  H2485   1.111   .     S
C1831  H2486   1.111   .     S
C1832  H2489   1.111   .     S
C1832  H2487   1.111   .     S
C1832  H2488   1.110   .     S
C1833  O2618   1.411   .     S
C1833  C1834   1.529   .     S
C1833  H2492   1.116   .     S
C1833  H2491   1.111   1_556 S
C1834  H2494   1.111   .     S
C1834  C1835   1.526   1_556 S
C1834  H2493   1.111   1_556 S
C1835  H2496   1.110   .     S
C1835  H2497   1.111   .     S
C1835  C1834   1.526   1_554 S
C1835  H2495   1.110   1_554 S
C1836  C1837   1.536   .     S
C1836  O2619   1.415   .     S
C1836  H2498   1.111   .     S
C1836  H2499   1.110   .     S
C1837  C1838   1.526   .     S
C1837  H2500   1.111   .     S
C1837  H2502   1.109   .     S
C1838  H2503   1.109   .     S
C1838  H2505   1.109   .     S
C1838  H2504   1.110   .     S
C1839  O2620   1.415   .     S
C1839  H2506   1.109   .     S
C1839  C1840   1.535   .     S
C1839  H2507   1.107   .     S
C1840  H2508   1.110   .     S
C1840  H2509   1.111   .     S
C1840  C1842   1.526   .     S
C1841  C2030   1.415   .     A
C1841  C2019   1.398   .     A
C1841  O2625   1.389   .     S
C1842  H2513   1.111   .     S
C1842  H2510   1.109   .     S
C1842  H2511   1.109   .     S
C1843  O2621   1.415   .     S
C1843  H2514   1.110   .     S
C1843  C1844   1.533   .     S
C1843  H2515   1.107   .     S
C1844  H2517   1.111   .     S
C1844  C1845   1.526   .     S
C1844  H2516   1.110   .     S
C1845  H2520   1.111   .     S
C1845  H2519   1.110   .     S
C1845  H734    1.110   1_565 S
C1846  H2522   1.110   .     S
C1846  O2622   1.413   .     S
C1846  C1847   1.535   .     S
C1846  H2521   1.111   .     S
C1847  C1848   1.525   .     S
C1847  H2525   1.111   .     S
C1847  H2524   1.111   .     S
C1848  H2526   1.110   .     S
C1848  H2528   1.111   .     S
C1848  H2527   1.110   .     S
C1849  H2530   1.108   .     S
C1849  O2623   1.417   .     S
C1849  H2529   1.111   .     S
C1849  C1850   1.537   .     S
C1850  H2531   1.109   .     S
C1850  C1851   1.525   .     S
C1850  H2532   1.111   .     S
C1851  H2536   1.109   .     S
C1851  H2535   1.110   .     S
C1851  H2533   1.111   .     S
C1852  O2626   1.383   .     S
C1852  C248    1.407   1_565 A
C1852  C2023   1.397   .     A
C1853  O2624   1.412   .     S
C1853  C1854   1.528   .     S
C1853  H2537   1.112   .     S
C1853  H2538   1.117   .     S
C1854  C1855   1.525   .     S
C1854  H2539   1.109   .     S
C1854  H2540   1.110   .     S
C1855  H2542   1.110   .     S
C1855  H2543   1.111   .     S
C1855  H2541   1.111   .     S
C1856  O2625   1.415   .     S
C1856  C1857   1.532   .     S
C1856  H2099   1.109   .     S
C1856  H2544   1.110   .     S
C1857  H2101   1.111   .     S
C1857  H2100   1.111   .     S
C1857  C1858   1.527   .     S
C1858  H2104   1.111   .     S
C1858  H2103   1.110   .     S
C1859  H2106   1.116   .     S
C1859  C1860   1.527   .     S
C1859  O2626   1.409   .     S
C1859  H2105   1.112   .     S
C1860  H2108   1.110   .     S
C1860  C1861   1.522   .     S
C1860  H2107   1.110   .     S
C1861  H2110   1.111   .     S
C1861  H2111   1.110   .     S
C1861  H2112   1.111   .     S
C1862  O2627   1.419   .     S
C1862  H2114   1.117   .     S
C1862  C1864   1.528   .     S
C1862  H2113   1.111   .     S
C1863  O2548   1.385   .     S
C1864  H2115   1.106   .     S
C1864  H2116   1.108   .     S
C1864  C1865   1.525   .     S
C1865  H2118   1.110   .     S
C1865  H2117   1.110   .     S
C1865  H335    1.108   1_565 S
C1866  O2629   1.419   .     S
C1866  H2121   1.111   .     S
C1866  C1867   1.528   .     S
C1866  H2122   1.119   .     S
C1867  H2124   1.111   .     S
C1867  C1868   1.525   .     S
C1867  H2123   1.109   .     S
C1868  H2127   1.111   .     S
C1868  H2126   1.110   .     S
C1868  H2125   1.111   .     S
C1869  C1870   1.532   .     S
C1869  O2630   1.417   .     S
C1869  H2128   1.111   .     S
C1869  H2129   1.115   .     S
C1870  H2132   1.111   .     S
C1870  H2130   1.110   .     S
C1870  C1871   1.527   .     S
C1871  H2133   1.111   .     S
C1871  H2134   1.109   .     S
C1871  H3027   1.111   1_455 S
C1872  H2136   1.110   .     S
C1872  C1873   1.538   .     S
C1872  H2137   1.118   .     S
C1872  O2631   1.421   .     S
C1873  H2138   1.112   .     S
C1873  C1875   1.529   .     S
C1873  H2139   1.111   .     S
C1874  O2549   1.385   .     S
C1874  C1896   1.396   .     A
C1875  H2140   1.108   .     S
C1875  H2143   1.110   .     S
C1875  H2141   1.109   .     S
C1876  H2145   1.116   .     S
C1876  C1877   1.532   .     S
C1876  H2144   1.109   .     S
C1876  O2632   1.420   .     S
C1877  H2147   1.110   .     S
C1877  H2146   1.107   .     S
C1877  C1878   1.525   .     S
C1878  H2148   1.111   .     S
C1878  H2149   1.109   .     S
C1878  H2150   1.110   .     S
C1879  C1880   1.531   .     S
C1879  O2633   1.418   .     S
C1879  H2152   1.117   .     S
C1879  H2151   1.110   .     S
C1880  H2155   1.110   .     S
C1880  H2154   1.111   .     S
C1880  C1881   1.525   .     S
C1881  H2156   1.110   .     S
C1881  H2158   1.110   .     S
C1881  H2157   1.110   .     S
C1882  H2159   1.116   .     S
C1882  O2634   1.410   .     S
C1882  H2160   1.115   .     S
C1882  C2775   1.523   .     S
C1883  H2161   1.111   .     S
C1883  C1884   1.523   .     S
C1883  C2774   1.523   1_455 S
C1883  H3054   1.110   1_455 S
C1884  H2163   1.109   .     S
C1884  H2165   1.109   .     S
C1884  H2166   1.109   .     S
C1885  C2007   1.401   .     A
C1885  O2550   1.385   .     S
C1885  C2695   1.409   .     S
C1886  O2635   1.419   .     S
C1886  H2167   1.111   .     S
C1886  C1887   1.532   .     S
C1886  H2168   1.117   .     S
C1887  H2169   1.110   .     S
C1887  H2170   1.110   .     S
C1887  C1888   1.525   .     S
C1888  H2172   1.110   .     S
C1888  H2173   1.110   .     S
C1888  H2171   1.111   .     S
C1889  H2174   1.112   .     S
C1889  H2176   1.118   .     S
C1889  C1890   1.528   .     S
C1889  O2636   1.417   .     S
C1890  H2178   1.111   .     S
C1890  H2177   1.110   .     S
C1891  H2180   1.109   .     S
C1891  H2181   1.111   .     S
C1891  C106    1.526   1_565 S
C1891  H395    1.111   1_565 S
C1892  C1893   1.535   .     S
C1892  H2183   1.118   .     S
C1892  O2637   1.420   .     S
C1892  H2182   1.109   .     S
C1893  H2184   1.111   .     S
C1893  H2185   1.108   .     S
C1893  C1894   1.523   .     S
C1894  H2189   1.108   .     S
C1894  H2187   1.110   .     S
C1894  H2188   1.110   .     S
C1895  O2638   1.420   .     S
C1895  H2190   1.109   .     S
C1895  H2191   1.117   .     S
C1895  C1898   1.532   .     S
C1896  O2611   1.385   .     S
C1896  C2025   1.413   .     A
C1897  O2551   1.386   .     S
C1897  C2031   1.400   .     A
C1897  C2696   1.415   .     S
C1898  C1899   1.525   .     S
C1898  H2193   1.111   .     S
C1898  H2192   1.107   .     S
C1899  H2196   1.110   .     S
C1899  H2194   1.109   .     S
C1899  H2195   1.110   .     S
C1900  H2198   1.109   .     S
C1900  O2640   1.419   .     S
C1900  C1901   1.533   .     S
C1900  H2199   1.117   .     S
C1901  H2201   1.110   .     S
C1901  C1902   1.526   .     S
C1901  H2200   1.111   .     S
C1902  H2204   1.110   .     S
C1902  H2202   1.110   .     S
C1902  H2203   1.110   .     S
C1903  H2206   1.119   .     S
C1903  O2641   1.418   .     S
C1903  H2205   1.111   .     S
C1903  C1904   1.527   .     S
C1904  H2210   1.110   .     S
C1904  H2207   1.109   .     S
C1904  C121    1.527   1_565 S
C1905  H2212   1.110   .     S
C1905  H2211   1.111   .     S
C1905  H2213   1.111   .     S
C1906  H2215   1.117   .     S
C1906  C1907   1.532   .     S
C1906  H2214   1.111   .     S
C1906  O2642   1.420   .     S
C1907  H2217   1.109   .     S
C1907  C1909   1.524   .     S
C1907  H2216   1.110   .     S
C1908  O2552   1.384   .     S
C1908  C2042   1.398   .     A
C1908  C17     1.416   1_565 S
C1909  H2219   1.109   .     S
C1909  H2218   1.111   .     S
C1909  H2221   1.108   .     S
C1910  C1911   1.529   .     S
C1910  H2222   1.110   .     S
C1910  O2643   1.420   .     S
C1910  H2223   1.118   .     S
C1911  H2225   1.108   .     S
C1911  C1912   1.526   .     S
C1911  H2224   1.107   .     S
C1912  H2228   1.109   .     S
C1912  H2227   1.110   .     S
C1912  H2226   1.109   .     S
C1913  H2229   1.110   .     S
C1913  C1914   1.531   .     S
C1913  O2644   1.419   .     S
C1913  H2230   1.118   .     S
C1914  C1915   1.525   .     S
C1914  H2232   1.111   .     S
C1914  H2233   1.110   .     S
C1915  H2236   1.110   .     S
C1915  H2234   1.110   .     S
C1915  H2235   1.110   .     S
C1916  H2237   1.110   .     S
C1916  H2238   1.116   .     S
C1916  O2645   1.421   .     S
C1916  C1917   1.536   .     S
C1917  H2240   1.110   .     S
C1917  H2239   1.108   .     S
C1917  C1918   1.526   .     S
C1918  H2241   1.111   .     S
C1918  H2244   1.111   .     S
C1918  H2243   1.109   .     S
C1919  C2053   1.401   .     A
C1919  O2553   1.384   .     S
C1919  C18     1.411   1_565 S
C1920  H2246   1.118   .     S
C1920  O2646   1.418   .     S
C1920  C1921   1.531   .     S
C1920  H2245   1.110   .     S
C1921  H2248   1.111   .     S
C1921  H2247   1.110   .     S
C1921  C1922   1.525   .     S
C1922  H2251   1.110   .     S
C1922  H2249   1.110   .     S
C1922  H2250   1.110   .     S
C1923  C1924   1.523   .     S
C1923  O2647   1.411   .     S
C1923  H2254   1.115   .     S
C1923  H2252   1.116   .     S
C1924  C1925   1.524   .     S
C1924  H2256   1.110   .     S
C1924  H2255   1.110   .     S
C1925  H2259   1.109   .     S
C1925  H2258   1.108   .     S
C1925  H2257   1.109   .     S
C1926  H2261   1.118   .     S
C1926  C1927   1.539   .     S
C1926  H2260   1.110   .     S
C1926  O2648   1.420   .     S
C1927  C1928   1.528   .     S
C1927  H2262   1.112   .     S
C1927  H2263   1.111   .     S
C1928  H2265   1.108   .     S
C1928  H2267   1.110   .     S
C1928  H2266   1.110   .     S
C1929  H2269   1.117   .     S
C1929  O2649   1.419   .     S
C1929  H2268   1.111   .     S
C1929  C1931   1.528   .     S
C1930  C2064   1.398   .     A
C1930  O2554   1.384   .     S
C1931  H2270   1.107   .     S
C1931  C1932   1.526   .     S
C1931  H2271   1.108   .     S
C1932  H2274   1.109   .     S
C1932  H2273   1.110   .     S
C1932  H2272   1.110   .     S
C1933  H2277   1.118   .     S
C1933  H2276   1.110   .     S
C1933  C1934   1.529   .     S
C1933  O2651   1.418   .     S
C1934  H2278   1.110   .     S
C1934  C1935   1.525   .     S
C1934  H2279   1.111   .     S
C1935  H2281   1.110   .     S
C1935  H2282   1.111   .     S
C1935  H2280   1.111   .     S
C1936  H2283   1.111   .     S
C1936  O2652   1.417   .     S
C1936  C1937   1.531   .     S
C1936  H2284   1.116   .     S
C1937  H2285   1.110   .     S
C1937  H2287   1.111   .     S
C1937  C1938   1.527   .     S
C1938  H2288   1.111   .     S
C1938  H2289   1.109   .     S
C1938  H2290   1.111   .     S
C1939  H2292   1.118   .     S
C1939  C1940   1.531   .     S
C1939  H2291   1.109   .     S
C1939  O2653   1.419   .     S
C1940  C1942   1.525   .     S
C1940  H2294   1.110   .     S
C1940  H2293   1.111   .     S
C1941  C2075   1.398   .     A
C1941  O2555   1.384   .     S
C1942  H2295   1.111   .     S
C1942  H2296   1.109   .     S
C1942  H2298   1.109   .     S
C1943  O2654   1.417   .     S
C1943  C1944   1.527   .     S
C1943  H2299   1.111   .     S
C1943  H2300   1.119   .     S
C1944  H2301   1.109   .     S
C1944  H2302   1.110   .     S
C1944  C1945   1.526   .     S
C1945  H2303   1.110   .     S
C1945  H2304   1.110   .     S
C1945  H2305   1.111   .     S
C1946  C1947   1.536   .     S
C1946  H2306   1.111   .     S
C1946  H2307   1.117   .     S
C1946  O2655   1.421   .     S
C1947  H2310   1.109   .     S
C1947  C1948   1.524   .     S
C1947  H2309   1.110   .     S
C1948  H2311   1.110   .     S
C1948  H2312   1.111   .     S
C1948  H2313   1.108   .     S
C1949  H2315   1.118   .     S
C1949  O2656   1.419   .     S
C1949  C1950   1.529   .     S
C1949  H2314   1.110   .     S
C1950  H2316   1.107   .     S
C1950  H2317   1.108   .     S
C1950  C1951   1.525   .     S
C1951  H2321   1.110   .     S
C1951  H2318   1.108   .     S
C1951  H2322   1.109   .     S
C1952  O2556   1.384   .     S
C1952  C2086   1.395   .     A
C1953  O2657   1.419   .     S
C1953  H2324   1.118   .     S
C1953  C1954   1.532   .     S
C1953  H2323   1.110   .     S
C1954  C1955   1.526   .     S
C1954  H2325   1.111   .     S
C1954  H2326   1.109   .     S
C1955  H2328   1.110   .     S
C1955  H2329   1.110   .     S
C1955  H2327   1.110   .     S
C1956  O2658   1.417   .     S
C1956  H2330   1.111   .     S
C1956  H2332   1.117   .     S
C1956  C1957   1.530   .     S
C1957  H2333   1.109   .     S
C1957  C1958   1.526   .     S
C1957  H2334   1.111   .     S
C1958  H2337   1.111   .     S
C1958  H2336   1.109   .     S
C1958  H2335   1.111   .     S
C1959  H2339   1.118   .     S
C1959  C1960   1.540   .     S
C1959  O2659   1.421   .     S
C1959  H2338   1.111   .     S
C1960  H2341   1.111   .     S
C1960  H2340   1.112   .     S
C1960  C1961   1.529   .     S
C1961  H2343   1.108   .     S
C1961  H2345   1.111   .     S
C1961  H2344   1.110   .     S
C1962  O2660   1.421   .     S
C1962  C1964   1.535   .     S
C1962  H2346   1.107   .     S
C1962  H2347   1.117   .     S
C1963  O2558   1.384   .     S
C1963  C2698   1.411   1_455 S
C1964  H2348   1.107   .     S
C1964  H2349   1.111   .     S
C1964  C1965   1.524   .     S
C1965  H2351   1.110   .     S
C1965  H2352   1.111   .     S
C1965  H2350   1.109   .     S
C1966  H2355   1.118   .     S
C1966  C1967   1.531   .     S
C1966  H2354   1.110   .     S
C1966  O2547   1.419   .     S
C1967  H2356   1.111   .     S
C1967  H2357   1.110   .     S
C1967  C1968   1.525   .     S
C1968  H2359   1.110   .     S
C1968  H2360   1.110   .     S
C1968  H2358   1.111   .     S
C1969  H2361   1.110   .     S
C1969  C1970   1.531   .     S
C1969  H2362   1.117   .     S
C1969  O764    1.422   1_565 S
C1970  C1971   1.527   .     S
C1970  H579    1.110   1_565 S
C1970  H581    1.110   1_565 S
C1971  H2368   1.110   .     S
C1971  H2366   1.110   .     S
C1971  H2367   1.110   .     S
C1972  O2549   1.419   .     S
C1972  C1973   1.527   .     S
C1973  H2372   1.111   .     S
C1973  C1975   1.525   .     S
C1973  H2371   1.108   .     S
C1974  O2559   1.384   .     S
C1974  C23     1.410   1_565 S
C1975  H2374   1.110   .     S
C1976  O2550   1.415   .     S
C1976  H2378   1.112   .     S
C1976  C1977   1.527   .     S
C1976  H3269   1.116   .     S
C1977  C1978   1.526   .     S
C1977  H2380   1.111   .     S
C1977  H2379   1.112   .     S
C1978  H2381   1.111   .     S
C1978  H2382   1.108   .     S
C1978  H3275   1.106   .     S
C1979  H2384   1.111   .     S
C1979  C1980   1.531   .     S
C1979  H2385   1.118   .     S
C1979  O3443   1.420   1_455 S
C1980  H2388   1.110   .     S
C1980  H2387   1.110   .     S
C1980  C1981   1.526   .     S
C1981  H2389   1.111   .     S
C1981  H2391   1.109   .     S
C1981  H2390   1.110   .     S
C1982  H2392   1.112   .     S
C1982  H2393   1.119   .     S
C1982  C1983   1.529   .     S
C1983  H2394   1.108   .     S
C1983  H2395   1.111   .     S
C1983  C1984   1.526   .     S
C1984  H2396   1.108   .     S
C1984  H2399   1.108   .     S
C1984  H2398   1.110   .     S
C1985  O2560   1.385   .     S
C1986  C1987   1.527   .     S
C1986  O2553   1.417   .     S
C1986  H616    1.112   1_565 S
C1986  H617    1.117   1_565 S
C1987  H2402   1.109   .     S
C1987  H2403   1.112   .     S
C1987  C1988   1.525   .     S
C1988  H2405   1.109   .     S
C1988  H620    1.111   1_565 S
C1988  H622    1.110   1_565 S
C1989  O2554   1.419   .     S
C1989  C1990   1.527   .     S
C1989  H3299   1.112   1_455 S
C1989  H3301   1.118   1_455 S
C1990  C1991   1.526   .     S
C1990  H2411   1.112   .     S
C1990  H2410   1.108   .     S
C1991  H2413   1.109   .     S
C1991  H3304   1.111   1_455 S
C1991  H3306   1.111   1_455 S
C1992  H2415   1.110   .     S
C1992  C1993   1.530   .     S
C1992  H2416   1.119   .     S
C1992  O3447   1.421   .     S
C1993  H2418   1.109   .     S
C1993  C1994   1.527   .     S
C1993  H2417   1.110   .     S
C1994  H2422   1.109   .     S
C1994  H2420   1.111   .     S
C1994  H2421   1.110   .     S
C1995  H2424   1.120   .     S
C1995  O2556   1.420   .     S
C1995  H2423   1.110   .     S
C1995  C1997   1.529   .     S
C1996  O2561   1.385   .     S
C1996  C2697   1.412   1_455 S
C1997  C1998   1.526   .     S
C1997  H2426   1.110   .     S
C1997  H2425   1.111   .     S
C1998  H2427   1.109   .     S
C1998  H2428   1.110   .     S
C1998  H2429   1.107   .     S
C1999  H2433   1.118   .     S
C1999  O2558   1.418   .     S
C1999  C2000   1.528   .     S
C1999  H2432   1.111   .     S
C2000  H2434   1.109   .     S
C2000  C2001   1.526   .     S
C2000  H2435   1.111   .     S
C2001  H2438   1.110   .     S
C2001  H2437   1.110   .     S
C2001  H2436   1.111   .     S
C2002  O2559   1.419   .     S
C2002  H2440   1.117   .     S
C2002  H2439   1.111   .     S
C2002  C2003   1.528   .     S
C2003  H2441   1.109   .     S
C2003  H2443   1.111   .     S
C2003  C2004   1.527   .     S
C2004  H2444   1.111   .     S
C2004  H2446   1.111   .     S
C2004  H2445   1.109   .     S
C2005  O2560   1.421   .     S
C2005  C2006   1.531   .     S
C2005  H2448   1.118   .     S
C2005  H2447   1.111   .     S
C2006  H2450   1.110   .     S
C2006  H2449   1.109   .     S
C2006  C2009   1.527   .     S
C2007  C2026   1.417   .     A
C2007  O2612   1.390   .     S
C2008  O2562   1.385   .     S
C2009  H2452   1.110   .     S
C2009  H2454   1.109   .     S
C2009  H2451   1.111   .     S
C2010  H2455   1.110   .     S
C2010  C2011   1.531   .     S
C2010  H2456   1.118   .     S
C2010  O2561   1.422   .     S
C2011  H2457   1.110   .     S
C2011  H2458   1.110   .     S
C2011  C2012   1.528   .     S
C2012  H2459   1.110   .     S
C2012  H2461   1.110   .     S
C2012  H2460   1.110   .     S
C2013  H2463   1.117   .     S
C2013  O2562   1.418   .     S
C2013  C2014   1.527   .     S
C2013  H2462   1.112   .     S
C2014  H2466   1.110   .     S
C2014  H2465   1.108   .     S
C2014  C2015   1.524   .     S
C2015  H2467   1.111   .     S
C2015  H2469   1.109   .     S
C2015  H2468   1.109   .     S
C2016  H2470   1.112   .     S
C2016  C2017   1.527   .     S
C2016  H2471   1.118   .     S
C2016  O2563   1.418   .     S
C2017  C2018   1.526   .     S
C2017  H2472   1.107   .     S
C2017  H2473   1.112   .     S
C2018  H2476   1.110   .     S
C2018  H2474   1.111   .     S
C2018  H2477   1.110   .     S
C2019  O2563   1.384   .     S
C2020  O2564   1.417   .     S
C2020  H2478   1.105   .     S
C2020  C2021   1.535   .     S
C2020  H2479   1.117   .     S
C2021  H2481   1.108   .     S
C2021  H2480   1.109   .     S
C2021  C2022   1.523   .     S
C2022  H2483   1.110   .     S
C2022  H2484   1.109   .     S
C2022  H2482   1.108   .     S
C2023  O2564   1.384   .     S
C2024  C2025   1.475   1_554 S
C2025  C2024   1.475   1_556 S
C2026  C2027   1.475   1_554 S
C2026  C2956   1.416   .     S
C2027  C2031   1.412   .     A
C2027  C2026   1.475   1_556 S
C2027  C2967   1.410   .     S
C2028  C2029   1.475   .     S
C2028  C2086   1.412   .     A
C2028  C2711   1.412   .     S
C2029  C2678   1.416   .     S
C2030  C2032   1.475   .     S
C2031  O2613   1.386   .     S
C2033  O2650   1.286   .     S
C2034  O2617   1.281   .     A
C2035  O2557   1.284   .     A
C2035  O3520   1.287   .     S
C2036  O2639   1.285   .     A
C2036  O3457   1.289   .     S
C2037  C2696   1.477   .     S
C2037  O3458   1.286   .     S
C2037  O3462   1.282   .     S
C2038  O2571   1.284   .     A
C2038  O2567   1.281   .     A
C2039  O2568   1.284   .     S
C2039  O2572   1.285   .     S
C2040  O2569   1.289   .     A
C2040  O2574   1.285   .     A
C2041  C2096   1.465   .     S
C2041  O2575   1.283   .     A
C2041  O2603   1.284   .     A
C2042  O2614   1.388   .     S
C2042  C240    1.413   1_565 S
C2043  O2576   1.281   .     A
C2043  O2604   1.281   .     A
C2044  O2577   1.278   .     A
C2044  O2601   1.281   .     A
C2045  O2578   1.282   .     A
C2045  O2602   1.283   .     A
C2046  O2608   1.283   .     A
C2046  O2579   1.283   .     A
C2047  O2609   1.278   .     A
C2047  O2580   1.282   .     A
C2048  O2581   1.282   .     A
C2048  O2605   1.279   .     A
C2048  C2094   1.451   .     S
C2049  O2607   1.286   .     A
C2049  C2095   1.463   .     S
C2049  O2582   1.283   .     A
C2050  O2594   1.280   .     A
C2050  O2583   1.279   .     A
C2051  O2585   1.283   .     A
C2051  O2596   1.282   .     A
C2052  O2586   1.282   .     A
C2052  O2592   1.284   .     A
C2053  O2615   1.390   .     S
C2053  C241    1.416   1_565 S
C2054  O2587   1.278   .     A
C2054  O2593   1.282   .     A
C2055  O2599   1.279   .     A
C2055  O2588   1.282   .     A
C2056  O2600   1.284   .     A
C2056  O2589   1.284   .     A
C2057  O2597   1.283   .     A
C2057  O2590   1.283   .     A
C2058  O2598   1.281   .     A
C2058  O2591   1.279   .     A
C2059  C2076   1.392   .     A
C2059  O2627   1.385   .     S
C2060  O2629   1.384   .     S
C2060  C2074   1.392   .     A
C2061  O2630   1.387   .     S
C2061  C2073   1.389   .     A
C2062  C2072   1.389   .     A
C2062  O2631   1.386   .     S
C2063  O2632   1.383   .     S
C2063  C2071   1.388   .     A
C2064  O2616   1.389   .     S
C2064  C2918   1.416   1_455 S
C2065  C2070   1.389   .     A
C2065  O2633   1.385   .     S
C2066  O2634   1.382   .     S
C2066  C2069   1.390   .     A
C2067  C2068   1.389   .     A
C2067  O2635   1.386   .     S
C2068  O2636   1.386   .     S
C2069  O2637   1.385   .     S
C2070  O2638   1.384   .     S
C2071  O2640   1.385   .     S
C2072  O2641   1.384   .     S
C2073  C2096   1.416   .     A
C2073  O2642   1.386   .     S
C2074  C2095   1.416   .     A
C2074  O2643   1.385   .     S
C2075  O2618   1.385   .     S
C2075  C2919   1.410   1_455 S
C2076  O2644   1.384   .     S
C2076  C2094   1.406   .     A
C2077  C2093   1.388   .     A
C2077  C2095   1.415   .     A
C2077  O2645   1.384   .     S
C2078  C2092   1.389   .     A
C2078  C2094   1.403   .     A
C2078  O2646   1.385   .     S
C2079  C2091   1.389   .     A
C2079  O2647   1.382   .     S
C2080  O2648   1.386   .     S
C2080  C2096   1.416   .     A
C2080  C2090   1.389   .     A
C2081  C2089   1.392   .     A
C2081  O2649   1.386   .     S
C2082  O2651   1.383   .     S
C2082  C2088   1.392   .     A
C2083  C2087   1.390   .     A
C2083  O2652   1.387   .     S
C2084  C2085   1.390   .     A
C2084  O2653   1.385   .     S
C2085  O2654   1.384   .     S
C2086  O2619   1.387   .     S
C2087  O2655   1.386   .     S
C2088  O2656   1.385   .     S
C2089  O2657   1.384   .     S
C2090  O2658   1.386   .     S
C2091  O2659   1.386   .     S
C2092  O2660   1.383   .     S
C2093  O2547   1.384   .     S
H2097  C1810   1.111   1_556 S
H2098  C1814   1.109   1_554 S
H2102  C74     1.111   1_565 S
H2120  C1815   1.110   1_556 S
H2135  C2763   1.111   .     S
H2153  C1816   1.110   1_556 S
H2162  C2775   1.110   .     S
H2164  C1816   1.107   1_556 S
H2208  C1810   1.108   1_556 S
H2231  C1820   1.111   1_554 S
H2242  C1820   1.109   1_554 S
H2308  C1823   1.111   1_556 S
H2369  C188    1.111   1_565 S
H2370  C188    1.117   1_565 S
H2373  C191    1.111   1_565 S
H2375  C1825   1.110   1_556 S
H2376  C191    1.110   1_565 S
H2377  C2868   1.116   1_455 S
H2383  C2870   1.106   1_455 S
H2386  C1826   1.109   1_554 S
H2397  C1826   1.106   1_554 S
H2407  C2881   1.112   .     S
H2409  C2881   1.118   .     S
H2412  C2883   1.111   .     S
H2414  C2883   1.111   .     S
H2431  C1828   1.110   1_554 S
H2464  C1829   1.111   1_556 S
H2475  C1829   1.108   1_556 S
H2491  C1833   1.111   1_554 S
H2493  C1834   1.111   1_554 S
H2495  C1835   1.110   1_556 S
H2523  C1813   1.111   1_554 S
O2545  Zn2664  1.947   .     S
O2545  Zn2661  1.953   .     S
O2545  Zn2672  1.951   .     S
O2546  Zn2663  1.949   .     S
O2546  C250    1.282   1_565 S
O2551  C2871   1.420   .     S
O2552  C198    1.421   1_565 S
O2555  C2884   1.421   1_455 S
O2557  Zn2666  1.949   .     S
O2565  Zn2665  1.949   .     S
O2565  C2928   1.289   1_455 S
O2566  Zn2675  1.948   .     S
O2566  C2929   1.286   1_455 S
O2567  Zn2674  1.948   .     S
O2568  Zn2669  1.948   .     S
O2569  Zn2661  1.948   .     S
O2570  Zn2671  1.949   .     S
O2570  C2929   1.282   1_455 S
O2571  Zn2670  1.949   .     S
O2572  Zn2673  1.949   .     S
O2573  Zn2673  1.951   .     S
O2573  Zn2669  1.953   .     S
O2573  Zn2667  1.949   .     S
O2574  Zn2672  1.949   .     S
O2575  Zn2664  1.942   .     S
O2576  Zn2663  1.942   .     S
O2577  Zn2666  1.935   .     S
O2578  Zn2665  1.935   .     S
O2579  Zn2668  1.941   .     S
O2580  Zn2667  1.941   .     S
O2581  Zn2662  1.935   .     S
O2582  Zn2676  1.935   .     S
O2583  Zn2663  1.937   .     S
O2584  Zn3558  1.951   1_455 S
O2584  Zn2662  1.953   .     S
O2584  Zn2670  1.947   .     S
O2584  Zn2674  1.949   .     S
O2585  Zn2664  1.937   .     S
O2586  Zn2676  1.939   .     S
O2587  Zn2662  1.939   .     S
O2588  Zn2667  1.938   .     S
O2589  Zn2668  1.938   .     S
O2590  Zn2665  1.940   .     S
O2591  Zn2666  1.940   .     S
O2592  Zn3563  1.942   .     S
O2593  Zn2670  1.942   .     S
O2594  Zn889   1.935   1_565 S
O2595  Zn2675  1.949   .     S
O2595  Zn2671  1.947   .     S
O2595  Zn2665  1.951   .     S
O2595  Zn3568  1.953   1_455 S
O2596  Zn2672  1.935   .     S
O2597  Zn2675  1.941   .     S
O2598  Zn3566  1.941   .     S
O2599  Zn2669  1.935   .     S
O2600  Zn877   1.935   1_565 S
O2601  Zn3562  1.937   .     S
O2602  Zn2671  1.937   .     S
O2603  Zn2661  1.939   .     S
O2604  Zn885   1.939   1_565 S
O2605  Zn2674  1.938   .     S
O2606  Zn2668  1.948   .     S
O2606  C249    1.284   1_565 A
O2607  Zn3567  1.938   .     S
O2608  Zn888   1.940   1_565 S
O2609  Zn2673  1.940   .     S
O2617  Zn2667  1.948   .     S
O2628  Zn2662  1.948   .     S
O2628  C2927   1.287   1_455 S
O2639  Zn2676  1.948   .     S
O2650  Zn2664  1.949   .     S
Zn2663 O789    1.947   1_565 S
Zn2666 O3476   1.951   .     S
Zn2668 O761    1.949   1_565 S
Zn2670 O3493   1.937   1_455 S
Zn2671 O3484   1.942   1_455 S
Zn2674 O3490   1.941   1_455 S
Zn2675 O3499   1.938   1_455 S
Zn2676 O3487   1.953   .     S
C2677  C2916   1.412   .     A
C2677  C2755   1.400   .     A
C2677  O3502   1.388   .     S
C2678  O3512   1.389   .     S
C2678  C2855   1.402   .     A
C2679  C2964   1.408   .     A
C2679  C2935   1.456   .     S
C2679  C2971   1.406   .     A
C2680  C2936   1.451   .     S
C2680  C2974   1.407   .     A
C2680  C2963   1.404   .     A
C2681  C2962   1.415   .     A
C2681  C2937   1.461   .     S
C2681  C2973   1.415   .     A
C2682  C2961   1.414   .     A
C2682  C2938   1.464   .     S
C2682  C2976   1.416   .     A
C2683  C2960   1.412   .     A
C2683  C2939   1.455   .     S
C2683  C2975   1.409   .     A
C2684  C2959   1.416   .     A
C2684  C2949   1.465   .     S
C2684  C2979   1.416   .     A
C2685  C2958   1.404   .     A
C2685  C2950   1.454   .     S
C2685  C2977   1.408   .     A
C2686  C2942   1.451   .     S
C2686  C2981   1.406   .     A
C2686  C2957   1.405   .     A
C2687  C2980   1.414   .     A
C2687  C2955   1.413   .     A
C2687  C2943   1.461   .     S
C2688  C2944   1.463   .     S
C2688  C2983   1.416   .     A
C2688  C2954   1.417   .     A
C2689  O3513   1.389   .     S
C2689  C2866   1.399   .     A
C2689  C1138   1.417   1_565 S
C2690  C2953   1.410   .     A
C2690  C2946   1.455   .     S
C2690  C2982   1.412   .     A
C2691  C2985   1.403   .     A
C2691  C2952   1.407   .     A
C2691  C2947   1.451   .     S
C2692  C2984   1.414   .     A
C2692  C2951   1.415   .     A
C2692  C2948   1.462   .     S
C2693  C2932   1.479   .     S
C2693  C2755   1.414   .     A
C2694  C2766   1.410   .     A
C2694  C2931   1.470   .     S
C2695  C2822   1.410   .     A
C2695  C2930   1.470   .     S
C2696  C2833   1.412   .     A
C2697  C2844   1.415   .     A
C2697  C2928   1.477   .     S
C2697  C1996   1.412   1_655 S
C2698  C2900   1.410   .     A
C2698  C2927   1.472   .     S
C2698  C1963   1.411   1_655 S
C2699  C2911   1.409   .     A
C2699  C2926   1.469   .     S
C2700  C2877   1.400   .     A
C2700  O3514   1.386   .     S
C2700  C2924   1.411   .     S
C2701  C1141   1.480   1_565 S
C2701  C2915   1.417   .     A
C2701  C1093   1.414   1_565 S
C2702  O3502   1.418   .     S
C2702  C2703   1.538   .     S
C2702  H2989   1.111   1_554 S
C2702  H3100   1.108   1_554 S
C2703  H3211   1.107   .     S
C2703  H3322   1.111   .     S
C2703  C2704   1.526   .     S
C2704  H3404   1.110   .     S
C2704  H3382   1.111   .     S
C2704  H3393   1.110   .     S
C2705  C2706   1.527   .     S
C2705  O3503   1.411   .     S
C2705  H3426   1.116   .     S
C2705  H3415   1.111   1_556 S
C2706  H3001   1.111   .     S
C2706  C2707   1.525   1_556 S
C2706  H2990   1.109   1_556 S
C2707  H3023   1.110   .     S
C2707  H3034   1.111   .     S
C2707  C2706   1.525   1_554 S
C2707  H3012   1.110   1_554 S
C2708  O3504   1.414   .     S
C2708  C2709   1.531   .     S
C2708  H3045   1.110   1_554 S
C2708  H3056   1.107   1_554 S
C2709  H3067   1.111   .     S
C2709  H3078   1.111   .     S
C2709  C2710   1.526   .     S
C2710  H3101   1.110   .     S
C2710  H3089   1.110   .     S
C2710  H3112   1.110   .     S
C2711  C2888   1.400   .     A
C2711  O3515   1.387   .     S
C2712  C2713   1.536   .     S
C2712  O3505   1.412   .     S
C2712  H3123   1.111   1_556 S
C2712  H3134   1.109   1_556 S
C2713  C2714   1.524   .     S
C2713  H3145   1.111   .     S
C2713  H3156   1.111   .     S
C2714  H3178   1.110   .     S
C2714  H3167   1.110   .     S
C2714  H3189   1.111   .     S
C2715  O3506   1.416   .     S
C2715  H3212   1.110   .     S
C2715  C2716   1.528   .     S
C2715  H3200   1.111   1_554 S
C2716  H3234   1.111   .     S
C2716  C2717   1.526   .     S
C2716  H3223   1.111   .     S
C2717  H3256   1.110   .     S
C2717  H3245   1.110   .     S
C2717  H3267   1.110   1_554 S
C2718  O3507   1.415   .     S
C2718  C2719   1.535   .     S
C2718  H3278   1.109   1_556 S
C2718  H3289   1.106   1_556 S
C2719  H3311   1.111   .     S
C2719  H3300   1.111   .     S
C2719  C2720   1.527   .     S
C2720  H3345   1.111   .     S
C2720  H3334   1.109   .     S
C2720  H3323   1.110   1_556 S
C2721  C2723   1.531   .     S
C2721  O3508   1.414   .     S
C2721  H3356   1.111   1_554 S
C2721  H3367   1.108   1_554 S
C2722  C2900   1.397   .     A
C2722  O3516   1.385   .     S
C2722  C2921   1.411   .     A
C2723  C2724   1.527   .     S
C2723  H3377   1.111   .     S
C2723  H3378   1.111   .     S
C2724  H3381   1.111   .     S
C2724  H3379   1.111   .     S
C2724  H3380   1.110   .     S
C2725  O3510   1.411   .     S
C2725  C2726   1.529   .     S
C2725  H3384   1.116   .     S
C2725  H3383   1.111   1_556 S
C2726  H3386   1.111   .     S
C2726  C2727   1.526   1_556 S
C2726  H3385   1.111   1_556 S
C2727  H3388   1.110   .     S
C2727  H3389   1.111   .     S
C2727  C2726   1.526   1_554 S
C2727  H3387   1.110   1_554 S
C2728  C2729   1.536   .     S
C2728  O3511   1.415   .     S
C2728  H3390   1.111   .     S
C2728  H3391   1.110   .     S
C2729  C2730   1.526   .     S
C2729  H3392   1.111   .     S
C2729  H3394   1.109   .     S
C2730  H3395   1.109   .     S
C2730  H3397   1.109   .     S
C2730  H3396   1.110   .     S
C2731  O3512   1.415   .     S
C2731  H3398   1.109   .     S
C2731  C2732   1.535   .     S
C2731  H3399   1.107   .     S
C2732  H3400   1.110   .     S
C2732  H3401   1.111   .     S
C2732  C2734   1.526   .     S
C2733  C2922   1.415   .     A
C2733  C2911   1.398   .     A
C2733  O3517   1.389   .     S
C2734  H3405   1.111   .     S
C2734  H3402   1.109   .     S
C2734  H3403   1.109   .     S
C2735  O3513   1.415   .     S
C2735  H3406   1.110   .     S
C2735  C2736   1.533   .     S
C2735  H3407   1.107   .     S
C2736  H3409   1.111   .     S
C2736  C2737   1.526   .     S
C2736  H3408   1.110   .     S
C2737  H3412   1.111   .     S
C2737  H3411   1.110   .     S
C2737  H1626   1.110   1_565 S
C2738  H3414   1.110   .     S
C2738  O3514   1.413   .     S
C2738  C2739   1.535   .     S
C2738  H3413   1.111   .     S
C2739  C2740   1.525   .     S
C2739  H3417   1.111   .     S
C2739  H3416   1.111   .     S
C2740  H3418   1.110   .     S
C2740  H3420   1.111   .     S
C2740  H3419   1.110   .     S
C2741  H3422   1.108   .     S
C2741  O3515   1.417   .     S
C2741  H3421   1.111   .     S
C2741  C2742   1.537   .     S
C2742  H3423   1.109   .     S
C2742  C2743   1.525   .     S
C2742  H3424   1.111   .     S
C2743  H3428   1.109   .     S
C2743  H3427   1.110   .     S
C2743  H3425   1.111   .     S
C2744  O3518   1.383   .     S
C2744  C1140   1.407   1_565 A
C2744  C2915   1.397   .     A
C2745  O3516   1.412   .     S
C2745  C2746   1.528   .     S
C2745  H3429   1.112   .     S
C2745  H3430   1.117   .     S
C2746  C2747   1.525   .     S
C2746  H3431   1.109   .     S
C2746  H3432   1.110   .     S
C2747  H3434   1.110   .     S
C2747  H3435   1.111   .     S
C2747  H3433   1.111   .     S
C2748  O3517   1.415   .     S
C2748  C2749   1.532   .     S
C2748  H2991   1.109   .     S
C2748  H3436   1.110   .     S
C2749  H2993   1.111   .     S
C2749  H2992   1.111   .     S
C2749  C2750   1.527   .     S
C2750  H2996   1.111   .     S
C2750  H2995   1.110   .     S
C2751  H2998   1.116   .     S
C2751  C2752   1.527   .     S
C2751  O3518   1.409   .     S
C2751  H2997   1.112   .     S
C2752  H3000   1.110   .     S
C2752  C2753   1.522   .     S
C2752  H2999   1.110   .     S
C2753  H3002   1.111   .     S
C2753  H3003   1.110   .     S
C2753  H3004   1.111   .     S
C2754  O3519   1.419   .     S
C2754  H3006   1.117   .     S
C2754  C2756   1.528   .     S
C2754  H3005   1.111   .     S
C2755  O3440   1.385   .     S
C2756  H3007   1.106   .     S
C2756  H3008   1.108   .     S
C2756  C2757   1.525   .     S
C2757  H3010   1.110   .     S
C2757  H3009   1.110   .     S
C2757  H1227   1.108   1_565 S
C2758  O3521   1.419   .     S
C2758  H3013   1.111   .     S
C2758  C2759   1.528   .     S
C2758  H3014   1.119   .     S
C2759  H3016   1.111   .     S
C2759  C2760   1.525   .     S
C2759  H3015   1.109   .     S
C2760  H3019   1.111   .     S
C2760  H3018   1.110   .     S
C2760  H3017   1.111   .     S
C2761  C2762   1.532   .     S
C2761  O3522   1.417   .     S
C2761  H3020   1.111   .     S
C2761  H3021   1.115   .     S
C2762  H3024   1.111   .     S
C2762  H3022   1.110   .     S
C2762  C2763   1.527   .     S
C2763  H3025   1.111   .     S
C2763  H3026   1.109   .     S
C2764  H3028   1.110   .     S
C2764  C2765   1.538   .     S
C2764  H3029   1.118   .     S
C2764  O3523   1.421   .     S
C2765  H3030   1.112   .     S
C2765  C2767   1.529   .     S
C2765  H3031   1.111   .     S
C2766  O3441   1.385   .     S
C2766  C2788   1.396   .     A
C2767  H3032   1.108   .     S
C2767  H3035   1.110   .     S
C2767  H3033   1.109   .     S
C2768  H3037   1.116   .     S
C2768  C2769   1.532   .     S
C2768  H3036   1.109   .     S
C2768  O3524   1.420   .     S
C2769  H3039   1.110   .     S
C2769  H3038   1.107   .     S
C2769  C2770   1.525   .     S
C2770  H3040   1.111   .     S
C2770  H3041   1.109   .     S
C2770  H3042   1.110   .     S
C2771  C2772   1.531   .     S
C2771  O3525   1.418   .     S
C2771  H3044   1.117   .     S
C2771  H3043   1.110   .     S
C2772  H3047   1.110   .     S
C2772  H3046   1.111   .     S
C2772  C2773   1.525   .     S
C2773  H3048   1.110   .     S
C2773  H3050   1.110   .     S
C2773  H3049   1.110   .     S
C2774  H3051   1.116   .     S
C2774  O3526   1.410   .     S
C2774  H3052   1.115   .     S
C2774  C1883   1.523   1_655 S
C2775  H3053   1.111   .     S
C2775  C2776   1.523   .     S
C2776  H3055   1.109   .     S
C2776  H3057   1.109   .     S
C2776  H3058   1.109   .     S
C2777  C2899   1.401   .     A
C2777  O3442   1.385   .     S
C2777  C1803   1.409   1_655 S
C2778  O3527   1.419   .     S
C2778  H3059   1.111   .     S
C2778  C2779   1.532   .     S
C2778  H3060   1.117   .     S
C2779  H3061   1.110   .     S
C2779  H3062   1.110   .     S
C2779  C2780   1.525   .     S
C2780  H3064   1.110   .     S
C2780  H3065   1.110   .     S
C2780  H3063   1.111   .     S
C2781  H3066   1.112   .     S
C2781  H3068   1.118   .     S
C2781  C2782   1.528   .     S
C2781  O3528   1.417   .     S
C2782  H3070   1.111   .     S
C2782  H3069   1.110   .     S
C2783  H3072   1.109   .     S
C2783  H3073   1.111   .     S
C2783  C998    1.526   1_565 S
C2783  H1287   1.111   1_565 S
C2784  C2785   1.535   .     S
C2784  H3075   1.118   .     S
C2784  O3529   1.420   .     S
C2784  H3074   1.109   .     S
C2785  H3076   1.111   .     S
C2785  H3077   1.108   .     S
C2785  C2786   1.523   .     S
C2786  H3081   1.108   .     S
C2786  H3079   1.110   .     S
C2786  H3080   1.110   .     S
C2787  O3530   1.420   .     S
C2787  H3082   1.109   .     S
C2787  H3083   1.117   .     S
C2787  C2790   1.532   .     S
C2788  O3503   1.385   .     S
C2788  C2917   1.413   .     A
C2789  O3443   1.386   .     S
C2789  C2923   1.400   .     A
C2789  C1804   1.415   1_655 S
C2790  C2791   1.525   .     S
C2790  H3085   1.111   .     S
C2790  H3084   1.107   .     S
C2791  H3088   1.110   .     S
C2791  H3086   1.109   .     S
C2791  H3087   1.110   .     S
C2792  H3090   1.109   .     S
C2792  O3532   1.419   .     S
C2792  C2793   1.533   .     S
C2792  H3091   1.117   .     S
C2793  H3093   1.110   .     S
C2793  C2794   1.526   .     S
C2793  H3092   1.111   .     S
C2794  H3096   1.110   .     S
C2794  H3094   1.110   .     S
C2794  H3095   1.110   .     S
C2795  H3098   1.119   .     S
C2795  O3533   1.418   .     S
C2795  H3097   1.111   .     S
C2795  C2796   1.527   .     S
C2796  H3102   1.110   .     S
C2796  H3099   1.109   .     S
C2796  C1013   1.527   1_565 S
C2797  H3104   1.110   .     S
C2797  H3103   1.111   .     S
C2797  H3105   1.111   .     S
C2798  H3107   1.117   .     S
C2798  C2799   1.532   .     S
C2798  H3106   1.111   .     S
C2798  O3534   1.420   .     S
C2799  H3109   1.109   .     S
C2799  C2801   1.524   .     S
C2799  H3108   1.110   .     S
C2800  O3444   1.384   .     S
C2800  C2934   1.398   .     A
C2800  C909    1.416   1_565 S
C2801  H3111   1.109   .     S
C2801  H3110   1.111   .     S
C2801  H3113   1.108   .     S
C2802  C2803   1.529   .     S
C2802  H3114   1.110   .     S
C2802  O3535   1.420   .     S
C2802  H3115   1.118   .     S
C2803  H3117   1.108   .     S
C2803  C2804   1.526   .     S
C2803  H3116   1.107   .     S
C2804  H3120   1.109   .     S
C2804  H3119   1.110   .     S
C2804  H3118   1.109   .     S
C2805  H3121   1.110   .     S
C2805  C2806   1.531   .     S
C2805  O3536   1.419   .     S
C2805  H3122   1.118   .     S
C2806  C2807   1.525   .     S
C2806  H3124   1.111   .     S
C2806  H3125   1.110   .     S
C2807  H3128   1.110   .     S
C2807  H3126   1.110   .     S
C2807  H3127   1.110   .     S
C2808  H3129   1.110   .     S
C2808  H3130   1.116   .     S
C2808  O3537   1.421   .     S
C2808  C2809   1.536   .     S
C2809  H3132   1.110   .     S
C2809  H3131   1.108   .     S
C2809  C2810   1.526   .     S
C2810  H3133   1.111   .     S
C2810  H3136   1.111   .     S
C2810  H3135   1.109   .     S
C2811  C2945   1.401   .     A
C2811  O3445   1.384   .     S
C2811  C910    1.411   1_565 S
C2812  H3138   1.118   .     S
C2812  O3538   1.418   .     S
C2812  C2813   1.531   .     S
C2812  H3137   1.110   .     S
C2813  H3140   1.111   .     S
C2813  H3139   1.110   .     S
C2813  C2814   1.525   .     S
C2814  H3143   1.110   .     S
C2814  H3141   1.110   .     S
C2814  H3142   1.110   .     S
C2815  C2816   1.523   .     S
C2815  O3539   1.411   .     S
C2815  H3146   1.115   .     S
C2815  H3144   1.116   .     S
C2816  C2817   1.524   .     S
C2816  H3148   1.110   .     S
C2816  H3147   1.110   .     S
C2817  H3151   1.109   .     S
C2817  H3150   1.108   .     S
C2817  H3149   1.109   .     S
C2818  H3153   1.118   .     S
C2818  C2819   1.539   .     S
C2818  H3152   1.110   .     S
C2818  O3540   1.420   .     S
C2819  C2820   1.528   .     S
C2819  H3154   1.112   .     S
C2819  H3155   1.111   .     S
C2820  H3157   1.108   .     S
C2820  H3159   1.110   .     S
C2820  H3158   1.110   .     S
C2821  H3161   1.117   .     S
C2821  O3541   1.419   .     S
C2821  H3160   1.111   .     S
C2821  C2823   1.528   .     S
C2822  C2956   1.398   .     A
C2822  O3446   1.384   .     S
C2823  H3162   1.107   .     S
C2823  C2824   1.526   .     S
C2823  H3163   1.108   .     S
C2824  H3166   1.109   .     S
C2824  H3165   1.110   .     S
C2824  H3164   1.110   .     S
C2825  H3169   1.118   .     S
C2825  H3168   1.110   .     S
C2825  C2826   1.529   .     S
C2825  O3543   1.418   .     S
C2826  H3170   1.110   .     S
C2826  C2827   1.525   .     S
C2826  H3171   1.111   .     S
C2827  H3173   1.110   .     S
C2827  H3174   1.111   .     S
C2827  H3172   1.111   .     S
C2828  H3175   1.111   .     S
C2828  O3544   1.417   .     S
C2828  C2829   1.531   .     S
C2828  H3176   1.116   .     S
C2829  H3177   1.110   .     S
C2829  H3179   1.111   .     S
C2829  C2830   1.527   .     S
C2830  H3180   1.111   .     S
C2830  H3181   1.109   .     S
C2830  H3182   1.111   .     S
C2831  H3184   1.118   .     S
C2831  C2832   1.531   .     S
C2831  H3183   1.109   .     S
C2831  O3545   1.419   .     S
C2832  C2834   1.525   .     S
C2832  H3186   1.110   .     S
C2832  H3185   1.111   .     S
C2833  C2967   1.398   .     A
C2833  O3447   1.384   .     S
C2834  H3187   1.111   .     S
C2834  H3188   1.109   .     S
C2834  H3190   1.109   .     S
C2835  O3546   1.417   .     S
C2835  C2836   1.527   .     S
C2835  H3191   1.111   .     S
C2835  H3192   1.119   .     S
C2836  H3193   1.109   .     S
C2836  H3194   1.110   .     S
C2836  C2837   1.526   .     S
C2837  H3195   1.110   .     S
C2837  H3196   1.110   .     S
C2837  H3197   1.111   .     S
C2838  C2839   1.536   .     S
C2838  H3198   1.111   .     S
C2838  H3199   1.117   .     S
C2838  O3547   1.421   .     S
C2839  H3202   1.109   .     S
C2839  C2840   1.524   .     S
C2839  H3201   1.110   .     S
C2840  H3203   1.110   .     S
C2840  H3204   1.111   .     S
C2840  H3205   1.108   .     S
C2841  H3207   1.118   .     S
C2841  O3548   1.419   .     S
C2841  C2842   1.529   .     S
C2841  H3206   1.110   .     S
C2842  H3208   1.107   .     S
C2842  H3209   1.108   .     S
C2842  C2843   1.525   .     S
C2843  H3213   1.110   .     S
C2843  H3210   1.108   .     S
C2843  H3214   1.109   .     S
C2844  O3448   1.384   .     S
C2844  C2978   1.395   .     A
C2845  O3549   1.419   .     S
C2845  H3216   1.118   .     S
C2845  C2846   1.532   .     S
C2845  H3215   1.110   .     S
C2846  C2847   1.526   .     S
C2846  H3217   1.111   .     S
C2846  H3218   1.109   .     S
C2847  H3220   1.110   .     S
C2847  H3221   1.110   .     S
C2847  H3219   1.110   .     S
C2848  O3550   1.417   .     S
C2848  H3222   1.111   .     S
C2848  H3224   1.117   .     S
C2848  C2849   1.530   .     S
C2849  H3225   1.109   .     S
C2849  C2850   1.526   .     S
C2849  H3226   1.111   .     S
C2850  H3229   1.111   .     S
C2850  H3228   1.109   .     S
C2850  H3227   1.111   .     S
C2851  H3231   1.118   .     S
C2851  C2852   1.540   .     S
C2851  O3551   1.421   .     S
C2851  H3230   1.111   .     S
C2852  H3233   1.111   .     S
C2852  H3232   1.112   .     S
C2852  C2853   1.529   .     S
C2853  H3235   1.108   .     S
C2853  H3237   1.111   .     S
C2853  H3236   1.110   .     S
C2854  O3552   1.421   .     S
C2854  C2856   1.535   .     S
C2854  H3238   1.107   .     S
C2854  H3239   1.117   .     S
C2855  O3450   1.384   .     S
C2856  H3240   1.107   .     S
C2856  H3241   1.111   .     S
C2856  C2857   1.524   .     S
C2857  H3243   1.110   .     S
C2857  H3244   1.111   .     S
C2857  H3242   1.109   .     S
C2858  H3247   1.118   .     S
C2858  C2859   1.531   .     S
C2858  H3246   1.110   .     S
C2858  O3439   1.419   .     S
C2859  H3248   1.111   .     S
C2859  H3249   1.110   .     S
C2859  C2860   1.525   .     S
C2860  H3251   1.110   .     S
C2860  H3252   1.110   .     S
C2860  H3250   1.111   .     S
C2861  H3253   1.110   .     S
C2861  C2862   1.531   .     S
C2861  H3254   1.117   .     S
C2861  O1656   1.422   1_565 S
C2862  C2863   1.527   .     S
C2862  H1471   1.110   1_565 S
C2862  H1473   1.110   1_565 S
C2863  H3260   1.110   .     S
C2863  H3258   1.110   .     S
C2863  H3259   1.110   .     S
C2864  O3441   1.419   .     S
C2864  C2865   1.527   .     S
C2865  H3264   1.111   .     S
C2865  C2867   1.525   .     S
C2865  H3263   1.108   .     S
C2866  O3451   1.384   .     S
C2866  C915    1.410   1_565 S
C2867  H3266   1.110   .     S
C2868  O3442   1.415   .     S
C2868  H3270   1.112   .     S
C2868  C2869   1.527   .     S
C2868  H2377   1.116   1_655 S
C2869  C2870   1.526   .     S
C2869  H3272   1.111   .     S
C2869  H3271   1.112   .     S
C2870  H3273   1.111   .     S
C2870  H3274   1.108   .     S
C2870  H2383   1.106   1_655 S
C2871  H3276   1.111   .     S
C2871  C2872   1.531   .     S
C2871  H3277   1.118   .     S
C2872  H3280   1.110   .     S
C2872  H3279   1.110   .     S
C2872  C2873   1.526   .     S
C2873  H3281   1.111   .     S
C2873  H3283   1.109   .     S
C2873  H3282   1.110   .     S
C2874  H3284   1.112   .     S
C2874  H3285   1.119   .     S
C2874  C2875   1.529   .     S
C2875  H3286   1.108   .     S
C2875  H3287   1.111   .     S
C2875  C2876   1.526   .     S
C2876  H3288   1.108   .     S
C2876  H3291   1.108   .     S
C2876  H3290   1.110   .     S
C2877  O3452   1.385   .     S
C2878  C2879   1.527   .     S
C2878  O3445   1.417   .     S
C2878  H1508   1.112   1_565 S
C2878  H1509   1.117   1_565 S
C2879  H3294   1.109   .     S
C2879  H3295   1.112   .     S
C2879  C2880   1.525   .     S
C2880  H3297   1.109   .     S
C2880  H1512   1.111   1_565 S
C2880  H1514   1.110   1_565 S
C2881  O3446   1.419   .     S
C2881  C2882   1.527   .     S
C2882  C2883   1.526   .     S
C2882  H3303   1.112   .     S
C2882  H3302   1.108   .     S
C2883  H3305   1.109   .     S
C2884  H3307   1.110   .     S
C2884  C2885   1.530   .     S
C2884  H3308   1.119   .     S
C2884  O2555   1.421   1_655 S
C2885  H3310   1.109   .     S
C2885  C2886   1.527   .     S
C2885  H3309   1.110   .     S
C2886  H3314   1.109   .     S
C2886  H3312   1.111   .     S
C2886  H3313   1.110   .     S
C2887  H3316   1.120   .     S
C2887  O3448   1.420   .     S
C2887  H3315   1.110   .     S
C2887  C2889   1.529   .     S
C2888  O3453   1.385   .     S
C2889  C2890   1.526   .     S
C2889  H3318   1.110   .     S
C2889  H3317   1.111   .     S
C2890  H3319   1.109   .     S
C2890  H3320   1.110   .     S
C2890  H3321   1.107   .     S
C2891  H3325   1.118   .     S
C2891  O3450   1.418   .     S
C2891  C2892   1.528   .     S
C2891  H3324   1.111   .     S
C2892  H3326   1.109   .     S
C2892  C2893   1.526   .     S
C2892  H3327   1.111   .     S
C2893  H3330   1.110   .     S
C2893  H3329   1.110   .     S
C2893  H3328   1.111   .     S
C2894  O3451   1.419   .     S
C2894  H3332   1.117   .     S
C2894  H3331   1.111   .     S
C2894  C2895   1.528   .     S
C2895  H3333   1.109   .     S
C2895  H3335   1.111   .     S
C2895  C2896   1.527   .     S
C2896  H3336   1.111   .     S
C2896  H3338   1.111   .     S
C2896  H3337   1.109   .     S
C2897  O3452   1.421   .     S
C2897  C2898   1.531   .     S
C2897  H3340   1.118   .     S
C2897  H3339   1.111   .     S
C2898  H3342   1.110   .     S
C2898  H3341   1.109   .     S
C2898  C2901   1.527   .     S
C2899  C2918   1.417   .     A
C2899  O3504   1.390   .     S
C2900  O3454   1.385   .     S
C2901  H3344   1.110   .     S
C2901  H3346   1.109   .     S
C2901  H3343   1.111   .     S
C2902  H3347   1.110   .     S
C2902  C2903   1.531   .     S
C2902  H3348   1.118   .     S
C2902  O3453   1.422   .     S
C2903  H3349   1.110   .     S
C2903  H3350   1.110   .     S
C2903  C2904   1.528   .     S
C2904  H3351   1.110   .     S
C2904  H3353   1.110   .     S
C2904  H3352   1.110   .     S
C2905  H3355   1.117   .     S
C2905  O3454   1.418   .     S
C2905  C2906   1.527   .     S
C2905  H3354   1.112   .     S
C2906  H3358   1.110   .     S
C2906  H3357   1.108   .     S
C2906  C2907   1.524   .     S
C2907  H3359   1.111   .     S
C2907  H3361   1.109   .     S
C2907  H3360   1.109   .     S
C2908  H3362   1.112   .     S
C2908  C2909   1.527   .     S
C2908  H3363   1.118   .     S
C2908  O3455   1.418   .     S
C2909  C2910   1.526   .     S
C2909  H3364   1.107   .     S
C2909  H3365   1.112   .     S
C2910  H3368   1.110   .     S
C2910  H3366   1.111   .     S
C2910  H3369   1.110   .     S
C2911  O3455   1.384   .     S
C2912  O3456   1.417   .     S
C2912  H3370   1.105   .     S
C2912  C2913   1.535   .     S
C2912  H3371   1.117   .     S
C2913  H3373   1.108   .     S
C2913  H3372   1.109   .     S
C2913  C2914   1.523   .     S
C2914  H3375   1.110   .     S
C2914  H3376   1.109   .     S
C2914  H3374   1.108   .     S
C2915  O3456   1.384   .     S
C2916  C2917   1.475   1_554 S
C2917  C2916   1.475   1_556 S
C2918  C2919   1.475   1_554 S
C2918  C2064   1.416   1_655 S
C2919  C2923   1.412   .     A
C2919  C2918   1.475   1_556 S
C2919  C2075   1.410   1_655 S
C2920  C2921   1.475   .     S
C2920  C2978   1.412   .     A
C2920  C1819   1.412   1_655 S
C2921  C1786   1.416   1_655 S
C2922  C2924   1.475   .     S
C2923  O3505   1.386   .     S
C2925  O3542   1.286   .     S
C2926  O3509   1.281   .     A
C2927  O3449   1.284   .     A
C2927  O2628   1.287   1_655 S
C2928  O3531   1.285   .     A
C2928  O2565   1.289   1_655 S
C2929  C1804   1.477   1_655 S
C2929  O2566   1.286   1_655 S
C2929  O2570   1.282   1_655 S
C2930  O3463   1.284   .     A
C2930  O3459   1.281   .     A
C2931  O3460   1.284   .     S
C2931  O3464   1.285   .     S
C2932  O3461   1.289   .     A
C2932  O3466   1.285   .     A
C2933  C2988   1.465   .     S
C2933  O3467   1.283   .     A
C2933  O3495   1.284   .     A
C2934  O3506   1.388   .     S
C2934  C1132   1.413   1_565 S
C2935  O3468   1.281   .     A
C2935  O3496   1.281   .     A
C2936  O3469   1.278   .     A
C2936  O3493   1.281   .     A
C2937  O3470   1.282   .     A
C2937  O3494   1.283   .     A
C2938  O3500   1.283   .     A
C2938  O3471   1.283   .     A
C2939  O3501   1.278   .     A
C2939  O3472   1.282   .     A
C2940  O3473   1.282   .     A
C2940  O3497   1.279   .     A
C2940  C2986   1.451   .     S
C2941  O3499   1.286   .     A
C2941  C2987   1.463   .     S
C2941  O3474   1.283   .     A
C2942  O3486   1.280   .     A
C2942  O3475   1.279   .     A
C2943  O3477   1.283   .     A
C2943  O3488   1.282   .     A
C2944  O3478   1.282   .     A
C2944  O3484   1.284   .     A
C2945  O3507   1.390   .     S
C2945  C1133   1.416   1_565 S
C2946  O3479   1.278   .     A
C2946  O3485   1.282   .     A
C2947  O3491   1.279   .     A
C2947  O3480   1.282   .     A
C2948  O3492   1.284   .     A
C2948  O3481   1.284   .     A
C2949  O3489   1.283   .     A
C2949  O3482   1.283   .     A
C2950  O3490   1.281   .     A
C2950  O3483   1.279   .     A
C2951  C2968   1.392   .     A
C2951  O3519   1.385   .     S
C2952  O3521   1.384   .     S
C2952  C2966   1.392   .     A
C2953  O3522   1.387   .     S
C2953  C2965   1.389   .     A
C2954  C2964   1.389   .     A
C2954  O3523   1.386   .     S
C2955  O3524   1.383   .     S
C2955  C2963   1.388   .     A
C2956  O3508   1.389   .     S
C2957  C2962   1.389   .     A
C2957  O3525   1.385   .     S
C2958  O3526   1.382   .     S
C2958  C2961   1.390   .     A
C2959  C2960   1.389   .     A
C2959  O3527   1.386   .     S
C2960  O3528   1.386   .     S
C2961  O3529   1.385   .     S
C2962  O3530   1.384   .     S
C2963  O3532   1.385   .     S
C2964  O3533   1.384   .     S
C2965  C2988   1.416   .     A
C2965  O3534   1.386   .     S
C2966  C2987   1.416   .     A
C2966  O3535   1.385   .     S
C2967  O3510   1.385   .     S
C2968  O3536   1.384   .     S
C2968  C2986   1.406   .     A
C2969  C2985   1.388   .     A
C2969  C2987   1.415   .     A
C2969  O3537   1.384   .     S
C2970  C2984   1.389   .     A
C2970  C2986   1.403   .     A
C2970  O3538   1.385   .     S
C2971  C2983   1.389   .     A
C2971  O3539   1.382   .     S
C2972  O3540   1.386   .     S
C2972  C2988   1.416   .     A
C2972  C2982   1.389   .     A
C2973  C2981   1.392   .     A
C2973  O3541   1.386   .     S
C2974  O3543   1.383   .     S
C2974  C2980   1.392   .     A
C2975  C2979   1.390   .     A
C2975  O3544   1.387   .     S
C2976  C2977   1.390   .     A
C2976  O3545   1.385   .     S
C2977  O3546   1.384   .     S
C2978  O3511   1.387   .     S
C2979  O3547   1.386   .     S
C2980  O3548   1.385   .     S
C2981  O3549   1.384   .     S
C2982  O3550   1.386   .     S
C2983  O3551   1.386   .     S
C2984  O3552   1.383   .     S
C2985  O3439   1.384   .     S
H2989  C2702   1.111   1_556 S
H2990  C2706   1.109   1_554 S
H2994  C966    1.111   1_565 S
H3012  C2707   1.110   1_556 S
H3027  C1871   1.111   1_655 S
H3045  C2708   1.110   1_556 S
H3054  C1883   1.110   1_655 S
H3056  C2708   1.107   1_556 S
H3100  C2702   1.108   1_556 S
H3123  C2712   1.111   1_554 S
H3134  C2712   1.109   1_554 S
H3200  C2715   1.111   1_556 S
H3261  C1080   1.111   1_565 S
H3262  C1080   1.117   1_565 S
H3265  C1083   1.111   1_565 S
H3267  C2717   1.110   1_556 S
H3268  C1083   1.110   1_565 S
H3278  C2718   1.109   1_554 S
H3289  C2718   1.106   1_554 S
H3299  C1989   1.112   1_655 S
H3301  C1989   1.118   1_655 S
H3304  C1991   1.111   1_655 S
H3306  C1991   1.111   1_655 S
H3323  C2720   1.110   1_554 S
H3356  C2721   1.111   1_556 S
H3367  C2721   1.108   1_556 S
H3383  C2725   1.111   1_554 S
H3385  C2726   1.111   1_554 S
H3387  C2727   1.110   1_556 S
H3415  C2705   1.111   1_554 S
O3437  Zn3556  1.947   .     S
O3437  Zn3553  1.953   .     S
O3437  Zn3564  1.951   .     S
O3438  Zn3555  1.949   .     S
O3438  C1142   1.282   1_565 S
O3443  C1979   1.420   1_655 S
O3444  C1090   1.421   1_565 S
O3449  Zn3558  1.949   .     S
O3457  Zn3557  1.949   .     S
O3458  Zn3567  1.948   .     S
O3459  Zn3566  1.948   .     S
O3460  Zn3561  1.948   .     S
O3461  Zn3553  1.948   .     S
O3462  Zn3563  1.949   .     S
O3463  Zn3562  1.949   .     S
O3464  Zn3565  1.949   .     S
O3465  Zn3565  1.951   .     S
O3465  Zn3561  1.953   .     S
O3465  Zn3559  1.949   .     S
O3466  Zn3564  1.949   .     S
O3467  Zn3556  1.942   .     S
O3468  Zn3555  1.942   .     S
O3469  Zn3558  1.935   .     S
O3470  Zn3557  1.935   .     S
O3471  Zn3560  1.941   .     S
O3472  Zn3559  1.941   .     S
O3473  Zn3554  1.935   .     S
O3474  Zn3568  1.935   .     S
O3475  Zn3555  1.937   .     S
O3476  Zn3554  1.953   .     S
O3476  Zn3562  1.947   .     S
O3476  Zn3566  1.949   .     S
O3477  Zn3556  1.937   .     S
O3478  Zn3568  1.939   .     S
O3479  Zn3554  1.939   .     S
O3480  Zn3559  1.938   .     S
O3481  Zn3560  1.938   .     S
O3482  Zn3557  1.940   .     S
O3483  Zn3558  1.940   .     S
O3484  Zn2671  1.942   1_655 S
O3485  Zn3562  1.942   .     S
O3486  Zn1781  1.935   1_565 S
O3487  Zn3567  1.949   .     S
O3487  Zn3563  1.947   .     S
O3487  Zn3557  1.951   .     S
O3488  Zn3564  1.935   .     S
O3489  Zn3567  1.941   .     S
O3490  Zn2674  1.941   1_655 S
O3491  Zn3561  1.935   .     S
O3492  Zn1769  1.935   1_565 S
O3493  Zn2670  1.937   1_655 S
O3494  Zn3563  1.937   .     S
O3495  Zn3553  1.939   .     S
O3496  Zn1777  1.939   1_565 S
O3497  Zn3566  1.938   .     S
O3498  Zn3560  1.948   .     S
O3498  C1141   1.284   1_565 A
O3499  Zn2675  1.938   1_655 S
O3500  Zn1780  1.940   1_565 S
O3501  Zn3565  1.940   .     S
O3509  Zn3559  1.948   .     S
O3520  Zn3554  1.948   .     S
O3531  Zn3568  1.948   .     S
O3542  Zn3556  1.949   .     S
Zn3555 O1681   1.947   1_565 S
Zn3558 O2584   1.951   1_655 S
Zn3560 O1653   1.949   1_565 S
Zn3568 O2595   1.953   1_655 S
