data_str_m3_o10_o18_pcu_sym.45
_audit_creation_date              2020-01-03
_audit_creation_method            'Materials Studio'
_symmetry_space_group_name_H-M    'P1'
_symmetry_Int_Tables_number       1
_symmetry_cell_setting            triclinic
loop_
_symmetry_equiv_pos_as_xyz
  x,y,z
_cell_length_a                    23.5084
_cell_length_b                    25.7021
_cell_length_c                    27.6905
_cell_angle_alpha                 93.3944
_cell_angle_beta                  92.9264
_cell_angle_gamma                 94.3116
loop_
_atom_site_label
_atom_site_type_symbol
_atom_site_fract_x
_atom_site_fract_y
_atom_site_fract_z
_atom_site_U_iso_or_equiv
_atom_site_adp_type
_atom_site_occupancy
C1     C     0.01509   0.26491   0.24880   0.00000  Uiso   1.00
C2     C     0.31234   0.16288   0.15908   0.00000  Uiso   1.00
C3     C     0.03159   0.17580   0.39313   0.00000  Uiso   1.00
C4     C     0.30174   0.15753   0.10687   0.00000  Uiso   1.00
C5     C     0.01753   0.22027   0.47008   0.00000  Uiso   1.00
C6     C     0.31580   0.11307   0.02992   0.00000  Uiso   1.00
C7     C     0.33093   0.20481   0.42284   0.00000  Uiso   1.00
C8     C     0.00241   0.12853   0.07716   0.00000  Uiso   1.00
C9     C     0.08155   0.15741   0.41202   0.00000  Uiso   1.00
C10    C     0.25179   0.17593   0.08798   0.00000  Uiso   1.00
C11    C     0.10120   0.17015   0.45983   0.00000  Uiso   1.00
C12    C     0.31825   0.06843   0.25120   0.00000  Uiso   1.00
C13    C     0.23213   0.16318   0.04016   0.00000  Uiso   1.00
C14    C     0.07056   0.20542   0.48776   0.00000  Uiso   1.00
C15    C     0.26277   0.12791   0.01224   0.00000  Uiso   1.00
C16    C     0.15392   0.15384   0.47827   0.00000  Uiso   1.00
C17    C     0.17942   0.17949   0.02173   0.00000  Uiso   1.00
C18    C     0.15095   0.22006   0.04536   0.00000  Uiso   1.00
C19    C     0.18239   0.11327   0.45464   0.00000  Uiso   1.00
C20    C     0.09568   0.22951   0.03054   0.00000  Uiso   1.00
C21    C     0.23766   0.10383   0.46946   0.00000  Uiso   1.00
C22    C     0.02291   0.31950   0.24809   0.00000  Uiso   1.00
C23    C     0.31042   0.01383   0.25191   0.00000  Uiso   1.00
C24    C     0.02100   0.17045   0.34092   0.00000  Uiso   1.00
F25    F     0.17727   0.25449   0.07996   0.00000  Uiso   1.00
F26    F     0.15606   0.07884   0.42004   0.00000  Uiso   1.00
H27    H     0.07447   0.25942   0.05034   0.00000  Uiso   1.00
H28    H     0.26728   0.32993   0.25556   0.00000  Uiso   1.00
H29    H     0.16244   0.12482   0.21387   0.00000  Uiso   1.00
H30    H     0.17089   0.20852   0.28613   0.00000  Uiso   1.00
H31    H     0.25887   0.07392   0.44966   0.00000  Uiso   1.00
H32    H     0.22553   0.19526   0.11296   0.00000  Uiso   1.00
H33    H     0.10780   0.13808   0.38704   0.00000  Uiso   1.00
H34    H     0.04163   0.11426   0.09149   0.00000  Uiso   1.00
H35    H     0.29170   0.21908   0.40851   0.00000  Uiso   1.00
H36    H     0.32651   0.24612   0.49177   0.00000  Uiso   1.00
H37    H     0.00683   0.08722   0.00823   0.00000  Uiso   1.00
H38    H     0.06605   0.00341   0.24444   0.00000  Uiso   1.00
N39    N     0.14695   0.15216   0.23739   0.00000  Uiso   1.00
N40    N     0.18638   0.18117   0.26260   0.00000  Uiso   1.00
O41    O     0.29719   0.24631   0.25309   0.00000  Uiso   1.00
O42    O     0.03614   0.08702   0.24690   0.00000  Uiso   1.00
O43    O     0.05822   0.23702   0.24501   0.00000  Uiso   1.00
O44    O     0.27512   0.09632   0.25498   0.00000  Uiso   1.00
O45    O     0.30328   0.17397   0.32247   0.00000  Uiso   1.00
O46    O     0.03005   0.15937   0.17753   0.00000  Uiso   1.00
O47    O     0.06431   0.16467   0.31439   0.00000  Uiso   1.00
O48    O     0.26902   0.16866   0.18561   0.00000  Uiso   1.00
Zn49   Zn    0.27033   0.17287   0.25539   0.00000  Uiso   1.00
Zn50   Zn    0.06300   0.16046   0.24460   0.00000  Uiso   1.00
C51    C     0.34842   0.26491   0.24880   0.00000  Uiso   1.00
C52    C     0.64567   0.16288   0.15908   0.00000  Uiso   1.00
C53    C     0.36493   0.17580   0.39313   0.00000  Uiso   1.00
C54    C     0.63507   0.15753   0.10687   0.00000  Uiso   1.00
C55    C     0.35086   0.22027   0.47008   0.00000  Uiso   1.00
C56    C     0.64914   0.11307   0.02992   0.00000  Uiso   1.00
C57    C     0.66426   0.20481   0.42284   0.00000  Uiso   1.00
C58    C     0.33574   0.12853   0.07716   0.00000  Uiso   1.00
C59    C     0.41488   0.15741   0.41202   0.00000  Uiso   1.00
C60    C     0.58512   0.17593   0.08798   0.00000  Uiso   1.00
C61    C     0.43453   0.17015   0.45983   0.00000  Uiso   1.00
C62    C     0.65158   0.06843   0.25120   0.00000  Uiso   1.00
C63    C     0.56547   0.16318   0.04016   0.00000  Uiso   1.00
C64    C     0.40390   0.20542   0.48776   0.00000  Uiso   1.00
C65    C     0.59610   0.12791   0.01224   0.00000  Uiso   1.00
C66    C     0.48725   0.15384   0.47827   0.00000  Uiso   1.00
C67    C     0.51275   0.17949   0.02173   0.00000  Uiso   1.00
C68    C     0.48428   0.22006   0.04536   0.00000  Uiso   1.00
C69    C     0.51572   0.11327   0.45464   0.00000  Uiso   1.00
C70    C     0.42901   0.22951   0.03054   0.00000  Uiso   1.00
C71    C     0.57099   0.10383   0.46946   0.00000  Uiso   1.00
C72    C     0.35624   0.31950   0.24809   0.00000  Uiso   1.00
C73    C     0.64376   0.01383   0.25191   0.00000  Uiso   1.00
C74    C     0.35433   0.17045   0.34092   0.00000  Uiso   1.00
F75    F     0.51061   0.25449   0.07996   0.00000  Uiso   1.00
F76    F     0.48939   0.07884   0.42004   0.00000  Uiso   1.00
H77    H     0.40780   0.25942   0.05034   0.00000  Uiso   1.00
H78    H     0.60062   0.32993   0.25556   0.00000  Uiso   1.00
H79    H     0.49578   0.12482   0.21387   0.00000  Uiso   1.00
H80    H     0.50422   0.20852   0.28613   0.00000  Uiso   1.00
H81    H     0.59220   0.07392   0.44966   0.00000  Uiso   1.00
H82    H     0.55887   0.19526   0.11296   0.00000  Uiso   1.00
H83    H     0.44113   0.13808   0.38704   0.00000  Uiso   1.00
H84    H     0.37496   0.11426   0.09149   0.00000  Uiso   1.00
H85    H     0.62504   0.21908   0.40851   0.00000  Uiso   1.00
H86    H     0.65984   0.24612   0.49177   0.00000  Uiso   1.00
H87    H     0.34016   0.08722   0.00823   0.00000  Uiso   1.00
H88    H     0.39938   0.00341   0.24444   0.00000  Uiso   1.00
N89    N     0.48029   0.15216   0.23739   0.00000  Uiso   1.00
N90    N     0.51971   0.18117   0.26260   0.00000  Uiso   1.00
O91    O     0.63052   0.24631   0.25309   0.00000  Uiso   1.00
O92    O     0.36948   0.08702   0.24690   0.00000  Uiso   1.00
O93    O     0.39155   0.23702   0.24501   0.00000  Uiso   1.00
O94    O     0.60845   0.09632   0.25498   0.00000  Uiso   1.00
O95    O     0.63662   0.17397   0.32247   0.00000  Uiso   1.00
O96    O     0.36338   0.15937   0.17753   0.00000  Uiso   1.00
O97    O     0.39764   0.16467   0.31439   0.00000  Uiso   1.00
O98    O     0.60236   0.16866   0.18561   0.00000  Uiso   1.00
Zn99   Zn    0.60366   0.17287   0.25539   0.00000  Uiso   1.00
Zn100  Zn    0.39634   0.16046   0.24460   0.00000  Uiso   1.00
C101   C     0.68175   0.26491   0.24880   0.00000  Uiso   1.00
C102   C     0.97901   0.16288   0.15908   0.00000  Uiso   1.00
C103   C     0.69826   0.17580   0.39313   0.00000  Uiso   1.00
C104   C     0.96841   0.15753   0.10687   0.00000  Uiso   1.00
C105   C     0.68420   0.22027   0.47008   0.00000  Uiso   1.00
C106   C     0.98247   0.11307   0.02992   0.00000  Uiso   1.00
C107   C     0.99759   0.20481   0.42284   0.00000  Uiso   1.00
C108   C     0.66907   0.12853   0.07716   0.00000  Uiso   1.00
C109   C     0.74821   0.15741   0.41202   0.00000  Uiso   1.00
C110   C     0.91845   0.17593   0.08798   0.00000  Uiso   1.00
C111   C     0.76787   0.17015   0.45983   0.00000  Uiso   1.00
C112   C     0.98491   0.06843   0.25120   0.00000  Uiso   1.00
C113   C     0.89880   0.16318   0.04016   0.00000  Uiso   1.00
C114   C     0.73723   0.20542   0.48776   0.00000  Uiso   1.00
C115   C     0.92944   0.12791   0.01224   0.00000  Uiso   1.00
C116   C     0.82058   0.15384   0.47827   0.00000  Uiso   1.00
C117   C     0.84608   0.17949   0.02173   0.00000  Uiso   1.00
C118   C     0.81762   0.22006   0.04536   0.00000  Uiso   1.00
C119   C     0.84905   0.11327   0.45464   0.00000  Uiso   1.00
C120   C     0.76234   0.22951   0.03054   0.00000  Uiso   1.00
C121   C     0.90432   0.10383   0.46946   0.00000  Uiso   1.00
C122   C     0.68958   0.31950   0.24809   0.00000  Uiso   1.00
C123   C     0.97709   0.01383   0.25191   0.00000  Uiso   1.00
C124   C     0.68766   0.17045   0.34092   0.00000  Uiso   1.00
F125   F     0.84394   0.25449   0.07996   0.00000  Uiso   1.00
F126   F     0.82273   0.07884   0.42004   0.00000  Uiso   1.00
H127   H     0.74113   0.25942   0.05034   0.00000  Uiso   1.00
H128   H     0.93395   0.32993   0.25556   0.00000  Uiso   1.00
H129   H     0.82911   0.12482   0.21387   0.00000  Uiso   1.00
H130   H     0.83756   0.20852   0.28613   0.00000  Uiso   1.00
H131   H     0.92554   0.07392   0.44966   0.00000  Uiso   1.00
H132   H     0.89220   0.19526   0.11296   0.00000  Uiso   1.00
H133   H     0.77447   0.13808   0.38704   0.00000  Uiso   1.00
H134   H     0.70830   0.11426   0.09149   0.00000  Uiso   1.00
H135   H     0.95837   0.21908   0.40851   0.00000  Uiso   1.00
H136   H     0.99317   0.24612   0.49177   0.00000  Uiso   1.00
H137   H     0.67349   0.08722   0.00823   0.00000  Uiso   1.00
H138   H     0.73272   0.00341   0.24444   0.00000  Uiso   1.00
N139   N     0.81362   0.15216   0.23739   0.00000  Uiso   1.00
N140   N     0.85305   0.18117   0.26260   0.00000  Uiso   1.00
O141   O     0.96386   0.24631   0.25309   0.00000  Uiso   1.00
O142   O     0.70281   0.08702   0.24690   0.00000  Uiso   1.00
O143   O     0.72488   0.23702   0.24501   0.00000  Uiso   1.00
O144   O     0.94178   0.09632   0.25498   0.00000  Uiso   1.00
O145   O     0.96995   0.17397   0.32247   0.00000  Uiso   1.00
O146   O     0.69672   0.15937   0.17753   0.00000  Uiso   1.00
O147   O     0.73098   0.16467   0.31439   0.00000  Uiso   1.00
O148   O     0.93569   0.16866   0.18561   0.00000  Uiso   1.00
Zn149  Zn    0.93700   0.17287   0.25539   0.00000  Uiso   1.00
Zn150  Zn    0.72967   0.16046   0.24460   0.00000  Uiso   1.00
C151   C     0.01509   0.59824   0.24880   0.00000  Uiso   1.00
C152   C     0.31234   0.49622   0.15908   0.00000  Uiso   1.00
C153   C     0.03159   0.50913   0.39313   0.00000  Uiso   1.00
C154   C     0.30174   0.49087   0.10687   0.00000  Uiso   1.00
C155   C     0.01753   0.55360   0.47008   0.00000  Uiso   1.00
C156   C     0.31580   0.44640   0.02992   0.00000  Uiso   1.00
C157   C     0.33093   0.53814   0.42284   0.00000  Uiso   1.00
C158   C     0.00241   0.46186   0.07716   0.00000  Uiso   1.00
C159   C     0.08155   0.49074   0.41202   0.00000  Uiso   1.00
C160   C     0.25179   0.50926   0.08798   0.00000  Uiso   1.00
C161   C     0.10120   0.50349   0.45983   0.00000  Uiso   1.00
C162   C     0.31825   0.40176   0.25120   0.00000  Uiso   1.00
C163   C     0.23213   0.49651   0.04016   0.00000  Uiso   1.00
C164   C     0.07056   0.53875   0.48776   0.00000  Uiso   1.00
C165   C     0.26277   0.46125   0.01224   0.00000  Uiso   1.00
C166   C     0.15392   0.48718   0.47827   0.00000  Uiso   1.00
C167   C     0.17942   0.51282   0.02173   0.00000  Uiso   1.00
C168   C     0.15095   0.55340   0.04536   0.00000  Uiso   1.00
C169   C     0.18239   0.44660   0.45464   0.00000  Uiso   1.00
C170   C     0.09568   0.56284   0.03054   0.00000  Uiso   1.00
C171   C     0.23766   0.43716   0.46946   0.00000  Uiso   1.00
C172   C     0.02291   0.65284   0.24809   0.00000  Uiso   1.00
C173   C     0.31042   0.34716   0.25191   0.00000  Uiso   1.00
C174   C     0.02100   0.50378   0.34092   0.00000  Uiso   1.00
F175   F     0.17727   0.58782   0.07996   0.00000  Uiso   1.00
F176   F     0.15606   0.41218   0.42004   0.00000  Uiso   1.00
H177   H     0.07447   0.59275   0.05034   0.00000  Uiso   1.00
H178   H     0.26728   0.66326   0.25556   0.00000  Uiso   1.00
H179   H     0.16244   0.45815   0.21387   0.00000  Uiso   1.00
H180   H     0.17089   0.54185   0.28613   0.00000  Uiso   1.00
H181   H     0.25887   0.40725   0.44966   0.00000  Uiso   1.00
H182   H     0.22553   0.52859   0.11296   0.00000  Uiso   1.00
H183   H     0.10780   0.47141   0.38704   0.00000  Uiso   1.00
H184   H     0.04163   0.44759   0.09149   0.00000  Uiso   1.00
H185   H     0.29170   0.55241   0.40851   0.00000  Uiso   1.00
H186   H     0.32651   0.57945   0.49177   0.00000  Uiso   1.00
H187   H     0.00683   0.42055   0.00823   0.00000  Uiso   1.00
H188   H     0.06605   0.33674   0.24444   0.00000  Uiso   1.00
N189   N     0.14695   0.48550   0.23739   0.00000  Uiso   1.00
N190   N     0.18638   0.51450   0.26260   0.00000  Uiso   1.00
O191   O     0.29719   0.57964   0.25309   0.00000  Uiso   1.00
O192   O     0.03614   0.42036   0.24690   0.00000  Uiso   1.00
O193   O     0.05822   0.57035   0.24501   0.00000  Uiso   1.00
O194   O     0.27512   0.42965   0.25498   0.00000  Uiso   1.00
O195   O     0.30328   0.50730   0.32247   0.00000  Uiso   1.00
O196   O     0.03005   0.49270   0.17753   0.00000  Uiso   1.00
O197   O     0.06431   0.49801   0.31439   0.00000  Uiso   1.00
O198   O     0.26902   0.50199   0.18561   0.00000  Uiso   1.00
Zn199  Zn    0.27033   0.50621   0.25539   0.00000  Uiso   1.00
Zn200  Zn    0.06300   0.49379   0.24460   0.00000  Uiso   1.00
C201   C     0.34842   0.59824   0.24880   0.00000  Uiso   1.00
C202   C     0.64567   0.49622   0.15908   0.00000  Uiso   1.00
C203   C     0.36493   0.50913   0.39313   0.00000  Uiso   1.00
C204   C     0.63507   0.49087   0.10687   0.00000  Uiso   1.00
C205   C     0.35086   0.55360   0.47008   0.00000  Uiso   1.00
C206   C     0.64914   0.44640   0.02992   0.00000  Uiso   1.00
C207   C     0.66426   0.53814   0.42284   0.00000  Uiso   1.00
C208   C     0.33574   0.46186   0.07716   0.00000  Uiso   1.00
C209   C     0.41488   0.49074   0.41202   0.00000  Uiso   1.00
C210   C     0.58512   0.50926   0.08798   0.00000  Uiso   1.00
C211   C     0.43453   0.50349   0.45983   0.00000  Uiso   1.00
C212   C     0.65158   0.40176   0.25120   0.00000  Uiso   1.00
C213   C     0.56547   0.49651   0.04016   0.00000  Uiso   1.00
C214   C     0.40390   0.53875   0.48776   0.00000  Uiso   1.00
C215   C     0.59610   0.46125   0.01224   0.00000  Uiso   1.00
C216   C     0.48725   0.48718   0.47827   0.00000  Uiso   1.00
C217   C     0.51275   0.51282   0.02173   0.00000  Uiso   1.00
C218   C     0.48428   0.55340   0.04536   0.00000  Uiso   1.00
C219   C     0.51572   0.44660   0.45464   0.00000  Uiso   1.00
C220   C     0.42901   0.56284   0.03054   0.00000  Uiso   1.00
C221   C     0.57099   0.43716   0.46946   0.00000  Uiso   1.00
C222   C     0.35624   0.65284   0.24809   0.00000  Uiso   1.00
C223   C     0.64376   0.34716   0.25191   0.00000  Uiso   1.00
C224   C     0.35433   0.50378   0.34092   0.00000  Uiso   1.00
F225   F     0.51061   0.58782   0.07996   0.00000  Uiso   1.00
F226   F     0.48939   0.41218   0.42004   0.00000  Uiso   1.00
H227   H     0.40780   0.59275   0.05034   0.00000  Uiso   1.00
H228   H     0.60062   0.66326   0.25556   0.00000  Uiso   1.00
H229   H     0.49578   0.45815   0.21387   0.00000  Uiso   1.00
H230   H     0.50422   0.54185   0.28613   0.00000  Uiso   1.00
H231   H     0.59220   0.40725   0.44966   0.00000  Uiso   1.00
H232   H     0.55887   0.52859   0.11296   0.00000  Uiso   1.00
H233   H     0.44113   0.47141   0.38704   0.00000  Uiso   1.00
H234   H     0.37496   0.44759   0.09149   0.00000  Uiso   1.00
H235   H     0.62504   0.55241   0.40851   0.00000  Uiso   1.00
H236   H     0.65984   0.57945   0.49177   0.00000  Uiso   1.00
H237   H     0.34016   0.42055   0.00823   0.00000  Uiso   1.00
H238   H     0.39938   0.33674   0.24444   0.00000  Uiso   1.00
N239   N     0.48029   0.48550   0.23739   0.00000  Uiso   1.00
N240   N     0.51971   0.51450   0.26260   0.00000  Uiso   1.00
O241   O     0.63052   0.57964   0.25309   0.00000  Uiso   1.00
O242   O     0.36948   0.42036   0.24690   0.00000  Uiso   1.00
O243   O     0.39155   0.57035   0.24501   0.00000  Uiso   1.00
O244   O     0.60845   0.42965   0.25498   0.00000  Uiso   1.00
O245   O     0.63662   0.50730   0.32247   0.00000  Uiso   1.00
O246   O     0.36338   0.49270   0.17753   0.00000  Uiso   1.00
O247   O     0.39764   0.49801   0.31439   0.00000  Uiso   1.00
O248   O     0.60236   0.50199   0.18561   0.00000  Uiso   1.00
Zn249  Zn    0.60366   0.50621   0.25539   0.00000  Uiso   1.00
Zn250  Zn    0.39634   0.49379   0.24460   0.00000  Uiso   1.00
C251   C     0.68175   0.59824   0.24880   0.00000  Uiso   1.00
C252   C     0.97901   0.49622   0.15908   0.00000  Uiso   1.00
C253   C     0.69826   0.50913   0.39313   0.00000  Uiso   1.00
C254   C     0.96841   0.49087   0.10687   0.00000  Uiso   1.00
C255   C     0.68420   0.55360   0.47008   0.00000  Uiso   1.00
C256   C     0.98247   0.44640   0.02992   0.00000  Uiso   1.00
C257   C     0.99759   0.53814   0.42284   0.00000  Uiso   1.00
C258   C     0.66907   0.46186   0.07716   0.00000  Uiso   1.00
C259   C     0.74821   0.49074   0.41202   0.00000  Uiso   1.00
C260   C     0.91845   0.50926   0.08798   0.00000  Uiso   1.00
C261   C     0.76787   0.50349   0.45983   0.00000  Uiso   1.00
C262   C     0.98491   0.40176   0.25120   0.00000  Uiso   1.00
C263   C     0.89880   0.49651   0.04016   0.00000  Uiso   1.00
C264   C     0.73723   0.53875   0.48776   0.00000  Uiso   1.00
C265   C     0.92944   0.46125   0.01224   0.00000  Uiso   1.00
C266   C     0.82058   0.48718   0.47827   0.00000  Uiso   1.00
C267   C     0.84608   0.51282   0.02173   0.00000  Uiso   1.00
C268   C     0.81762   0.55340   0.04536   0.00000  Uiso   1.00
C269   C     0.84905   0.44660   0.45464   0.00000  Uiso   1.00
C270   C     0.76234   0.56284   0.03054   0.00000  Uiso   1.00
C271   C     0.90432   0.43716   0.46946   0.00000  Uiso   1.00
C272   C     0.68958   0.65284   0.24809   0.00000  Uiso   1.00
C273   C     0.97709   0.34716   0.25191   0.00000  Uiso   1.00
C274   C     0.68766   0.50378   0.34092   0.00000  Uiso   1.00
F275   F     0.84394   0.58782   0.07996   0.00000  Uiso   1.00
F276   F     0.82273   0.41218   0.42004   0.00000  Uiso   1.00
H277   H     0.74113   0.59275   0.05034   0.00000  Uiso   1.00
H278   H     0.93395   0.66326   0.25556   0.00000  Uiso   1.00
H279   H     0.82911   0.45815   0.21387   0.00000  Uiso   1.00
H280   H     0.83756   0.54185   0.28613   0.00000  Uiso   1.00
H281   H     0.92554   0.40725   0.44966   0.00000  Uiso   1.00
H282   H     0.89220   0.52859   0.11296   0.00000  Uiso   1.00
H283   H     0.77447   0.47141   0.38704   0.00000  Uiso   1.00
H284   H     0.70830   0.44759   0.09149   0.00000  Uiso   1.00
H285   H     0.95837   0.55241   0.40851   0.00000  Uiso   1.00
H286   H     0.99317   0.57945   0.49177   0.00000  Uiso   1.00
H287   H     0.67349   0.42055   0.00823   0.00000  Uiso   1.00
H288   H     0.73272   0.33674   0.24444   0.00000  Uiso   1.00
N289   N     0.81362   0.48550   0.23739   0.00000  Uiso   1.00
N290   N     0.85305   0.51450   0.26260   0.00000  Uiso   1.00
O291   O     0.96386   0.57964   0.25309   0.00000  Uiso   1.00
O292   O     0.70281   0.42036   0.24690   0.00000  Uiso   1.00
O293   O     0.72488   0.57035   0.24501   0.00000  Uiso   1.00
O294   O     0.94178   0.42965   0.25498   0.00000  Uiso   1.00
O295   O     0.96995   0.50730   0.32247   0.00000  Uiso   1.00
O296   O     0.69672   0.49270   0.17753   0.00000  Uiso   1.00
O297   O     0.73098   0.49801   0.31439   0.00000  Uiso   1.00
O298   O     0.93569   0.50199   0.18561   0.00000  Uiso   1.00
Zn299  Zn    0.93700   0.50621   0.25539   0.00000  Uiso   1.00
Zn300  Zn    0.72967   0.49379   0.24460   0.00000  Uiso   1.00
C301   C     0.01509   0.93157   0.24880   0.00000  Uiso   1.00
C302   C     0.31234   0.82955   0.15908   0.00000  Uiso   1.00
C303   C     0.03159   0.84247   0.39313   0.00000  Uiso   1.00
C304   C     0.30174   0.82420   0.10687   0.00000  Uiso   1.00
C305   C     0.01753   0.88693   0.47008   0.00000  Uiso   1.00
C306   C     0.31580   0.77973   0.02992   0.00000  Uiso   1.00
C307   C     0.33093   0.87147   0.42284   0.00000  Uiso   1.00
C308   C     0.00241   0.79519   0.07716   0.00000  Uiso   1.00
C309   C     0.08155   0.82407   0.41202   0.00000  Uiso   1.00
C310   C     0.25179   0.84259   0.08798   0.00000  Uiso   1.00
C311   C     0.10120   0.83682   0.45983   0.00000  Uiso   1.00
C312   C     0.31825   0.73509   0.25120   0.00000  Uiso   1.00
C313   C     0.23213   0.82985   0.04016   0.00000  Uiso   1.00
C314   C     0.07056   0.87209   0.48776   0.00000  Uiso   1.00
C315   C     0.26277   0.79458   0.01224   0.00000  Uiso   1.00
C316   C     0.15392   0.82051   0.47827   0.00000  Uiso   1.00
C317   C     0.17942   0.84616   0.02173   0.00000  Uiso   1.00
C318   C     0.15095   0.88673   0.04536   0.00000  Uiso   1.00
C319   C     0.18239   0.77994   0.45464   0.00000  Uiso   1.00
C320   C     0.09568   0.89617   0.03054   0.00000  Uiso   1.00
C321   C     0.23766   0.77049   0.46946   0.00000  Uiso   1.00
C322   C     0.02291   0.98617   0.24809   0.00000  Uiso   1.00
C323   C     0.31042   0.68050   0.25191   0.00000  Uiso   1.00
C324   C     0.02100   0.83712   0.34092   0.00000  Uiso   1.00
F325   F     0.17727   0.92116   0.07996   0.00000  Uiso   1.00
F326   F     0.15606   0.74551   0.42004   0.00000  Uiso   1.00
H327   H     0.07447   0.92608   0.05034   0.00000  Uiso   1.00
H328   H     0.26728   0.99659   0.25556   0.00000  Uiso   1.00
H329   H     0.16244   0.79148   0.21387   0.00000  Uiso   1.00
H330   H     0.17089   0.87518   0.28613   0.00000  Uiso   1.00
H331   H     0.25887   0.74058   0.44966   0.00000  Uiso   1.00
H332   H     0.22553   0.86192   0.11296   0.00000  Uiso   1.00
H333   H     0.10780   0.80474   0.38704   0.00000  Uiso   1.00
H334   H     0.04163   0.78092   0.09149   0.00000  Uiso   1.00
H335   H     0.29170   0.88574   0.40851   0.00000  Uiso   1.00
H336   H     0.32651   0.91278   0.49177   0.00000  Uiso   1.00
H337   H     0.00683   0.75388   0.00823   0.00000  Uiso   1.00
H338   H     0.06605   0.67007   0.24444   0.00000  Uiso   1.00
N339   N     0.14695   0.81883   0.23739   0.00000  Uiso   1.00
N340   N     0.18638   0.84784   0.26260   0.00000  Uiso   1.00
O341   O     0.29719   0.91298   0.25309   0.00000  Uiso   1.00
O342   O     0.03614   0.75369   0.24690   0.00000  Uiso   1.00
O343   O     0.05822   0.90368   0.24501   0.00000  Uiso   1.00
O344   O     0.27512   0.76298   0.25498   0.00000  Uiso   1.00
O345   O     0.30328   0.84063   0.32247   0.00000  Uiso   1.00
O346   O     0.03005   0.82603   0.17753   0.00000  Uiso   1.00
O347   O     0.06431   0.83134   0.31439   0.00000  Uiso   1.00
O348   O     0.26902   0.83533   0.18561   0.00000  Uiso   1.00
Zn349  Zn    0.27033   0.83954   0.25539   0.00000  Uiso   1.00
Zn350  Zn    0.06300   0.82713   0.24460   0.00000  Uiso   1.00
C351   C     0.34842   0.93157   0.24880   0.00000  Uiso   1.00
C352   C     0.64567   0.82955   0.15908   0.00000  Uiso   1.00
C353   C     0.36493   0.84247   0.39313   0.00000  Uiso   1.00
C354   C     0.63507   0.82420   0.10687   0.00000  Uiso   1.00
C355   C     0.35086   0.88693   0.47008   0.00000  Uiso   1.00
C356   C     0.64914   0.77973   0.02992   0.00000  Uiso   1.00
C357   C     0.66426   0.87147   0.42284   0.00000  Uiso   1.00
C358   C     0.33574   0.79519   0.07716   0.00000  Uiso   1.00
C359   C     0.41488   0.82407   0.41202   0.00000  Uiso   1.00
C360   C     0.58512   0.84259   0.08798   0.00000  Uiso   1.00
C361   C     0.43453   0.83682   0.45983   0.00000  Uiso   1.00
C362   C     0.65158   0.73509   0.25120   0.00000  Uiso   1.00
C363   C     0.56547   0.82985   0.04016   0.00000  Uiso   1.00
C364   C     0.40390   0.87209   0.48776   0.00000  Uiso   1.00
C365   C     0.59610   0.79458   0.01224   0.00000  Uiso   1.00
C366   C     0.48725   0.82051   0.47827   0.00000  Uiso   1.00
C367   C     0.51275   0.84616   0.02173   0.00000  Uiso   1.00
C368   C     0.48428   0.88673   0.04536   0.00000  Uiso   1.00
C369   C     0.51572   0.77994   0.45464   0.00000  Uiso   1.00
C370   C     0.42901   0.89617   0.03054   0.00000  Uiso   1.00
C371   C     0.57099   0.77049   0.46946   0.00000  Uiso   1.00
C372   C     0.35624   0.98617   0.24809   0.00000  Uiso   1.00
C373   C     0.64376   0.68050   0.25191   0.00000  Uiso   1.00
C374   C     0.35433   0.83712   0.34092   0.00000  Uiso   1.00
F375   F     0.51061   0.92116   0.07996   0.00000  Uiso   1.00
F376   F     0.48939   0.74551   0.42004   0.00000  Uiso   1.00
H377   H     0.40780   0.92608   0.05034   0.00000  Uiso   1.00
H378   H     0.60062   0.99659   0.25556   0.00000  Uiso   1.00
H379   H     0.49578   0.79148   0.21387   0.00000  Uiso   1.00
H380   H     0.50422   0.87518   0.28613   0.00000  Uiso   1.00
H381   H     0.59220   0.74058   0.44966   0.00000  Uiso   1.00
H382   H     0.55887   0.86192   0.11296   0.00000  Uiso   1.00
H383   H     0.44113   0.80474   0.38704   0.00000  Uiso   1.00
H384   H     0.37496   0.78092   0.09149   0.00000  Uiso   1.00
H385   H     0.62504   0.88574   0.40851   0.00000  Uiso   1.00
H386   H     0.65984   0.91278   0.49177   0.00000  Uiso   1.00
H387   H     0.34016   0.75388   0.00823   0.00000  Uiso   1.00
H388   H     0.39938   0.67007   0.24444   0.00000  Uiso   1.00
N389   N     0.48029   0.81883   0.23739   0.00000  Uiso   1.00
N390   N     0.51971   0.84784   0.26260   0.00000  Uiso   1.00
O391   O     0.63052   0.91298   0.25309   0.00000  Uiso   1.00
O392   O     0.36948   0.75369   0.24690   0.00000  Uiso   1.00
O393   O     0.39155   0.90368   0.24501   0.00000  Uiso   1.00
O394   O     0.60845   0.76298   0.25498   0.00000  Uiso   1.00
O395   O     0.63662   0.84063   0.32247   0.00000  Uiso   1.00
O396   O     0.36338   0.82603   0.17753   0.00000  Uiso   1.00
O397   O     0.39764   0.83134   0.31439   0.00000  Uiso   1.00
O398   O     0.60236   0.83533   0.18561   0.00000  Uiso   1.00
Zn399  Zn    0.60366   0.83954   0.25539   0.00000  Uiso   1.00
Zn400  Zn    0.39634   0.82713   0.24460   0.00000  Uiso   1.00
C401   C     0.68175   0.93157   0.24880   0.00000  Uiso   1.00
C402   C     0.97901   0.82955   0.15908   0.00000  Uiso   1.00
C403   C     0.69826   0.84247   0.39313   0.00000  Uiso   1.00
C404   C     0.96841   0.82420   0.10687   0.00000  Uiso   1.00
C405   C     0.68420   0.88693   0.47008   0.00000  Uiso   1.00
C406   C     0.98247   0.77973   0.02992   0.00000  Uiso   1.00
C407   C     0.99759   0.87147   0.42284   0.00000  Uiso   1.00
C408   C     0.66907   0.79519   0.07716   0.00000  Uiso   1.00
C409   C     0.74821   0.82407   0.41202   0.00000  Uiso   1.00
C410   C     0.91845   0.84259   0.08798   0.00000  Uiso   1.00
C411   C     0.76787   0.83682   0.45983   0.00000  Uiso   1.00
C412   C     0.98491   0.73509   0.25120   0.00000  Uiso   1.00
C413   C     0.89880   0.82985   0.04016   0.00000  Uiso   1.00
C414   C     0.73723   0.87209   0.48776   0.00000  Uiso   1.00
C415   C     0.92944   0.79458   0.01224   0.00000  Uiso   1.00
C416   C     0.82058   0.82051   0.47827   0.00000  Uiso   1.00
C417   C     0.84608   0.84616   0.02173   0.00000  Uiso   1.00
C418   C     0.81762   0.88673   0.04536   0.00000  Uiso   1.00
C419   C     0.84905   0.77994   0.45464   0.00000  Uiso   1.00
C420   C     0.76234   0.89617   0.03054   0.00000  Uiso   1.00
C421   C     0.90432   0.77049   0.46946   0.00000  Uiso   1.00
C422   C     0.68958   0.98617   0.24809   0.00000  Uiso   1.00
C423   C     0.97709   0.68050   0.25191   0.00000  Uiso   1.00
C424   C     0.68766   0.83712   0.34092   0.00000  Uiso   1.00
F425   F     0.84394   0.92116   0.07996   0.00000  Uiso   1.00
F426   F     0.82273   0.74551   0.42004   0.00000  Uiso   1.00
H427   H     0.74113   0.92608   0.05034   0.00000  Uiso   1.00
H428   H     0.93395   0.99659   0.25556   0.00000  Uiso   1.00
H429   H     0.82911   0.79148   0.21387   0.00000  Uiso   1.00
H430   H     0.83756   0.87518   0.28613   0.00000  Uiso   1.00
H431   H     0.92554   0.74058   0.44966   0.00000  Uiso   1.00
H432   H     0.89220   0.86192   0.11296   0.00000  Uiso   1.00
H433   H     0.77447   0.80474   0.38704   0.00000  Uiso   1.00
H434   H     0.70830   0.78092   0.09149   0.00000  Uiso   1.00
H435   H     0.95837   0.88574   0.40851   0.00000  Uiso   1.00
H436   H     0.99317   0.91278   0.49177   0.00000  Uiso   1.00
H437   H     0.67349   0.75388   0.00823   0.00000  Uiso   1.00
H438   H     0.73272   0.67007   0.24444   0.00000  Uiso   1.00
N439   N     0.81362   0.81883   0.23739   0.00000  Uiso   1.00
N440   N     0.85305   0.84784   0.26260   0.00000  Uiso   1.00
O441   O     0.96386   0.91298   0.25309   0.00000  Uiso   1.00
O442   O     0.70281   0.75369   0.24690   0.00000  Uiso   1.00
O443   O     0.72488   0.90368   0.24501   0.00000  Uiso   1.00
O444   O     0.94178   0.76298   0.25498   0.00000  Uiso   1.00
O445   O     0.96995   0.84063   0.32247   0.00000  Uiso   1.00
O446   O     0.69672   0.82603   0.17753   0.00000  Uiso   1.00
O447   O     0.73098   0.83134   0.31439   0.00000  Uiso   1.00
O448   O     0.93569   0.83533   0.18561   0.00000  Uiso   1.00
Zn449  Zn    0.93700   0.83954   0.25539   0.00000  Uiso   1.00
Zn450  Zn    0.72967   0.82713   0.24460   0.00000  Uiso   1.00
C451   C     0.01509   0.26491   0.74880   0.00000  Uiso   1.00
C452   C     0.31234   0.16288   0.65908   0.00000  Uiso   1.00
C453   C     0.03159   0.17580   0.89313   0.00000  Uiso   1.00
C454   C     0.30174   0.15753   0.60687   0.00000  Uiso   1.00
C455   C     0.01753   0.22027   0.97008   0.00000  Uiso   1.00
C456   C     0.31580   0.11307   0.52992   0.00000  Uiso   1.00
C457   C     0.33093   0.20481   0.92284   0.00000  Uiso   1.00
C458   C     0.00241   0.12853   0.57716   0.00000  Uiso   1.00
C459   C     0.08155   0.15741   0.91202   0.00000  Uiso   1.00
C460   C     0.25179   0.17593   0.58798   0.00000  Uiso   1.00
C461   C     0.10120   0.17015   0.95983   0.00000  Uiso   1.00
C462   C     0.31825   0.06843   0.75120   0.00000  Uiso   1.00
C463   C     0.23213   0.16318   0.54016   0.00000  Uiso   1.00
C464   C     0.07056   0.20542   0.98776   0.00000  Uiso   1.00
C465   C     0.26277   0.12791   0.51224   0.00000  Uiso   1.00
C466   C     0.15392   0.15384   0.97827   0.00000  Uiso   1.00
C467   C     0.17942   0.17949   0.52173   0.00000  Uiso   1.00
C468   C     0.15095   0.22006   0.54536   0.00000  Uiso   1.00
C469   C     0.18239   0.11327   0.95464   0.00000  Uiso   1.00
C470   C     0.09568   0.22951   0.53054   0.00000  Uiso   1.00
C471   C     0.23766   0.10383   0.96946   0.00000  Uiso   1.00
C472   C     0.02291   0.31950   0.74809   0.00000  Uiso   1.00
C473   C     0.31042   0.01383   0.75191   0.00000  Uiso   1.00
C474   C     0.02100   0.17045   0.84092   0.00000  Uiso   1.00
F475   F     0.17727   0.25449   0.57996   0.00000  Uiso   1.00
F476   F     0.15606   0.07884   0.92004   0.00000  Uiso   1.00
H477   H     0.07447   0.25942   0.55034   0.00000  Uiso   1.00
H478   H     0.26728   0.32993   0.75556   0.00000  Uiso   1.00
H479   H     0.16244   0.12482   0.71387   0.00000  Uiso   1.00
H480   H     0.17089   0.20852   0.78613   0.00000  Uiso   1.00
H481   H     0.25887   0.07392   0.94966   0.00000  Uiso   1.00
H482   H     0.22553   0.19526   0.61296   0.00000  Uiso   1.00
H483   H     0.10780   0.13808   0.88704   0.00000  Uiso   1.00
H484   H     0.04163   0.11426   0.59149   0.00000  Uiso   1.00
H485   H     0.29170   0.21908   0.90851   0.00000  Uiso   1.00
H486   H     0.32651   0.24612   0.99177   0.00000  Uiso   1.00
H487   H     0.00683   0.08722   0.50823   0.00000  Uiso   1.00
H488   H     0.06605   0.00341   0.74444   0.00000  Uiso   1.00
N489   N     0.14695   0.15216   0.73739   0.00000  Uiso   1.00
N490   N     0.18638   0.18117   0.76260   0.00000  Uiso   1.00
O491   O     0.29719   0.24631   0.75309   0.00000  Uiso   1.00
O492   O     0.03614   0.08702   0.74690   0.00000  Uiso   1.00
O493   O     0.05822   0.23702   0.74501   0.00000  Uiso   1.00
O494   O     0.27512   0.09632   0.75498   0.00000  Uiso   1.00
O495   O     0.30328   0.17397   0.82247   0.00000  Uiso   1.00
O496   O     0.03005   0.15937   0.67753   0.00000  Uiso   1.00
O497   O     0.06431   0.16467   0.81439   0.00000  Uiso   1.00
O498   O     0.26902   0.16866   0.68561   0.00000  Uiso   1.00
Zn499  Zn    0.27033   0.17287   0.75539   0.00000  Uiso   1.00
Zn500  Zn    0.06300   0.16046   0.74460   0.00000  Uiso   1.00
C501   C     0.34842   0.26491   0.74880   0.00000  Uiso   1.00
C502   C     0.64567   0.16288   0.65908   0.00000  Uiso   1.00
C503   C     0.36493   0.17580   0.89313   0.00000  Uiso   1.00
C504   C     0.63507   0.15753   0.60687   0.00000  Uiso   1.00
C505   C     0.35086   0.22027   0.97008   0.00000  Uiso   1.00
C506   C     0.64914   0.11307   0.52992   0.00000  Uiso   1.00
C507   C     0.66426   0.20481   0.92284   0.00000  Uiso   1.00
C508   C     0.33574   0.12853   0.57716   0.00000  Uiso   1.00
C509   C     0.41488   0.15741   0.91202   0.00000  Uiso   1.00
C510   C     0.58512   0.17593   0.58798   0.00000  Uiso   1.00
C511   C     0.43453   0.17015   0.95983   0.00000  Uiso   1.00
C512   C     0.65158   0.06843   0.75120   0.00000  Uiso   1.00
C513   C     0.56547   0.16318   0.54016   0.00000  Uiso   1.00
C514   C     0.40390   0.20542   0.98776   0.00000  Uiso   1.00
C515   C     0.59610   0.12791   0.51224   0.00000  Uiso   1.00
C516   C     0.48725   0.15384   0.97827   0.00000  Uiso   1.00
C517   C     0.51275   0.17949   0.52173   0.00000  Uiso   1.00
C518   C     0.48428   0.22006   0.54536   0.00000  Uiso   1.00
C519   C     0.51572   0.11327   0.95464   0.00000  Uiso   1.00
C520   C     0.42901   0.22951   0.53054   0.00000  Uiso   1.00
C521   C     0.57099   0.10383   0.96946   0.00000  Uiso   1.00
C522   C     0.35624   0.31950   0.74809   0.00000  Uiso   1.00
C523   C     0.64376   0.01383   0.75191   0.00000  Uiso   1.00
C524   C     0.35433   0.17045   0.84092   0.00000  Uiso   1.00
F525   F     0.51061   0.25449   0.57996   0.00000  Uiso   1.00
F526   F     0.48939   0.07884   0.92004   0.00000  Uiso   1.00
H527   H     0.40780   0.25942   0.55034   0.00000  Uiso   1.00
H528   H     0.60062   0.32993   0.75556   0.00000  Uiso   1.00
H529   H     0.49578   0.12482   0.71387   0.00000  Uiso   1.00
H530   H     0.50422   0.20852   0.78613   0.00000  Uiso   1.00
H531   H     0.59220   0.07392   0.94966   0.00000  Uiso   1.00
H532   H     0.55887   0.19526   0.61296   0.00000  Uiso   1.00
H533   H     0.44113   0.13808   0.88704   0.00000  Uiso   1.00
H534   H     0.37496   0.11426   0.59149   0.00000  Uiso   1.00
H535   H     0.62504   0.21908   0.90851   0.00000  Uiso   1.00
H536   H     0.65984   0.24612   0.99177   0.00000  Uiso   1.00
H537   H     0.34016   0.08722   0.50823   0.00000  Uiso   1.00
H538   H     0.39938   0.00341   0.74444   0.00000  Uiso   1.00
N539   N     0.48029   0.15216   0.73739   0.00000  Uiso   1.00
N540   N     0.51971   0.18117   0.76260   0.00000  Uiso   1.00
O541   O     0.63052   0.24631   0.75309   0.00000  Uiso   1.00
O542   O     0.36948   0.08702   0.74690   0.00000  Uiso   1.00
O543   O     0.39155   0.23702   0.74501   0.00000  Uiso   1.00
O544   O     0.60845   0.09632   0.75498   0.00000  Uiso   1.00
O545   O     0.63662   0.17397   0.82247   0.00000  Uiso   1.00
O546   O     0.36338   0.15937   0.67753   0.00000  Uiso   1.00
O547   O     0.39764   0.16467   0.81439   0.00000  Uiso   1.00
O548   O     0.60236   0.16866   0.68561   0.00000  Uiso   1.00
Zn549  Zn    0.60366   0.17287   0.75539   0.00000  Uiso   1.00
Zn550  Zn    0.39634   0.16046   0.74460   0.00000  Uiso   1.00
C551   C     0.68175   0.26491   0.74880   0.00000  Uiso   1.00
C552   C     0.97901   0.16288   0.65908   0.00000  Uiso   1.00
C553   C     0.69826   0.17580   0.89313   0.00000  Uiso   1.00
C554   C     0.96841   0.15753   0.60687   0.00000  Uiso   1.00
C555   C     0.68420   0.22027   0.97008   0.00000  Uiso   1.00
C556   C     0.98247   0.11307   0.52992   0.00000  Uiso   1.00
C557   C     0.99759   0.20481   0.92284   0.00000  Uiso   1.00
C558   C     0.66907   0.12853   0.57716   0.00000  Uiso   1.00
C559   C     0.74821   0.15741   0.91202   0.00000  Uiso   1.00
C560   C     0.91845   0.17593   0.58798   0.00000  Uiso   1.00
C561   C     0.76787   0.17015   0.95983   0.00000  Uiso   1.00
C562   C     0.98491   0.06843   0.75120   0.00000  Uiso   1.00
C563   C     0.89880   0.16318   0.54016   0.00000  Uiso   1.00
C564   C     0.73723   0.20542   0.98776   0.00000  Uiso   1.00
C565   C     0.92944   0.12791   0.51224   0.00000  Uiso   1.00
C566   C     0.82058   0.15384   0.97827   0.00000  Uiso   1.00
C567   C     0.84608   0.17949   0.52173   0.00000  Uiso   1.00
C568   C     0.81762   0.22006   0.54536   0.00000  Uiso   1.00
C569   C     0.84905   0.11327   0.95464   0.00000  Uiso   1.00
C570   C     0.76234   0.22951   0.53054   0.00000  Uiso   1.00
C571   C     0.90432   0.10383   0.96946   0.00000  Uiso   1.00
C572   C     0.68958   0.31950   0.74809   0.00000  Uiso   1.00
C573   C     0.97709   0.01383   0.75191   0.00000  Uiso   1.00
C574   C     0.68766   0.17045   0.84092   0.00000  Uiso   1.00
F575   F     0.84394   0.25449   0.57996   0.00000  Uiso   1.00
F576   F     0.82273   0.07884   0.92004   0.00000  Uiso   1.00
H577   H     0.74113   0.25942   0.55034   0.00000  Uiso   1.00
H578   H     0.93395   0.32993   0.75556   0.00000  Uiso   1.00
H579   H     0.82911   0.12482   0.71387   0.00000  Uiso   1.00
H580   H     0.83756   0.20852   0.78613   0.00000  Uiso   1.00
H581   H     0.92554   0.07392   0.94966   0.00000  Uiso   1.00
H582   H     0.89220   0.19526   0.61296   0.00000  Uiso   1.00
H583   H     0.77447   0.13808   0.88704   0.00000  Uiso   1.00
H584   H     0.70830   0.11426   0.59149   0.00000  Uiso   1.00
H585   H     0.95837   0.21908   0.90851   0.00000  Uiso   1.00
H586   H     0.99317   0.24612   0.99177   0.00000  Uiso   1.00
H587   H     0.67349   0.08722   0.50823   0.00000  Uiso   1.00
H588   H     0.73272   0.00341   0.74444   0.00000  Uiso   1.00
N589   N     0.81362   0.15216   0.73739   0.00000  Uiso   1.00
N590   N     0.85305   0.18117   0.76260   0.00000  Uiso   1.00
O591   O     0.96386   0.24631   0.75309   0.00000  Uiso   1.00
O592   O     0.70281   0.08702   0.74690   0.00000  Uiso   1.00
O593   O     0.72488   0.23702   0.74501   0.00000  Uiso   1.00
O594   O     0.94178   0.09632   0.75498   0.00000  Uiso   1.00
O595   O     0.96995   0.17397   0.82247   0.00000  Uiso   1.00
O596   O     0.69672   0.15937   0.67753   0.00000  Uiso   1.00
O597   O     0.73098   0.16467   0.81439   0.00000  Uiso   1.00
O598   O     0.93569   0.16866   0.68561   0.00000  Uiso   1.00
Zn599  Zn    0.93700   0.17287   0.75539   0.00000  Uiso   1.00
Zn600  Zn    0.72967   0.16046   0.74460   0.00000  Uiso   1.00
C601   C     0.01509   0.59824   0.74880   0.00000  Uiso   1.00
C602   C     0.31234   0.49622   0.65908   0.00000  Uiso   1.00
C603   C     0.03159   0.50913   0.89313   0.00000  Uiso   1.00
C604   C     0.30174   0.49087   0.60687   0.00000  Uiso   1.00
C605   C     0.01753   0.55360   0.97008   0.00000  Uiso   1.00
C606   C     0.31580   0.44640   0.52992   0.00000  Uiso   1.00
C607   C     0.33093   0.53814   0.92284   0.00000  Uiso   1.00
C608   C     0.00241   0.46186   0.57716   0.00000  Uiso   1.00
C609   C     0.08155   0.49074   0.91202   0.00000  Uiso   1.00
C610   C     0.25179   0.50926   0.58798   0.00000  Uiso   1.00
C611   C     0.10120   0.50349   0.95983   0.00000  Uiso   1.00
C612   C     0.31825   0.40176   0.75120   0.00000  Uiso   1.00
C613   C     0.23213   0.49651   0.54016   0.00000  Uiso   1.00
C614   C     0.07056   0.53875   0.98776   0.00000  Uiso   1.00
C615   C     0.26277   0.46125   0.51224   0.00000  Uiso   1.00
C616   C     0.15392   0.48718   0.97827   0.00000  Uiso   1.00
C617   C     0.17942   0.51282   0.52173   0.00000  Uiso   1.00
C618   C     0.15095   0.55340   0.54536   0.00000  Uiso   1.00
C619   C     0.18239   0.44660   0.95464   0.00000  Uiso   1.00
C620   C     0.09568   0.56284   0.53054   0.00000  Uiso   1.00
C621   C     0.23766   0.43716   0.96946   0.00000  Uiso   1.00
C622   C     0.02291   0.65284   0.74809   0.00000  Uiso   1.00
C623   C     0.31042   0.34716   0.75191   0.00000  Uiso   1.00
C624   C     0.02100   0.50378   0.84092   0.00000  Uiso   1.00
F625   F     0.17727   0.58782   0.57996   0.00000  Uiso   1.00
F626   F     0.15606   0.41218   0.92004   0.00000  Uiso   1.00
H627   H     0.07447   0.59275   0.55034   0.00000  Uiso   1.00
H628   H     0.26728   0.66326   0.75556   0.00000  Uiso   1.00
H629   H     0.16244   0.45815   0.71387   0.00000  Uiso   1.00
H630   H     0.17089   0.54185   0.78613   0.00000  Uiso   1.00
H631   H     0.25887   0.40725   0.94966   0.00000  Uiso   1.00
H632   H     0.22553   0.52859   0.61296   0.00000  Uiso   1.00
H633   H     0.10780   0.47141   0.88704   0.00000  Uiso   1.00
H634   H     0.04163   0.44759   0.59149   0.00000  Uiso   1.00
H635   H     0.29170   0.55241   0.90851   0.00000  Uiso   1.00
H636   H     0.32651   0.57945   0.99177   0.00000  Uiso   1.00
H637   H     0.00683   0.42055   0.50823   0.00000  Uiso   1.00
H638   H     0.06605   0.33674   0.74444   0.00000  Uiso   1.00
N639   N     0.14695   0.48550   0.73739   0.00000  Uiso   1.00
N640   N     0.18638   0.51450   0.76260   0.00000  Uiso   1.00
O641   O     0.29719   0.57964   0.75309   0.00000  Uiso   1.00
O642   O     0.03614   0.42036   0.74690   0.00000  Uiso   1.00
O643   O     0.05822   0.57035   0.74501   0.00000  Uiso   1.00
O644   O     0.27512   0.42965   0.75498   0.00000  Uiso   1.00
O645   O     0.30328   0.50730   0.82247   0.00000  Uiso   1.00
O646   O     0.03005   0.49270   0.67753   0.00000  Uiso   1.00
O647   O     0.06431   0.49801   0.81439   0.00000  Uiso   1.00
O648   O     0.26902   0.50199   0.68561   0.00000  Uiso   1.00
Zn649  Zn    0.27033   0.50621   0.75539   0.00000  Uiso   1.00
Zn650  Zn    0.06300   0.49379   0.74460   0.00000  Uiso   1.00
C651   C     0.34842   0.59824   0.74880   0.00000  Uiso   1.00
C652   C     0.64567   0.49622   0.65908   0.00000  Uiso   1.00
C653   C     0.36493   0.50913   0.89313   0.00000  Uiso   1.00
C654   C     0.63507   0.49087   0.60687   0.00000  Uiso   1.00
C655   C     0.35086   0.55360   0.97008   0.00000  Uiso   1.00
C656   C     0.64914   0.44640   0.52992   0.00000  Uiso   1.00
C657   C     0.66426   0.53814   0.92284   0.00000  Uiso   1.00
C658   C     0.33574   0.46186   0.57716   0.00000  Uiso   1.00
C659   C     0.41488   0.49074   0.91202   0.00000  Uiso   1.00
C660   C     0.58512   0.50926   0.58798   0.00000  Uiso   1.00
C661   C     0.43453   0.50349   0.95983   0.00000  Uiso   1.00
C662   C     0.65158   0.40176   0.75120   0.00000  Uiso   1.00
C663   C     0.56547   0.49651   0.54016   0.00000  Uiso   1.00
C664   C     0.40390   0.53875   0.98776   0.00000  Uiso   1.00
C665   C     0.59610   0.46125   0.51224   0.00000  Uiso   1.00
C666   C     0.48725   0.48718   0.97827   0.00000  Uiso   1.00
C667   C     0.51275   0.51282   0.52173   0.00000  Uiso   1.00
C668   C     0.48428   0.55340   0.54536   0.00000  Uiso   1.00
C669   C     0.51572   0.44660   0.95464   0.00000  Uiso   1.00
C670   C     0.42901   0.56284   0.53054   0.00000  Uiso   1.00
C671   C     0.57099   0.43716   0.96946   0.00000  Uiso   1.00
C672   C     0.35624   0.65284   0.74809   0.00000  Uiso   1.00
C673   C     0.64376   0.34716   0.75191   0.00000  Uiso   1.00
C674   C     0.35433   0.50378   0.84092   0.00000  Uiso   1.00
F675   F     0.51061   0.58782   0.57996   0.00000  Uiso   1.00
F676   F     0.48939   0.41218   0.92004   0.00000  Uiso   1.00
H677   H     0.40780   0.59275   0.55034   0.00000  Uiso   1.00
H678   H     0.60062   0.66326   0.75556   0.00000  Uiso   1.00
H679   H     0.49578   0.45815   0.71387   0.00000  Uiso   1.00
H680   H     0.50422   0.54185   0.78613   0.00000  Uiso   1.00
H681   H     0.59220   0.40725   0.94966   0.00000  Uiso   1.00
H682   H     0.55887   0.52859   0.61296   0.00000  Uiso   1.00
H683   H     0.44113   0.47141   0.88704   0.00000  Uiso   1.00
H684   H     0.37496   0.44759   0.59149   0.00000  Uiso   1.00
H685   H     0.62504   0.55241   0.90851   0.00000  Uiso   1.00
H686   H     0.65984   0.57945   0.99177   0.00000  Uiso   1.00
H687   H     0.34016   0.42055   0.50823   0.00000  Uiso   1.00
H688   H     0.39938   0.33674   0.74444   0.00000  Uiso   1.00
N689   N     0.48029   0.48550   0.73739   0.00000  Uiso   1.00
N690   N     0.51971   0.51450   0.76260   0.00000  Uiso   1.00
O691   O     0.63052   0.57964   0.75309   0.00000  Uiso   1.00
O692   O     0.36948   0.42036   0.74690   0.00000  Uiso   1.00
O693   O     0.39155   0.57035   0.74501   0.00000  Uiso   1.00
O694   O     0.60845   0.42965   0.75498   0.00000  Uiso   1.00
O695   O     0.63662   0.50730   0.82247   0.00000  Uiso   1.00
O696   O     0.36338   0.49270   0.67753   0.00000  Uiso   1.00
O697   O     0.39764   0.49801   0.81439   0.00000  Uiso   1.00
O698   O     0.60236   0.50199   0.68561   0.00000  Uiso   1.00
Zn699  Zn    0.60366   0.50621   0.75539   0.00000  Uiso   1.00
Zn700  Zn    0.39634   0.49379   0.74460   0.00000  Uiso   1.00
C701   C     0.68175   0.59824   0.74880   0.00000  Uiso   1.00
C702   C     0.97901   0.49622   0.65908   0.00000  Uiso   1.00
C703   C     0.69826   0.50913   0.89313   0.00000  Uiso   1.00
C704   C     0.96841   0.49087   0.60687   0.00000  Uiso   1.00
C705   C     0.68420   0.55360   0.97008   0.00000  Uiso   1.00
C706   C     0.98247   0.44640   0.52992   0.00000  Uiso   1.00
C707   C     0.99759   0.53814   0.92284   0.00000  Uiso   1.00
C708   C     0.66907   0.46186   0.57716   0.00000  Uiso   1.00
C709   C     0.74821   0.49074   0.91202   0.00000  Uiso   1.00
C710   C     0.91845   0.50926   0.58798   0.00000  Uiso   1.00
C711   C     0.76787   0.50349   0.95983   0.00000  Uiso   1.00
C712   C     0.98491   0.40176   0.75120   0.00000  Uiso   1.00
C713   C     0.89880   0.49651   0.54016   0.00000  Uiso   1.00
C714   C     0.73723   0.53875   0.98776   0.00000  Uiso   1.00
C715   C     0.92944   0.46125   0.51224   0.00000  Uiso   1.00
C716   C     0.82058   0.48718   0.97827   0.00000  Uiso   1.00
C717   C     0.84608   0.51282   0.52173   0.00000  Uiso   1.00
C718   C     0.81762   0.55340   0.54536   0.00000  Uiso   1.00
C719   C     0.84905   0.44660   0.95464   0.00000  Uiso   1.00
C720   C     0.76234   0.56284   0.53054   0.00000  Uiso   1.00
C721   C     0.90432   0.43716   0.96946   0.00000  Uiso   1.00
C722   C     0.68958   0.65284   0.74809   0.00000  Uiso   1.00
C723   C     0.97709   0.34716   0.75191   0.00000  Uiso   1.00
C724   C     0.68766   0.50378   0.84092   0.00000  Uiso   1.00
F725   F     0.84394   0.58782   0.57996   0.00000  Uiso   1.00
F726   F     0.82273   0.41218   0.92004   0.00000  Uiso   1.00
H727   H     0.74113   0.59275   0.55034   0.00000  Uiso   1.00
H728   H     0.93395   0.66326   0.75556   0.00000  Uiso   1.00
H729   H     0.82911   0.45815   0.71387   0.00000  Uiso   1.00
H730   H     0.83756   0.54185   0.78613   0.00000  Uiso   1.00
H731   H     0.92554   0.40725   0.94966   0.00000  Uiso   1.00
H732   H     0.89220   0.52859   0.61296   0.00000  Uiso   1.00
H733   H     0.77447   0.47141   0.88704   0.00000  Uiso   1.00
H734   H     0.70830   0.44759   0.59149   0.00000  Uiso   1.00
H735   H     0.95837   0.55241   0.90851   0.00000  Uiso   1.00
H736   H     0.99317   0.57945   0.99177   0.00000  Uiso   1.00
H737   H     0.67349   0.42055   0.50823   0.00000  Uiso   1.00
H738   H     0.73272   0.33674   0.74444   0.00000  Uiso   1.00
N739   N     0.81362   0.48550   0.73739   0.00000  Uiso   1.00
N740   N     0.85305   0.51450   0.76260   0.00000  Uiso   1.00
O741   O     0.96386   0.57964   0.75309   0.00000  Uiso   1.00
O742   O     0.70281   0.42036   0.74690   0.00000  Uiso   1.00
O743   O     0.72488   0.57035   0.74501   0.00000  Uiso   1.00
O744   O     0.94178   0.42965   0.75498   0.00000  Uiso   1.00
O745   O     0.96995   0.50730   0.82247   0.00000  Uiso   1.00
O746   O     0.69672   0.49270   0.67753   0.00000  Uiso   1.00
O747   O     0.73098   0.49801   0.81439   0.00000  Uiso   1.00
O748   O     0.93569   0.50199   0.68561   0.00000  Uiso   1.00
Zn749  Zn    0.93700   0.50621   0.75539   0.00000  Uiso   1.00
Zn750  Zn    0.72967   0.49379   0.74460   0.00000  Uiso   1.00
C751   C     0.01509   0.93157   0.74880   0.00000  Uiso   1.00
C752   C     0.31234   0.82955   0.65908   0.00000  Uiso   1.00
C753   C     0.03159   0.84247   0.89313   0.00000  Uiso   1.00
C754   C     0.30174   0.82420   0.60687   0.00000  Uiso   1.00
C755   C     0.01753   0.88693   0.97008   0.00000  Uiso   1.00
C756   C     0.31580   0.77973   0.52992   0.00000  Uiso   1.00
C757   C     0.33093   0.87147   0.92284   0.00000  Uiso   1.00
C758   C     0.00241   0.79519   0.57716   0.00000  Uiso   1.00
C759   C     0.08155   0.82407   0.91202   0.00000  Uiso   1.00
C760   C     0.25179   0.84259   0.58798   0.00000  Uiso   1.00
C761   C     0.10120   0.83682   0.95983   0.00000  Uiso   1.00
C762   C     0.31825   0.73509   0.75120   0.00000  Uiso   1.00
C763   C     0.23213   0.82985   0.54016   0.00000  Uiso   1.00
C764   C     0.07056   0.87209   0.98776   0.00000  Uiso   1.00
C765   C     0.26277   0.79458   0.51224   0.00000  Uiso   1.00
C766   C     0.15392   0.82051   0.97827   0.00000  Uiso   1.00
C767   C     0.17942   0.84616   0.52173   0.00000  Uiso   1.00
C768   C     0.15095   0.88673   0.54536   0.00000  Uiso   1.00
C769   C     0.18239   0.77994   0.95464   0.00000  Uiso   1.00
C770   C     0.09568   0.89617   0.53054   0.00000  Uiso   1.00
C771   C     0.23766   0.77049   0.96946   0.00000  Uiso   1.00
C772   C     0.02291   0.98617   0.74809   0.00000  Uiso   1.00
C773   C     0.31042   0.68050   0.75191   0.00000  Uiso   1.00
C774   C     0.02100   0.83712   0.84092   0.00000  Uiso   1.00
F775   F     0.17727   0.92116   0.57996   0.00000  Uiso   1.00
F776   F     0.15606   0.74551   0.92004   0.00000  Uiso   1.00
H777   H     0.07447   0.92608   0.55034   0.00000  Uiso   1.00
H778   H     0.26728   0.99659   0.75556   0.00000  Uiso   1.00
H779   H     0.16244   0.79148   0.71387   0.00000  Uiso   1.00
H780   H     0.17089   0.87518   0.78613   0.00000  Uiso   1.00
H781   H     0.25887   0.74058   0.94966   0.00000  Uiso   1.00
H782   H     0.22553   0.86192   0.61296   0.00000  Uiso   1.00
H783   H     0.10780   0.80474   0.88704   0.00000  Uiso   1.00
H784   H     0.04163   0.78092   0.59149   0.00000  Uiso   1.00
H785   H     0.29170   0.88574   0.90851   0.00000  Uiso   1.00
H786   H     0.32651   0.91278   0.99177   0.00000  Uiso   1.00
H787   H     0.00683   0.75388   0.50823   0.00000  Uiso   1.00
H788   H     0.06605   0.67007   0.74444   0.00000  Uiso   1.00
N789   N     0.14695   0.81883   0.73739   0.00000  Uiso   1.00
N790   N     0.18638   0.84784   0.76260   0.00000  Uiso   1.00
O791   O     0.29719   0.91298   0.75309   0.00000  Uiso   1.00
O792   O     0.03614   0.75369   0.74690   0.00000  Uiso   1.00
O793   O     0.05822   0.90368   0.74501   0.00000  Uiso   1.00
O794   O     0.27512   0.76298   0.75498   0.00000  Uiso   1.00
O795   O     0.30328   0.84063   0.82247   0.00000  Uiso   1.00
O796   O     0.03005   0.82603   0.67753   0.00000  Uiso   1.00
O797   O     0.06431   0.83134   0.81439   0.00000  Uiso   1.00
O798   O     0.26902   0.83533   0.68561   0.00000  Uiso   1.00
Zn799  Zn    0.27033   0.83954   0.75539   0.00000  Uiso   1.00
Zn800  Zn    0.06300   0.82713   0.74460   0.00000  Uiso   1.00
C801   C     0.34842   0.93157   0.74880   0.00000  Uiso   1.00
C802   C     0.64567   0.82955   0.65908   0.00000  Uiso   1.00
C803   C     0.36493   0.84247   0.89313   0.00000  Uiso   1.00
C804   C     0.63507   0.82420   0.60687   0.00000  Uiso   1.00
C805   C     0.35086   0.88693   0.97008   0.00000  Uiso   1.00
C806   C     0.64914   0.77973   0.52992   0.00000  Uiso   1.00
C807   C     0.66426   0.87147   0.92284   0.00000  Uiso   1.00
C808   C     0.33574   0.79519   0.57716   0.00000  Uiso   1.00
C809   C     0.41488   0.82407   0.91202   0.00000  Uiso   1.00
C810   C     0.58512   0.84259   0.58798   0.00000  Uiso   1.00
C811   C     0.43453   0.83682   0.95983   0.00000  Uiso   1.00
C812   C     0.65158   0.73509   0.75120   0.00000  Uiso   1.00
C813   C     0.56547   0.82985   0.54016   0.00000  Uiso   1.00
C814   C     0.40390   0.87209   0.98776   0.00000  Uiso   1.00
C815   C     0.59610   0.79458   0.51224   0.00000  Uiso   1.00
C816   C     0.48725   0.82051   0.97827   0.00000  Uiso   1.00
C817   C     0.51275   0.84616   0.52173   0.00000  Uiso   1.00
C818   C     0.48428   0.88673   0.54536   0.00000  Uiso   1.00
C819   C     0.51572   0.77994   0.95464   0.00000  Uiso   1.00
C820   C     0.42901   0.89617   0.53054   0.00000  Uiso   1.00
C821   C     0.57099   0.77049   0.96946   0.00000  Uiso   1.00
C822   C     0.35624   0.98617   0.74809   0.00000  Uiso   1.00
C823   C     0.64376   0.68050   0.75191   0.00000  Uiso   1.00
C824   C     0.35433   0.83712   0.84092   0.00000  Uiso   1.00
F825   F     0.51061   0.92116   0.57996   0.00000  Uiso   1.00
F826   F     0.48939   0.74551   0.92004   0.00000  Uiso   1.00
H827   H     0.40780   0.92608   0.55034   0.00000  Uiso   1.00
H828   H     0.60062   0.99659   0.75556   0.00000  Uiso   1.00
H829   H     0.49578   0.79148   0.71387   0.00000  Uiso   1.00
H830   H     0.50422   0.87518   0.78613   0.00000  Uiso   1.00
H831   H     0.59220   0.74058   0.94966   0.00000  Uiso   1.00
H832   H     0.55887   0.86192   0.61296   0.00000  Uiso   1.00
H833   H     0.44113   0.80474   0.88704   0.00000  Uiso   1.00
H834   H     0.37496   0.78092   0.59149   0.00000  Uiso   1.00
H835   H     0.62504   0.88574   0.90851   0.00000  Uiso   1.00
H836   H     0.65984   0.91278   0.99177   0.00000  Uiso   1.00
H837   H     0.34016   0.75388   0.50823   0.00000  Uiso   1.00
H838   H     0.39938   0.67007   0.74444   0.00000  Uiso   1.00
N839   N     0.48029   0.81883   0.73739   0.00000  Uiso   1.00
N840   N     0.51971   0.84784   0.76260   0.00000  Uiso   1.00
O841   O     0.63052   0.91298   0.75309   0.00000  Uiso   1.00
O842   O     0.36948   0.75369   0.74690   0.00000  Uiso   1.00
O843   O     0.39155   0.90368   0.74501   0.00000  Uiso   1.00
O844   O     0.60845   0.76298   0.75498   0.00000  Uiso   1.00
O845   O     0.63662   0.84063   0.82247   0.00000  Uiso   1.00
O846   O     0.36338   0.82603   0.67753   0.00000  Uiso   1.00
O847   O     0.39764   0.83134   0.81439   0.00000  Uiso   1.00
O848   O     0.60236   0.83533   0.68561   0.00000  Uiso   1.00
Zn849  Zn    0.60366   0.83954   0.75539   0.00000  Uiso   1.00
Zn850  Zn    0.39634   0.82713   0.74460   0.00000  Uiso   1.00
C851   C     0.68175   0.93157   0.74880   0.00000  Uiso   1.00
C852   C     0.97901   0.82955   0.65908   0.00000  Uiso   1.00
C853   C     0.69826   0.84247   0.89313   0.00000  Uiso   1.00
C854   C     0.96841   0.82420   0.60687   0.00000  Uiso   1.00
C855   C     0.68420   0.88693   0.97008   0.00000  Uiso   1.00
C856   C     0.98247   0.77973   0.52992   0.00000  Uiso   1.00
C857   C     0.99759   0.87147   0.92284   0.00000  Uiso   1.00
C858   C     0.66907   0.79519   0.57716   0.00000  Uiso   1.00
C859   C     0.74821   0.82407   0.91202   0.00000  Uiso   1.00
C860   C     0.91845   0.84259   0.58798   0.00000  Uiso   1.00
C861   C     0.76787   0.83682   0.95983   0.00000  Uiso   1.00
C862   C     0.98491   0.73509   0.75120   0.00000  Uiso   1.00
C863   C     0.89880   0.82985   0.54016   0.00000  Uiso   1.00
C864   C     0.73723   0.87209   0.98776   0.00000  Uiso   1.00
C865   C     0.92944   0.79458   0.51224   0.00000  Uiso   1.00
C866   C     0.82058   0.82051   0.97827   0.00000  Uiso   1.00
C867   C     0.84608   0.84616   0.52173   0.00000  Uiso   1.00
C868   C     0.81762   0.88673   0.54536   0.00000  Uiso   1.00
C869   C     0.84905   0.77994   0.95464   0.00000  Uiso   1.00
C870   C     0.76234   0.89617   0.53054   0.00000  Uiso   1.00
C871   C     0.90432   0.77049   0.96946   0.00000  Uiso   1.00
C872   C     0.68958   0.98617   0.74809   0.00000  Uiso   1.00
C873   C     0.97709   0.68050   0.75191   0.00000  Uiso   1.00
C874   C     0.68766   0.83712   0.84092   0.00000  Uiso   1.00
F875   F     0.84394   0.92116   0.57996   0.00000  Uiso   1.00
F876   F     0.82273   0.74551   0.92004   0.00000  Uiso   1.00
H877   H     0.74113   0.92608   0.55034   0.00000  Uiso   1.00
H878   H     0.93395   0.99659   0.75556   0.00000  Uiso   1.00
H879   H     0.82911   0.79148   0.71387   0.00000  Uiso   1.00
H880   H     0.83756   0.87518   0.78613   0.00000  Uiso   1.00
H881   H     0.92554   0.74058   0.94966   0.00000  Uiso   1.00
H882   H     0.89220   0.86192   0.61296   0.00000  Uiso   1.00
H883   H     0.77447   0.80474   0.88704   0.00000  Uiso   1.00
H884   H     0.70830   0.78092   0.59149   0.00000  Uiso   1.00
H885   H     0.95837   0.88574   0.90851   0.00000  Uiso   1.00
H886   H     0.99317   0.91278   0.99177   0.00000  Uiso   1.00
H887   H     0.67349   0.75388   0.50823   0.00000  Uiso   1.00
H888   H     0.73272   0.67007   0.74444   0.00000  Uiso   1.00
N889   N     0.81362   0.81883   0.73739   0.00000  Uiso   1.00
N890   N     0.85305   0.84784   0.76260   0.00000  Uiso   1.00
O891   O     0.96386   0.91298   0.75309   0.00000  Uiso   1.00
O892   O     0.70281   0.75369   0.74690   0.00000  Uiso   1.00
O893   O     0.72488   0.90368   0.74501   0.00000  Uiso   1.00
O894   O     0.94178   0.76298   0.75498   0.00000  Uiso   1.00
O895   O     0.96995   0.84063   0.82247   0.00000  Uiso   1.00
O896   O     0.69672   0.82603   0.67753   0.00000  Uiso   1.00
O897   O     0.73098   0.83134   0.81439   0.00000  Uiso   1.00
O898   O     0.93569   0.83533   0.68561   0.00000  Uiso   1.00
Zn899  Zn    0.93700   0.83954   0.75539   0.00000  Uiso   1.00
Zn900  Zn    0.72967   0.82713   0.74460   0.00000  Uiso   1.00
loop_
_geom_bond_atom_site_label_1
_geom_bond_atom_site_label_2
_geom_bond_distance
_geom_bond_site_symmetry_2
_ccdc_geom_bond_type
C1     C22     1.403   .     S
C1     O43     1.290   .     A
C1     O141    1.276   1_455 S
C2     C4      1.451   .     S
C2     O48     1.298   .     A
C2     O96     1.292   .     S
C3     C9      1.388   .     A
C3     C24     1.451   .     S
C3     C107    1.399   1_455 S
C4     C10     1.388   .     A
C4     C58     1.399   .     S
C5     C14     1.404   .     A
C5     C107    1.392   1_455 S
C5     H136    1.084   1_455 S
C6     C15     1.404   .     A
C6     C58     1.392   .     S
C6     H87     1.084   .     S
C7     H35     1.083   .     S
C7     C53     1.399   .     S
C7     C55     1.392   .     S
C8     H34     1.083   .     S
C8     C104    1.399   1_455 S
C8     C106    1.392   1_455 S
C9     C11     1.392   .     A
C9     H33     1.075   .     S
C10    H32     1.075   .     S
C10    C13     1.392   .     A
C11    C16     1.418   .     A
C11    C14     1.418   .     A
C12    O44     1.290   .     A
C12    C23     1.403   .     S
C12    O92     1.276   .     S
C13    C17     1.418   .     A
C13    C15     1.418   .     A
C14    C470    1.386   .     S
C15    C471    1.386   1_554 S
C16    C19     1.426   .     A
C16    C467    1.420   .     S
C17    C18     1.426   .     A
C17    C466    1.420   1_554 S
C18    C20     1.386   .     A
C18    F25     1.357   .     S
C19    C21     1.386   .     A
C19    F26     1.357   .     S
C20    H27     1.084   .     S
C20    C464    1.386   1_554 S
C21    H31     1.084   .     S
C21    C465    1.386   .     S
C22    C273    1.340   1_455 S
C22    H188    1.088   .     S
C23    C372    1.340   1_545 S
C23    H328    1.088   1_545 S
C24    O47     1.298   .     A
C24    O145    1.292   1_455 S
H28    C173    1.088   .     S
H29    N39     1.029   .     S
H30    N40     1.029   .     S
H36    C55     1.084   .     S
H37    C106    1.084   1_455 S
H38    C322    1.088   1_545 S
N39    Zn50    2.020   .     S
N39    N40     1.293   .     D
N40    Zn49    2.020   .     S
O41    Zn49    1.951   .     S
O41    C51     1.276   .     S
O42    Zn50    1.951   .     S
O42    C112    1.276   1_455 S
O43    Zn50    1.979   .     S
O44    Zn49    1.979   .     S
O45    Zn49    1.973   .     S
O45    C74     1.292   .     S
O46    Zn50    1.973   .     S
O46    C102    1.292   1_455 S
O47    Zn50    1.928   .     S
O48    Zn49    1.928   .     S
C51    C72     1.403   .     S
C51    O93     1.290   .     A
C52    C54     1.451   .     S
C52    O98     1.298   .     A
C52    O146    1.292   .     S
C53    C59     1.388   .     A
C53    C74     1.451   .     S
C54    C60     1.388   .     A
C54    C108    1.399   .     S
C55    C64     1.404   .     A
C56    C65     1.404   .     A
C56    C108    1.392   .     S
C56    H137    1.084   .     S
C57    H85     1.083   .     S
C57    C103    1.399   .     S
C57    C105    1.392   .     S
C58    H84     1.083   .     S
C59    C61     1.392   .     A
C59    H83     1.075   .     S
C60    H82     1.075   .     S
C60    C63     1.392   .     A
C61    C66     1.418   .     A
C61    C64     1.418   .     A
C62    O94     1.290   .     A
C62    C73     1.403   .     S
C62    O142    1.276   .     S
C63    C67     1.418   .     A
C63    C65     1.418   .     A
C64    C520    1.386   .     S
C65    C521    1.386   1_554 S
C66    C69     1.426   .     A
C66    C517    1.420   .     S
C67    C68     1.426   .     A
C67    C516    1.420   1_554 S
C68    C70     1.386   .     A
C68    F75     1.357   .     S
C69    C71     1.386   .     A
C69    F76     1.357   .     S
C70    H77     1.084   .     S
C70    C514    1.386   1_554 S
C71    H81     1.084   .     S
C71    C515    1.386   .     S
C72    C173    1.340   .     S
C72    H238    1.088   .     S
C73    C422    1.340   1_545 S
C73    H378    1.088   1_545 S
C74    O97     1.298   .     A
H78    C223    1.088   .     S
H79    N89     1.029   .     S
H80    N90     1.029   .     S
H86    C105    1.084   .     S
H88    C372    1.088   1_545 S
N89    Zn100   2.020   .     S
N89    N90     1.293   .     D
N90    Zn99    2.020   .     S
O91    Zn99    1.951   .     S
O91    C101    1.276   .     S
O92    Zn100   1.951   .     S
O93    Zn100   1.979   .     S
O94    Zn99    1.979   .     S
O95    Zn99    1.973   .     S
O95    C124    1.292   .     S
O96    Zn100   1.973   .     S
O97    Zn100   1.928   .     S
O98    Zn99    1.928   .     S
C101   C122    1.403   .     S
C101   O143    1.290   .     A
C102   C104    1.451   .     S
C102   O148    1.298   .     A
C102   O46     1.292   1_655 S
C103   C109    1.388   .     A
C103   C124    1.451   .     S
C104   C110    1.388   .     A
C104   C8      1.399   1_655 S
C105   C114    1.404   .     A
C106   C115    1.404   .     A
C106   C8      1.392   1_655 S
C106   H37     1.084   1_655 S
C107   H135    1.083   .     S
C107   C3      1.399   1_655 S
C107   C5      1.392   1_655 S
C108   H134    1.083   .     S
C109   C111    1.392   .     A
C109   H133    1.075   .     S
C110   H132    1.075   .     S
C110   C113    1.392   .     A
C111   C116    1.418   .     A
C111   C114    1.418   .     A
C112   O144    1.290   .     A
C112   C123    1.403   .     S
C112   O42     1.276   1_655 S
C113   C117    1.418   .     A
C113   C115    1.418   .     A
C114   C570    1.386   .     S
C115   C571    1.386   1_554 S
C116   C119    1.426   .     A
C116   C567    1.420   .     S
C117   C118    1.426   .     A
C117   C566    1.420   1_554 S
C118   C120    1.386   .     A
C118   F125    1.357   .     S
C119   C121    1.386   .     A
C119   F126    1.357   .     S
C120   H127    1.084   .     S
C120   C564    1.386   1_554 S
C121   H131    1.084   .     S
C121   C565    1.386   .     S
C122   C223    1.340   .     S
C122   H288    1.088   .     S
C123   C322    1.340   1_645 S
C123   H428    1.088   1_545 S
C124   O147    1.298   .     A
H128   C273    1.088   .     S
H129   N139    1.029   .     S
H130   N140    1.029   .     S
H136   C5      1.084   1_655 S
H138   C422    1.088   1_545 S
N139   Zn150   2.020   .     S
N139   N140    1.293   .     D
N140   Zn149   2.020   .     S
O141   Zn149   1.951   .     S
O141   C1      1.276   1_655 S
O142   Zn150   1.951   .     S
O143   Zn150   1.979   .     S
O144   Zn149   1.979   .     S
O145   Zn149   1.973   .     S
O145   C24     1.292   1_655 S
O146   Zn150   1.973   .     S
O147   Zn150   1.928   .     S
O148   Zn149   1.928   .     S
C151   C172    1.403   .     S
C151   O193    1.290   .     A
C151   O291    1.276   1_455 S
C152   C154    1.451   .     S
C152   O198    1.298   .     A
C152   O246    1.292   .     S
C153   C159    1.388   .     A
C153   C174    1.451   .     S
C153   C257    1.399   1_455 S
C154   C160    1.388   .     A
C154   C208    1.399   .     S
C155   C164    1.404   .     A
C155   C257    1.392   1_455 S
C155   H286    1.084   1_455 S
C156   C165    1.404   .     A
C156   C208    1.392   .     S
C156   H237    1.084   .     S
C157   H185    1.083   .     S
C157   C203    1.399   .     S
C157   C205    1.392   .     S
C158   H184    1.083   .     S
C158   C254    1.399   1_455 S
C158   C256    1.392   1_455 S
C159   C161    1.392   .     A
C159   H183    1.075   .     S
C160   H182    1.075   .     S
C160   C163    1.392   .     A
C161   C166    1.418   .     A
C161   C164    1.418   .     A
C162   O194    1.290   .     A
C162   C173    1.403   .     S
C162   O242    1.276   .     S
C163   C167    1.418   .     A
C163   C165    1.418   .     A
C164   C620    1.386   .     S
C165   C621    1.386   1_554 S
C166   C169    1.426   .     A
C166   C617    1.420   .     S
C167   C168    1.426   .     A
C167   C616    1.420   1_554 S
C168   C170    1.386   .     A
C168   F175    1.357   .     S
C169   C171    1.386   .     A
C169   F176    1.357   .     S
C170   H177    1.084   .     S
C170   C614    1.386   1_554 S
C171   H181    1.084   .     S
C171   C615    1.386   .     S
C172   C423    1.340   1_455 S
C172   H338    1.088   .     S
C174   O197    1.298   .     A
C174   O295    1.292   1_455 S
H178   C323    1.088   .     S
H179   N189    1.029   .     S
H180   N190    1.029   .     S
H186   C205    1.084   .     S
H187   C256    1.084   1_455 S
N189   Zn200   2.020   .     S
N189   N190    1.293   .     D
N190   Zn199   2.020   .     S
O191   Zn199   1.951   .     S
O191   C201    1.276   .     S
O192   Zn200   1.951   .     S
O192   C262    1.276   1_455 S
O193   Zn200   1.979   .     S
O194   Zn199   1.979   .     S
O195   Zn199   1.973   .     S
O195   C224    1.292   .     S
O196   Zn200   1.973   .     S
O196   C252    1.292   1_455 S
O197   Zn200   1.928   .     S
O198   Zn199   1.928   .     S
C201   C222    1.403   .     S
C201   O243    1.290   .     A
C202   C204    1.451   .     S
C202   O248    1.298   .     A
C202   O296    1.292   .     S
C203   C209    1.388   .     A
C203   C224    1.451   .     S
C204   C210    1.388   .     A
C204   C258    1.399   .     S
C205   C214    1.404   .     A
C206   C215    1.404   .     A
C206   C258    1.392   .     S
C206   H287    1.084   .     S
C207   H235    1.083   .     S
C207   C253    1.399   .     S
C207   C255    1.392   .     S
C208   H234    1.083   .     S
C209   C211    1.392   .     A
C209   H233    1.075   .     S
C210   H232    1.075   .     S
C210   C213    1.392   .     A
C211   C216    1.418   .     A
C211   C214    1.418   .     A
C212   O244    1.290   .     A
C212   C223    1.403   .     S
C212   O292    1.276   .     S
C213   C217    1.418   .     A
C213   C215    1.418   .     A
C214   C670    1.386   .     S
C215   C671    1.386   1_554 S
C216   C219    1.426   .     A
C216   C667    1.420   .     S
C217   C218    1.426   .     A
C217   C666    1.420   1_554 S
C218   C220    1.386   .     A
C218   F225    1.357   .     S
C219   C221    1.386   .     A
C219   F226    1.357   .     S
C220   H227    1.084   .     S
C220   C664    1.386   1_554 S
C221   H231    1.084   .     S
C221   C665    1.386   .     S
C222   C323    1.340   .     S
C222   H388    1.088   .     S
C224   O247    1.298   .     A
H228   C373    1.088   .     S
H229   N239    1.029   .     S
H230   N240    1.029   .     S
H236   C255    1.084   .     S
N239   Zn250   2.020   .     S
N239   N240    1.293   .     D
N240   Zn249   2.020   .     S
O241   Zn249   1.951   .     S
O241   C251    1.276   .     S
O242   Zn250   1.951   .     S
O243   Zn250   1.979   .     S
O244   Zn249   1.979   .     S
O245   Zn249   1.973   .     S
O245   C274    1.292   .     S
O246   Zn250   1.973   .     S
O247   Zn250   1.928   .     S
O248   Zn249   1.928   .     S
C251   C272    1.403   .     S
C251   O293    1.290   .     A
C252   C254    1.451   .     S
C252   O298    1.298   .     A
C252   O196    1.292   1_655 S
C253   C259    1.388   .     A
C253   C274    1.451   .     S
C254   C260    1.388   .     A
C254   C158    1.399   1_655 S
C255   C264    1.404   .     A
C256   C265    1.404   .     A
C256   C158    1.392   1_655 S
C256   H187    1.084   1_655 S
C257   H285    1.083   .     S
C257   C153    1.399   1_655 S
C257   C155    1.392   1_655 S
C258   H284    1.083   .     S
C259   C261    1.392   .     A
C259   H283    1.075   .     S
C260   H282    1.075   .     S
C260   C263    1.392   .     A
C261   C266    1.418   .     A
C261   C264    1.418   .     A
C262   O294    1.290   .     A
C262   C273    1.403   .     S
C262   O192    1.276   1_655 S
C263   C267    1.418   .     A
C263   C265    1.418   .     A
C264   C720    1.386   .     S
C265   C721    1.386   1_554 S
C266   C269    1.426   .     A
C266   C717    1.420   .     S
C267   C268    1.426   .     A
C267   C716    1.420   1_554 S
C268   C270    1.386   .     A
C268   F275    1.357   .     S
C269   C271    1.386   .     A
C269   F276    1.357   .     S
C270   H277    1.084   .     S
C270   C714    1.386   1_554 S
C271   H281    1.084   .     S
C271   C715    1.386   .     S
C272   C373    1.340   .     S
C272   H438    1.088   .     S
C273   C22     1.340   1_655 S
C274   O297    1.298   .     A
H278   C423    1.088   .     S
H279   N289    1.029   .     S
H280   N290    1.029   .     S
H286   C155    1.084   1_655 S
N289   Zn300   2.020   .     S
N289   N290    1.293   .     D
N290   Zn299   2.020   .     S
O291   Zn299   1.951   .     S
O291   C151    1.276   1_655 S
O292   Zn300   1.951   .     S
O293   Zn300   1.979   .     S
O294   Zn299   1.979   .     S
O295   Zn299   1.973   .     S
O295   C174    1.292   1_655 S
O296   Zn300   1.973   .     S
O297   Zn300   1.928   .     S
O298   Zn299   1.928   .     S
C301   C322    1.403   .     S
C301   O343    1.290   .     A
C301   O441    1.276   1_455 S
C302   C304    1.451   .     S
C302   O348    1.298   .     A
C302   O396    1.292   .     S
C303   C309    1.388   .     A
C303   C324    1.451   .     S
C303   C407    1.399   1_455 S
C304   C310    1.388   .     A
C304   C358    1.399   .     S
C305   C314    1.404   .     A
C305   C407    1.392   1_455 S
C305   H436    1.084   1_455 S
C306   C315    1.404   .     A
C306   C358    1.392   .     S
C306   H387    1.084   .     S
C307   H335    1.083   .     S
C307   C353    1.399   .     S
C307   C355    1.392   .     S
C308   H334    1.083   .     S
C308   C404    1.399   1_455 S
C308   C406    1.392   1_455 S
C309   C311    1.392   .     A
C309   H333    1.075   .     S
C310   H332    1.075   .     S
C310   C313    1.392   .     A
C311   C316    1.418   .     A
C311   C314    1.418   .     A
C312   O344    1.290   .     A
C312   C323    1.403   .     S
C312   O392    1.276   .     S
C313   C317    1.418   .     A
C313   C315    1.418   .     A
C314   C770    1.386   .     S
C315   C771    1.386   1_554 S
C316   C319    1.426   .     A
C316   C767    1.420   .     S
C317   C318    1.426   .     A
C317   C766    1.420   1_554 S
C318   C320    1.386   .     A
C318   F325    1.357   .     S
C319   C321    1.386   .     A
C319   F326    1.357   .     S
C320   H327    1.084   .     S
C320   C764    1.386   1_554 S
C321   H331    1.084   .     S
C321   C765    1.386   .     S
C322   C123    1.340   1_465 S
C322   H38     1.088   1_565 S
C324   O347    1.298   .     A
C324   O445    1.292   1_455 S
H328   C23     1.088   1_565 S
H329   N339    1.029   .     S
H330   N340    1.029   .     S
H336   C355    1.084   .     S
H337   C406    1.084   1_455 S
N339   Zn350   2.020   .     S
N339   N340    1.293   .     D
N340   Zn349   2.020   .     S
O341   Zn349   1.951   .     S
O341   C351    1.276   .     S
O342   Zn350   1.951   .     S
O342   C412    1.276   1_455 S
O343   Zn350   1.979   .     S
O344   Zn349   1.979   .     S
O345   Zn349   1.973   .     S
O345   C374    1.292   .     S
O346   Zn350   1.973   .     S
O346   C402    1.292   1_455 S
O347   Zn350   1.928   .     S
O348   Zn349   1.928   .     S
C351   C372    1.403   .     S
C351   O393    1.290   .     A
C352   C354    1.451   .     S
C352   O398    1.298   .     A
C352   O446    1.292   .     S
C353   C359    1.388   .     A
C353   C374    1.451   .     S
C354   C360    1.388   .     A
C354   C408    1.399   .     S
C355   C364    1.404   .     A
C356   C365    1.404   .     A
C356   C408    1.392   .     S
C356   H437    1.084   .     S
C357   H385    1.083   .     S
C357   C403    1.399   .     S
C357   C405    1.392   .     S
C358   H384    1.083   .     S
C359   C361    1.392   .     A
C359   H383    1.075   .     S
C360   H382    1.075   .     S
C360   C363    1.392   .     A
C361   C366    1.418   .     A
C361   C364    1.418   .     A
C362   O394    1.290   .     A
C362   C373    1.403   .     S
C362   O442    1.276   .     S
C363   C367    1.418   .     A
C363   C365    1.418   .     A
C364   C820    1.386   .     S
C365   C821    1.386   1_554 S
C366   C369    1.426   .     A
C366   C817    1.420   .     S
C367   C368    1.426   .     A
C367   C816    1.420   1_554 S
C368   C370    1.386   .     A
C368   F375    1.357   .     S
C369   C371    1.386   .     A
C369   F376    1.357   .     S
C370   H377    1.084   .     S
C370   C814    1.386   1_554 S
C371   H381    1.084   .     S
C371   C815    1.386   .     S
C372   C23     1.340   1_565 S
C372   H88     1.088   1_565 S
C374   O397    1.298   .     A
H378   C73     1.088   1_565 S
H379   N389    1.029   .     S
H380   N390    1.029   .     S
H386   C405    1.084   .     S
N389   Zn400   2.020   .     S
N389   N390    1.293   .     D
N390   Zn399   2.020   .     S
O391   Zn399   1.951   .     S
O391   C401    1.276   .     S
O392   Zn400   1.951   .     S
O393   Zn400   1.979   .     S
O394   Zn399   1.979   .     S
O395   Zn399   1.973   .     S
O395   C424    1.292   .     S
O396   Zn400   1.973   .     S
O397   Zn400   1.928   .     S
O398   Zn399   1.928   .     S
C401   C422    1.403   .     S
C401   O443    1.290   .     A
C402   C404    1.451   .     S
C402   O448    1.298   .     A
C402   O346    1.292   1_655 S
C403   C409    1.388   .     A
C403   C424    1.451   .     S
C404   C410    1.388   .     A
C404   C308    1.399   1_655 S
C405   C414    1.404   .     A
C406   C415    1.404   .     A
C406   C308    1.392   1_655 S
C406   H337    1.084   1_655 S
C407   H435    1.083   .     S
C407   C303    1.399   1_655 S
C407   C305    1.392   1_655 S
C408   H434    1.083   .     S
C409   C411    1.392   .     A
C409   H433    1.075   .     S
C410   H432    1.075   .     S
C410   C413    1.392   .     A
C411   C416    1.418   .     A
C411   C414    1.418   .     A
C412   O444    1.290   .     A
C412   C423    1.403   .     S
C412   O342    1.276   1_655 S
C413   C417    1.418   .     A
C413   C415    1.418   .     A
C414   C870    1.386   .     S
C415   C871    1.386   1_554 S
C416   C419    1.426   .     A
C416   C867    1.420   .     S
C417   C418    1.426   .     A
C417   C866    1.420   1_554 S
C418   C420    1.386   .     A
C418   F425    1.357   .     S
C419   C421    1.386   .     A
C419   F426    1.357   .     S
C420   H427    1.084   .     S
C420   C864    1.386   1_554 S
C421   H431    1.084   .     S
C421   C865    1.386   .     S
C422   C73     1.340   1_565 S
C422   H138    1.088   1_565 S
C423   C172    1.340   1_655 S
C424   O447    1.298   .     A
H428   C123    1.088   1_565 S
H429   N439    1.029   .     S
H430   N440    1.029   .     S
H436   C305    1.084   1_655 S
N439   Zn450   2.020   .     S
N439   N440    1.293   .     D
N440   Zn449   2.020   .     S
O441   Zn449   1.951   .     S
O441   C301    1.276   1_655 S
O442   Zn450   1.951   .     S
O443   Zn450   1.979   .     S
O444   Zn449   1.979   .     S
O445   Zn449   1.973   .     S
O445   C324    1.292   1_655 S
O446   Zn450   1.973   .     S
O447   Zn450   1.928   .     S
O448   Zn449   1.928   .     S
C451   C472    1.403   .     S
C451   O493    1.290   .     A
C451   O591    1.276   1_455 S
C452   C454    1.451   .     S
C452   O498    1.298   .     A
C452   O546    1.292   .     S
C453   C459    1.388   .     A
C453   C474    1.451   .     S
C453   C557    1.399   1_455 S
C454   C460    1.388   .     A
C454   C508    1.399   .     S
C455   C464    1.404   .     A
C455   C557    1.392   1_455 S
C455   H586    1.084   1_455 S
C456   C465    1.404   .     A
C456   C508    1.392   .     S
C456   H537    1.084   .     S
C457   H485    1.083   .     S
C457   C503    1.399   .     S
C457   C505    1.392   .     S
C458   H484    1.083   .     S
C458   C554    1.399   1_455 S
C458   C556    1.392   1_455 S
C459   C461    1.392   .     A
C459   H483    1.075   .     S
C460   H482    1.075   .     S
C460   C463    1.392   .     A
C461   C466    1.418   .     A
C461   C464    1.418   .     A
C462   O494    1.290   .     A
C462   C473    1.403   .     S
C462   O542    1.276   .     S
C463   C467    1.418   .     A
C463   C465    1.418   .     A
C464   C20     1.386   1_556 S
C466   C469    1.426   .     A
C466   C17     1.420   1_556 S
C467   C468    1.426   .     A
C468   C470    1.386   .     A
C468   F475    1.357   .     S
C469   C471    1.386   .     A
C469   F476    1.357   .     S
C470   H477    1.084   .     S
C471   H481    1.084   .     S
C471   C15     1.386   1_556 S
C472   C723    1.340   1_455 S
C472   H638    1.088   .     S
C473   C822    1.340   1_545 S
C473   H778    1.088   1_545 S
C474   O497    1.298   .     A
C474   O595    1.292   1_455 S
H478   C623    1.088   .     S
H479   N489    1.029   .     S
H480   N490    1.029   .     S
H486   C505    1.084   .     S
H487   C556    1.084   1_455 S
H488   C772    1.088   1_545 S
N489   Zn500   2.020   .     S
N489   N490    1.293   .     D
N490   Zn499   2.020   .     S
O491   Zn499   1.951   .     S
O491   C501    1.276   .     S
O492   Zn500   1.951   .     S
O492   C562    1.276   1_455 S
O493   Zn500   1.979   .     S
O494   Zn499   1.979   .     S
O495   Zn499   1.973   .     S
O495   C524    1.292   .     S
O496   Zn500   1.973   .     S
O496   C552    1.292   1_455 S
O497   Zn500   1.928   .     S
O498   Zn499   1.928   .     S
C501   C522    1.403   .     S
C501   O543    1.290   .     A
C502   C504    1.451   .     S
C502   O548    1.298   .     A
C502   O596    1.292   .     S
C503   C509    1.388   .     A
C503   C524    1.451   .     S
C504   C510    1.388   .     A
C504   C558    1.399   .     S
C505   C514    1.404   .     A
C506   C515    1.404   .     A
C506   C558    1.392   .     S
C506   H587    1.084   .     S
C507   H535    1.083   .     S
C507   C553    1.399   .     S
C507   C555    1.392   .     S
C508   H534    1.083   .     S
C509   C511    1.392   .     A
C509   H533    1.075   .     S
C510   H532    1.075   .     S
C510   C513    1.392   .     A
C511   C516    1.418   .     A
C511   C514    1.418   .     A
C512   O544    1.290   .     A
C512   C523    1.403   .     S
C512   O592    1.276   .     S
C513   C517    1.418   .     A
C513   C515    1.418   .     A
C514   C70     1.386   1_556 S
C516   C519    1.426   .     A
C516   C67     1.420   1_556 S
C517   C518    1.426   .     A
C518   C520    1.386   .     A
C518   F525    1.357   .     S
C519   C521    1.386   .     A
C519   F526    1.357   .     S
C520   H527    1.084   .     S
C521   H531    1.084   .     S
C521   C65     1.386   1_556 S
C522   C623    1.340   .     S
C522   H688    1.088   .     S
C523   C872    1.340   1_545 S
C523   H828    1.088   1_545 S
C524   O547    1.298   .     A
H528   C673    1.088   .     S
H529   N539    1.029   .     S
H530   N540    1.029   .     S
H536   C555    1.084   .     S
H538   C822    1.088   1_545 S
N539   Zn550   2.020   .     S
N539   N540    1.293   .     D
N540   Zn549   2.020   .     S
O541   Zn549   1.951   .     S
O541   C551    1.276   .     S
O542   Zn550   1.951   .     S
O543   Zn550   1.979   .     S
O544   Zn549   1.979   .     S
O545   Zn549   1.973   .     S
O545   C574    1.292   .     S
O546   Zn550   1.973   .     S
O547   Zn550   1.928   .     S
O548   Zn549   1.928   .     S
C551   C572    1.403   .     S
C551   O593    1.290   .     A
C552   C554    1.451   .     S
C552   O598    1.298   .     A
C552   O496    1.292   1_655 S
C553   C559    1.388   .     A
C553   C574    1.451   .     S
C554   C560    1.388   .     A
C554   C458    1.399   1_655 S
C555   C564    1.404   .     A
C556   C565    1.404   .     A
C556   C458    1.392   1_655 S
C556   H487    1.084   1_655 S
C557   H585    1.083   .     S
C557   C453    1.399   1_655 S
C557   C455    1.392   1_655 S
C558   H584    1.083   .     S
C559   C561    1.392   .     A
C559   H583    1.075   .     S
C560   H582    1.075   .     S
C560   C563    1.392   .     A
C561   C566    1.418   .     A
C561   C564    1.418   .     A
C562   O594    1.290   .     A
C562   C573    1.403   .     S
C562   O492    1.276   1_655 S
C563   C567    1.418   .     A
C563   C565    1.418   .     A
C564   C120    1.386   1_556 S
C566   C569    1.426   .     A
C566   C117    1.420   1_556 S
C567   C568    1.426   .     A
C568   C570    1.386   .     A
C568   F575    1.357   .     S
C569   C571    1.386   .     A
C569   F576    1.357   .     S
C570   H577    1.084   .     S
C571   H581    1.084   .     S
C571   C115    1.386   1_556 S
C572   C673    1.340   .     S
C572   H738    1.088   .     S
C573   C772    1.340   1_645 S
C573   H878    1.088   1_545 S
C574   O597    1.298   .     A
H578   C723    1.088   .     S
H579   N589    1.029   .     S
H580   N590    1.029   .     S
H586   C455    1.084   1_655 S
H588   C872    1.088   1_545 S
N589   Zn600   2.020   .     S
N589   N590    1.293   .     D
N590   Zn599   2.020   .     S
O591   Zn599   1.951   .     S
O591   C451    1.276   1_655 S
O592   Zn600   1.951   .     S
O593   Zn600   1.979   .     S
O594   Zn599   1.979   .     S
O595   Zn599   1.973   .     S
O595   C474    1.292   1_655 S
O596   Zn600   1.973   .     S
O597   Zn600   1.928   .     S
O598   Zn599   1.928   .     S
C601   C622    1.403   .     S
C601   O643    1.290   .     A
C601   O741    1.276   1_455 S
C602   C604    1.451   .     S
C602   O648    1.298   .     A
C602   O696    1.292   .     S
C603   C609    1.388   .     A
C603   C624    1.451   .     S
C603   C707    1.399   1_455 S
C604   C610    1.388   .     A
C604   C658    1.399   .     S
C605   C614    1.404   .     A
C605   C707    1.392   1_455 S
C605   H736    1.084   1_455 S
C606   C615    1.404   .     A
C606   C658    1.392   .     S
C606   H687    1.084   .     S
C607   H635    1.083   .     S
C607   C653    1.399   .     S
C607   C655    1.392   .     S
C608   H634    1.083   .     S
C608   C704    1.399   1_455 S
C608   C706    1.392   1_455 S
C609   C611    1.392   .     A
C609   H633    1.075   .     S
C610   H632    1.075   .     S
C610   C613    1.392   .     A
C611   C616    1.418   .     A
C611   C614    1.418   .     A
C612   O644    1.290   .     A
C612   C623    1.403   .     S
C612   O692    1.276   .     S
C613   C617    1.418   .     A
C613   C615    1.418   .     A
C614   C170    1.386   1_556 S
C616   C619    1.426   .     A
C616   C167    1.420   1_556 S
C617   C618    1.426   .     A
C618   C620    1.386   .     A
C618   F625    1.357   .     S
C619   C621    1.386   .     A
C619   F626    1.357   .     S
C620   H627    1.084   .     S
C621   H631    1.084   .     S
C621   C165    1.386   1_556 S
C622   C873    1.340   1_455 S
C622   H788    1.088   .     S
C624   O647    1.298   .     A
C624   O745    1.292   1_455 S
H628   C773    1.088   .     S
H629   N639    1.029   .     S
H630   N640    1.029   .     S
H636   C655    1.084   .     S
H637   C706    1.084   1_455 S
N639   Zn650   2.020   .     S
N639   N640    1.293   .     D
N640   Zn649   2.020   .     S
O641   Zn649   1.951   .     S
O641   C651    1.276   .     S
O642   Zn650   1.951   .     S
O642   C712    1.276   1_455 S
O643   Zn650   1.979   .     S
O644   Zn649   1.979   .     S
O645   Zn649   1.973   .     S
O645   C674    1.292   .     S
O646   Zn650   1.973   .     S
O646   C702    1.292   1_455 S
O647   Zn650   1.928   .     S
O648   Zn649   1.928   .     S
C651   C672    1.403   .     S
C651   O693    1.290   .     A
C652   C654    1.451   .     S
C652   O698    1.298   .     A
C652   O746    1.292   .     S
C653   C659    1.388   .     A
C653   C674    1.451   .     S
C654   C660    1.388   .     A
C654   C708    1.399   .     S
C655   C664    1.404   .     A
C656   C665    1.404   .     A
C656   C708    1.392   .     S
C656   H737    1.084   .     S
C657   H685    1.083   .     S
C657   C703    1.399   .     S
C657   C705    1.392   .     S
C658   H684    1.083   .     S
C659   C661    1.392   .     A
C659   H683    1.075   .     S
C660   H682    1.075   .     S
C660   C663    1.392   .     A
C661   C666    1.418   .     A
C661   C664    1.418   .     A
C662   O694    1.290   .     A
C662   C673    1.403   .     S
C662   O742    1.276   .     S
C663   C667    1.418   .     A
C663   C665    1.418   .     A
C664   C220    1.386   1_556 S
C666   C669    1.426   .     A
C666   C217    1.420   1_556 S
C667   C668    1.426   .     A
C668   C670    1.386   .     A
C668   F675    1.357   .     S
C669   C671    1.386   .     A
C669   F676    1.357   .     S
C670   H677    1.084   .     S
C671   H681    1.084   .     S
C671   C215    1.386   1_556 S
C672   C773    1.340   .     S
C672   H838    1.088   .     S
C674   O697    1.298   .     A
H678   C823    1.088   .     S
H679   N689    1.029   .     S
H680   N690    1.029   .     S
H686   C705    1.084   .     S
N689   Zn700   2.020   .     S
N689   N690    1.293   .     D
N690   Zn699   2.020   .     S
O691   Zn699   1.951   .     S
O691   C701    1.276   .     S
O692   Zn700   1.951   .     S
O693   Zn700   1.979   .     S
O694   Zn699   1.979   .     S
O695   Zn699   1.973   .     S
O695   C724    1.292   .     S
O696   Zn700   1.973   .     S
O697   Zn700   1.928   .     S
O698   Zn699   1.928   .     S
C701   C722    1.403   .     S
C701   O743    1.290   .     A
C702   C704    1.451   .     S
C702   O748    1.298   .     A
C702   O646    1.292   1_655 S
C703   C709    1.388   .     A
C703   C724    1.451   .     S
C704   C710    1.388   .     A
C704   C608    1.399   1_655 S
C705   C714    1.404   .     A
C706   C715    1.404   .     A
C706   C608    1.392   1_655 S
C706   H637    1.084   1_655 S
C707   H735    1.083   .     S
C707   C603    1.399   1_655 S
C707   C605    1.392   1_655 S
C708   H734    1.083   .     S
C709   C711    1.392   .     A
C709   H733    1.075   .     S
C710   H732    1.075   .     S
C710   C713    1.392   .     A
C711   C716    1.418   .     A
C711   C714    1.418   .     A
C712   O744    1.290   .     A
C712   C723    1.403   .     S
C712   O642    1.276   1_655 S
C713   C717    1.418   .     A
C713   C715    1.418   .     A
C714   C270    1.386   1_556 S
C716   C719    1.426   .     A
C716   C267    1.420   1_556 S
C717   C718    1.426   .     A
C718   C720    1.386   .     A
C718   F725    1.357   .     S
C719   C721    1.386   .     A
C719   F726    1.357   .     S
C720   H727    1.084   .     S
C721   H731    1.084   .     S
C721   C265    1.386   1_556 S
C722   C823    1.340   .     S
C722   H888    1.088   .     S
C723   C472    1.340   1_655 S
C724   O747    1.298   .     A
H728   C873    1.088   .     S
H729   N739    1.029   .     S
H730   N740    1.029   .     S
H736   C605    1.084   1_655 S
N739   Zn750   2.020   .     S
N739   N740    1.293   .     D
N740   Zn749   2.020   .     S
O741   Zn749   1.951   .     S
O741   C601    1.276   1_655 S
O742   Zn750   1.951   .     S
O743   Zn750   1.979   .     S
O744   Zn749   1.979   .     S
O745   Zn749   1.973   .     S
O745   C624    1.292   1_655 S
O746   Zn750   1.973   .     S
O747   Zn750   1.928   .     S
O748   Zn749   1.928   .     S
C751   C772    1.403   .     S
C751   O793    1.290   .     A
C751   O891    1.276   1_455 S
C752   C754    1.451   .     S
C752   O798    1.298   .     A
C752   O846    1.292   .     S
C753   C759    1.388   .     A
C753   C774    1.451   .     S
C753   C857    1.399   1_455 S
C754   C760    1.388   .     A
C754   C808    1.399   .     S
C755   C764    1.404   .     A
C755   C857    1.392   1_455 S
C755   H886    1.084   1_455 S
C756   C765    1.404   .     A
C756   C808    1.392   .     S
C756   H837    1.084   .     S
C757   H785    1.083   .     S
C757   C803    1.399   .     S
C757   C805    1.392   .     S
C758   H784    1.083   .     S
C758   C854    1.399   1_455 S
C758   C856    1.392   1_455 S
C759   C761    1.392   .     A
C759   H783    1.075   .     S
C760   H782    1.075   .     S
C760   C763    1.392   .     A
C761   C766    1.418   .     A
C761   C764    1.418   .     A
C762   O794    1.290   .     A
C762   C773    1.403   .     S
C762   O842    1.276   .     S
C763   C767    1.418   .     A
C763   C765    1.418   .     A
C764   C320    1.386   1_556 S
C766   C769    1.426   .     A
C766   C317    1.420   1_556 S
C767   C768    1.426   .     A
C768   C770    1.386   .     A
C768   F775    1.357   .     S
C769   C771    1.386   .     A
C769   F776    1.357   .     S
C770   H777    1.084   .     S
C771   H781    1.084   .     S
C771   C315    1.386   1_556 S
C772   C573    1.340   1_465 S
C772   H488    1.088   1_565 S
C774   O797    1.298   .     A
C774   O895    1.292   1_455 S
H778   C473    1.088   1_565 S
H779   N789    1.029   .     S
H780   N790    1.029   .     S
H786   C805    1.084   .     S
H787   C856    1.084   1_455 S
N789   Zn800   2.020   .     S
N789   N790    1.293   .     D
N790   Zn799   2.020   .     S
O791   Zn799   1.951   .     S
O791   C801    1.276   .     S
O792   Zn800   1.951   .     S
O792   C862    1.276   1_455 S
O793   Zn800   1.979   .     S
O794   Zn799   1.979   .     S
O795   Zn799   1.973   .     S
O795   C824    1.292   .     S
O796   Zn800   1.973   .     S
O796   C852    1.292   1_455 S
O797   Zn800   1.928   .     S
O798   Zn799   1.928   .     S
C801   C822    1.403   .     S
C801   O843    1.290   .     A
C802   C804    1.451   .     S
C802   O848    1.298   .     A
C802   O896    1.292   .     S
C803   C809    1.388   .     A
C803   C824    1.451   .     S
C804   C810    1.388   .     A
C804   C858    1.399   .     S
C805   C814    1.404   .     A
C806   C815    1.404   .     A
C806   C858    1.392   .     S
C806   H887    1.084   .     S
C807   H835    1.083   .     S
C807   C853    1.399   .     S
C807   C855    1.392   .     S
C808   H834    1.083   .     S
C809   C811    1.392   .     A
C809   H833    1.075   .     S
C810   H832    1.075   .     S
C810   C813    1.392   .     A
C811   C816    1.418   .     A
C811   C814    1.418   .     A
C812   O844    1.290   .     A
C812   C823    1.403   .     S
C812   O892    1.276   .     S
C813   C817    1.418   .     A
C813   C815    1.418   .     A
C814   C370    1.386   1_556 S
C816   C819    1.426   .     A
C816   C367    1.420   1_556 S
C817   C818    1.426   .     A
C818   C820    1.386   .     A
C818   F825    1.357   .     S
C819   C821    1.386   .     A
C819   F826    1.357   .     S
C820   H827    1.084   .     S
C821   H831    1.084   .     S
C821   C365    1.386   1_556 S
C822   C473    1.340   1_565 S
C822   H538    1.088   1_565 S
C824   O847    1.298   .     A
H828   C523    1.088   1_565 S
H829   N839    1.029   .     S
H830   N840    1.029   .     S
H836   C855    1.084   .     S
N839   Zn850   2.020   .     S
N839   N840    1.293   .     D
N840   Zn849   2.020   .     S
O841   Zn849   1.951   .     S
O841   C851    1.276   .     S
O842   Zn850   1.951   .     S
O843   Zn850   1.979   .     S
O844   Zn849   1.979   .     S
O845   Zn849   1.973   .     S
O845   C874    1.292   .     S
O846   Zn850   1.973   .     S
O847   Zn850   1.928   .     S
O848   Zn849   1.928   .     S
C851   C872    1.403   .     S
C851   O893    1.290   .     A
C852   C854    1.451   .     S
C852   O898    1.298   .     A
C852   O796    1.292   1_655 S
C853   C859    1.388   .     A
C853   C874    1.451   .     S
C854   C860    1.388   .     A
C854   C758    1.399   1_655 S
C855   C864    1.404   .     A
C856   C865    1.404   .     A
C856   C758    1.392   1_655 S
C856   H787    1.084   1_655 S
C857   H885    1.083   .     S
C857   C753    1.399   1_655 S
C857   C755    1.392   1_655 S
C858   H884    1.083   .     S
C859   C861    1.392   .     A
C859   H883    1.075   .     S
C860   H882    1.075   .     S
C860   C863    1.392   .     A
C861   C866    1.418   .     A
C861   C864    1.418   .     A
C862   O894    1.290   .     A
C862   C873    1.403   .     S
C862   O792    1.276   1_655 S
C863   C867    1.418   .     A
C863   C865    1.418   .     A
C864   C420    1.386   1_556 S
C866   C869    1.426   .     A
C866   C417    1.420   1_556 S
C867   C868    1.426   .     A
C868   C870    1.386   .     A
C868   F875    1.357   .     S
C869   C871    1.386   .     A
C869   F876    1.357   .     S
C870   H877    1.084   .     S
C871   H881    1.084   .     S
C871   C415    1.386   1_556 S
C872   C523    1.340   1_565 S
C872   H588    1.088   1_565 S
C873   C622    1.340   1_655 S
C874   O897    1.298   .     A
H878   C573    1.088   1_565 S
H879   N889    1.029   .     S
H880   N890    1.029   .     S
H886   C755    1.084   1_655 S
N889   Zn900   2.020   .     S
N889   N890    1.293   .     D
N890   Zn899   2.020   .     S
O891   Zn899   1.951   .     S
O891   C751    1.276   1_655 S
O892   Zn900   1.951   .     S
O893   Zn900   1.979   .     S
O894   Zn899   1.979   .     S
O895   Zn899   1.973   .     S
O895   C774    1.292   1_655 S
O896   Zn900   1.973   .     S
O897   Zn900   1.928   .     S
O898   Zn899   1.928   .     S
