data_str_m3_o1_o1_pcu_sym.18
_audit_creation_date              2020-01-03
_audit_creation_method            'Materials Studio'
_symmetry_space_group_name_H-M    'P1'
_symmetry_Int_Tables_number       1
_symmetry_cell_setting            triclinic
loop_
_symmetry_equiv_pos_as_xyz
  x,y,z
_cell_length_a                    32.7580
_cell_length_b                    28.6491
_cell_length_c                    29.8665
_cell_angle_alpha                 89.9673
_cell_angle_beta                  89.9994
_cell_angle_gamma                 89.9999
loop_
_atom_site_label
_atom_site_type_symbol
_atom_site_fract_x
_atom_site_fract_y
_atom_site_fract_z
_atom_site_U_iso_or_equiv
_atom_site_adp_type
_atom_site_occupancy
O1     O     0.04581   0.20419   0.20487   0.00000  Uiso   1.00
O2     O     0.45420   0.29581   0.12846   0.00000  Uiso   1.00
O3     O     0.45420   0.29581   0.20487   0.00000  Uiso   1.00
O4     O     0.04581   0.20419   0.12846   0.00000  Uiso   1.00
O5     O     0.45420   0.20419   0.12846   0.00000  Uiso   1.00
O6     O     0.04581   0.29581   0.20487   0.00000  Uiso   1.00
O7     O     0.04581   0.29581   0.12846   0.00000  Uiso   1.00
O8     O     0.45420   0.20419   0.20487   0.00000  Uiso   1.00
O9     O     0.29581   0.45419   0.20487   0.00000  Uiso   1.00
O10    O     0.20420   0.04581   0.12846   0.00000  Uiso   1.00
O11    O     0.20420   0.04581   0.20487   0.00000  Uiso   1.00
O12    O     0.29581   0.45419   0.12846   0.00000  Uiso   1.00
O13    O     0.20420   0.45419   0.12846   0.00000  Uiso   1.00
O14    O     0.29581   0.04581   0.20487   0.00000  Uiso   1.00
O15    O     0.29581   0.04581   0.12846   0.00000  Uiso   1.00
O16    O     0.20420   0.45419   0.20487   0.00000  Uiso   1.00
C17    C     0.06031   0.19045   0.16621   0.00000  Uiso   1.00
C18    C     0.43972   0.30958   0.16621   0.00000  Uiso   1.00
C19    C     0.43972   0.19042   0.16713   0.00000  Uiso   1.00
C20    C     0.06031   0.30955   0.16712   0.00000  Uiso   1.00
C21    C     0.31028   0.44042   0.16713   0.00000  Uiso   1.00
C22    C     0.18969   0.05955   0.16712   0.00000  Uiso   1.00
C23    C     0.18969   0.44045   0.16621   0.00000  Uiso   1.00
C24    C     0.31028   0.05958   0.16621   0.00000  Uiso   1.00
N25    N     0.00000   0.25000   0.28573   0.00000  Uiso   1.00
N26    N     0.00000   0.25000   0.04760   0.00000  Uiso   1.00
N27    N     0.25000   0.00000   0.28573   0.00000  Uiso   1.00
N28    N     0.25000   0.00000   0.04760   0.00000  Uiso   1.00
Zn29   Zn    0.00000   0.25000   0.21771   0.00000  Uiso   1.00
Zn30   Zn    0.00000   0.25000   0.11563   0.00000  Uiso   1.00
Zn31   Zn    0.25000   0.00000   0.21771   0.00000  Uiso   1.00
Zn32   Zn    0.25000   0.00000   0.11563   0.00000  Uiso   1.00
C33    C     0.00338   0.29081   0.02347   0.00000  Uiso   1.00
C34    C     0.00338   0.20919   0.30986   0.00000  Uiso   1.00
C35    C     0.49659   0.20920   0.02354   0.00000  Uiso   1.00
C36    C     0.49659   0.29080   0.30980   0.00000  Uiso   1.00
C37    C     0.24662   0.04081   0.02347   0.00000  Uiso   1.00
C38    C     0.24663   0.45919   0.30986   0.00000  Uiso   1.00
C39    C     0.25341   0.45920   0.02354   0.00000  Uiso   1.00
C40    C     0.25341   0.04080   0.30980   0.00000  Uiso   1.00
C41    C     0.37905   0.15769   0.13154   0.00000  Uiso   1.00
C42    C     0.10022   0.37235   0.20498   0.00000  Uiso   1.00
C43    C     0.12086   0.34249   0.13142   0.00000  Uiso   1.00
C44    C     0.39993   0.12740   0.20486   0.00000  Uiso   1.00
C45    C     0.12086   0.15751   0.20191   0.00000  Uiso   1.00
C46    C     0.39993   0.37260   0.12848   0.00000  Uiso   1.00
C47    C     0.37905   0.34231   0.20179   0.00000  Uiso   1.00
C48    C     0.10022   0.12765   0.12836   0.00000  Uiso   1.00
C49    C     0.14978   0.37766   0.12835   0.00000  Uiso   1.00
C50    C     0.37095   0.09231   0.20179   0.00000  Uiso   1.00
C51    C     0.35007   0.12260   0.12848   0.00000  Uiso   1.00
C52    C     0.12914   0.40751   0.20191   0.00000  Uiso   1.00
C53    C     0.35007   0.37740   0.20486   0.00000  Uiso   1.00
C54    C     0.12914   0.09249   0.13143   0.00000  Uiso   1.00
C55    C     0.14978   0.12235   0.20498   0.00000  Uiso   1.00
C56    C     0.37095   0.40769   0.13154   0.00000  Uiso   1.00
C57    C     0.09479   0.34111   0.16857   0.00000  Uiso   1.00
C58    C     0.40524   0.15885   0.16857   0.00000  Uiso   1.00
C59    C     0.40524   0.34116   0.16476   0.00000  Uiso   1.00
C60    C     0.09479   0.15889   0.16476   0.00000  Uiso   1.00
C61    C     0.34476   0.09116   0.16476   0.00000  Uiso   1.00
C62    C     0.15521   0.40889   0.16476   0.00000  Uiso   1.00
C63    C     0.15520   0.09111   0.16857   0.00000  Uiso   1.00
C64    C     0.34476   0.40885   0.16857   0.00000  Uiso   1.00
N65    N     0.01685   0.33358   0.04388   0.00000  Uiso   1.00
O66    O     0.00315   0.34699   0.08237   0.00000  Uiso   1.00
O67    O     0.04043   0.36193   0.02172   0.00000  Uiso   1.00
N68    N     0.01685   0.16642   0.28945   0.00000  Uiso   1.00
O69    O     0.00315   0.15301   0.25097   0.00000  Uiso   1.00
O70    O     0.04044   0.13807   0.31160   0.00000  Uiso   1.00
N71    N     0.48307   0.16647   0.04402   0.00000  Uiso   1.00
O72    O     0.49691   0.15294   0.08243   0.00000  Uiso   1.00
O73    O     0.45929   0.13825   0.02200   0.00000  Uiso   1.00
N74    N     0.48307   0.33353   0.28931   0.00000  Uiso   1.00
O75    O     0.49691   0.34707   0.25091   0.00000  Uiso   1.00
O76    O     0.45928   0.36174   0.31133   0.00000  Uiso   1.00
N77    N     0.23315   0.08358   0.04388   0.00000  Uiso   1.00
O78    O     0.24685   0.09699   0.08236   0.00000  Uiso   1.00
O79    O     0.20957   0.11193   0.02173   0.00000  Uiso   1.00
N80    N     0.23316   0.41641   0.28946   0.00000  Uiso   1.00
O81    O     0.24685   0.40301   0.25096   0.00000  Uiso   1.00
O82    O     0.20959   0.38806   0.31162   0.00000  Uiso   1.00
N83    N     0.26694   0.41647   0.04403   0.00000  Uiso   1.00
O84    O     0.25308   0.40293   0.08242   0.00000  Uiso   1.00
O85    O     0.29073   0.38826   0.02201   0.00000  Uiso   1.00
N86    N     0.26693   0.08354   0.28931   0.00000  Uiso   1.00
O87    O     0.25308   0.09707   0.25091   0.00000  Uiso   1.00
O88    O     0.29071   0.11174   0.31133   0.00000  Uiso   1.00
N89    N     0.38055   0.19352   0.09777   0.00000  Uiso   1.00
O90    O     0.37420   0.23689   0.10869   0.00000  Uiso   1.00
O91    O     0.38730   0.18291   0.05607   0.00000  Uiso   1.00
N92    N     0.07732   0.36860   0.24567   0.00000  Uiso   1.00
O93    O     0.08598   0.33494   0.27337   0.00000  Uiso   1.00
O94    O     0.05750   0.40485   0.26052   0.00000  Uiso   1.00
N95    N     0.11929   0.30682   0.09753   0.00000  Uiso   1.00
O96    O     0.12578   0.26342   0.10828   0.00000  Uiso   1.00
O97    O     0.11233   0.31763   0.05591   0.00000  Uiso   1.00
N98    N     0.42303   0.13085   0.24541   0.00000  Uiso   1.00
O99    O     0.41443   0.16422   0.27340   0.00000  Uiso   1.00
O100   O     0.44298   0.09452   0.25989   0.00000  Uiso   1.00
N101   N     0.11930   0.19319   0.23579   0.00000  Uiso   1.00
O102   O     0.12578   0.23659   0.22504   0.00000  Uiso   1.00
O103   O     0.11233   0.18239   0.27741   0.00000  Uiso   1.00
N104   N     0.42303   0.36916   0.08792   0.00000  Uiso   1.00
O105   O     0.41443   0.33578   0.05993   0.00000  Uiso   1.00
O106   O     0.44298   0.40549   0.07345   0.00000  Uiso   1.00
N107   N     0.38055   0.30648   0.23557   0.00000  Uiso   1.00
O108   O     0.37420   0.26311   0.22464   0.00000  Uiso   1.00
O109   O     0.38729   0.31709   0.27726   0.00000  Uiso   1.00
N110   N     0.07731   0.13138   0.08767   0.00000  Uiso   1.00
O111   O     0.08597   0.16504   0.05996   0.00000  Uiso   1.00
O112   O     0.05749   0.09514   0.07283   0.00000  Uiso   1.00
N113   N     0.17267   0.38141   0.08766   0.00000  Uiso   1.00
O114   O     0.16401   0.41509   0.05996   0.00000  Uiso   1.00
O115   O     0.19249   0.34517   0.07278   0.00000  Uiso   1.00
N116   N     0.36945   0.05648   0.23557   0.00000  Uiso   1.00
O117   O     0.37580   0.01311   0.22464   0.00000  Uiso   1.00
O118   O     0.36270   0.06709   0.27726   0.00000  Uiso   1.00
N119   N     0.32697   0.11916   0.08793   0.00000  Uiso   1.00
O120   O     0.33557   0.08578   0.05993   0.00000  Uiso   1.00
O121   O     0.30702   0.15548   0.07345   0.00000  Uiso   1.00
N122   N     0.13072   0.44316   0.23582   0.00000  Uiso   1.00
O123   O     0.12421   0.48657   0.22510   0.00000  Uiso   1.00
O124   O     0.13769   0.43233   0.27743   0.00000  Uiso   1.00
N125   N     0.32697   0.38085   0.24541   0.00000  Uiso   1.00
O126   O     0.33557   0.41422   0.27341   0.00000  Uiso   1.00
O127   O     0.30702   0.34452   0.25989   0.00000  Uiso   1.00
N128   N     0.13071   0.05682   0.09753   0.00000  Uiso   1.00
O129   O     0.12422   0.01342   0.10827   0.00000  Uiso   1.00
O130   O     0.13767   0.06764   0.05591   0.00000  Uiso   1.00
N131   N     0.17267   0.11859   0.24568   0.00000  Uiso   1.00
O132   O     0.16401   0.08492   0.27337   0.00000  Uiso   1.00
O133   O     0.19249   0.15483   0.26055   0.00000  Uiso   1.00
N134   N     0.36946   0.44353   0.09777   0.00000  Uiso   1.00
O135   O     0.37580   0.48689   0.10870   0.00000  Uiso   1.00
O136   O     0.36271   0.43291   0.05607   0.00000  Uiso   1.00
O137   O     0.54581   0.20419   0.20487   0.00000  Uiso   1.00
O138   O     0.95420   0.29581   0.12846   0.00000  Uiso   1.00
O139   O     0.95420   0.29581   0.20487   0.00000  Uiso   1.00
O140   O     0.54581   0.20419   0.12846   0.00000  Uiso   1.00
O141   O     0.95420   0.20419   0.12846   0.00000  Uiso   1.00
O142   O     0.54581   0.29581   0.20487   0.00000  Uiso   1.00
O143   O     0.54581   0.29581   0.12846   0.00000  Uiso   1.00
O144   O     0.95420   0.20419   0.20487   0.00000  Uiso   1.00
O145   O     0.79581   0.45419   0.20487   0.00000  Uiso   1.00
O146   O     0.70420   0.04581   0.12846   0.00000  Uiso   1.00
O147   O     0.70420   0.04581   0.20487   0.00000  Uiso   1.00
O148   O     0.79581   0.45419   0.12846   0.00000  Uiso   1.00
O149   O     0.70420   0.45419   0.12846   0.00000  Uiso   1.00
O150   O     0.79581   0.04581   0.20487   0.00000  Uiso   1.00
O151   O     0.79581   0.04581   0.12846   0.00000  Uiso   1.00
O152   O     0.70420   0.45419   0.20487   0.00000  Uiso   1.00
C153   C     0.56031   0.19045   0.16621   0.00000  Uiso   1.00
C154   C     0.93972   0.30958   0.16621   0.00000  Uiso   1.00
C155   C     0.93972   0.19042   0.16713   0.00000  Uiso   1.00
C156   C     0.56031   0.30955   0.16712   0.00000  Uiso   1.00
C157   C     0.81028   0.44042   0.16713   0.00000  Uiso   1.00
C158   C     0.68969   0.05955   0.16712   0.00000  Uiso   1.00
C159   C     0.68969   0.44045   0.16621   0.00000  Uiso   1.00
C160   C     0.81028   0.05958   0.16621   0.00000  Uiso   1.00
N161   N     0.50000   0.25000   0.28573   0.00000  Uiso   1.00
N162   N     0.50000   0.25000   0.04760   0.00000  Uiso   1.00
N163   N     0.75000   0.00000   0.28573   0.00000  Uiso   1.00
N164   N     0.75000   0.00000   0.04760   0.00000  Uiso   1.00
Zn165  Zn    0.50000   0.25000   0.21771   0.00000  Uiso   1.00
Zn166  Zn    0.50000   0.25000   0.11563   0.00000  Uiso   1.00
Zn167  Zn    0.75000   0.00000   0.21771   0.00000  Uiso   1.00
Zn168  Zn    0.75000   0.00000   0.11563   0.00000  Uiso   1.00
C169   C     0.50338   0.29081   0.02347   0.00000  Uiso   1.00
C170   C     0.50338   0.20919   0.30986   0.00000  Uiso   1.00
C171   C     0.99659   0.20920   0.02354   0.00000  Uiso   1.00
C172   C     0.99659   0.29080   0.30980   0.00000  Uiso   1.00
C173   C     0.74662   0.04081   0.02347   0.00000  Uiso   1.00
C174   C     0.74663   0.45919   0.30986   0.00000  Uiso   1.00
C175   C     0.75341   0.45920   0.02354   0.00000  Uiso   1.00
C176   C     0.75341   0.04080   0.30980   0.00000  Uiso   1.00
C177   C     0.87905   0.15769   0.13154   0.00000  Uiso   1.00
C178   C     0.60022   0.37235   0.20498   0.00000  Uiso   1.00
C179   C     0.62086   0.34249   0.13142   0.00000  Uiso   1.00
C180   C     0.89993   0.12740   0.20486   0.00000  Uiso   1.00
C181   C     0.62086   0.15751   0.20191   0.00000  Uiso   1.00
C182   C     0.89993   0.37260   0.12848   0.00000  Uiso   1.00
C183   C     0.87905   0.34231   0.20179   0.00000  Uiso   1.00
C184   C     0.60022   0.12765   0.12836   0.00000  Uiso   1.00
C185   C     0.64978   0.37766   0.12835   0.00000  Uiso   1.00
C186   C     0.87095   0.09231   0.20179   0.00000  Uiso   1.00
C187   C     0.85007   0.12260   0.12848   0.00000  Uiso   1.00
C188   C     0.62914   0.40751   0.20191   0.00000  Uiso   1.00
C189   C     0.85007   0.37740   0.20486   0.00000  Uiso   1.00
C190   C     0.62914   0.09249   0.13143   0.00000  Uiso   1.00
C191   C     0.64978   0.12235   0.20498   0.00000  Uiso   1.00
C192   C     0.87095   0.40769   0.13154   0.00000  Uiso   1.00
C193   C     0.59479   0.34111   0.16857   0.00000  Uiso   1.00
C194   C     0.90524   0.15885   0.16857   0.00000  Uiso   1.00
C195   C     0.90524   0.34116   0.16476   0.00000  Uiso   1.00
C196   C     0.59479   0.15889   0.16476   0.00000  Uiso   1.00
C197   C     0.84476   0.09116   0.16476   0.00000  Uiso   1.00
C198   C     0.65521   0.40889   0.16476   0.00000  Uiso   1.00
C199   C     0.65520   0.09111   0.16857   0.00000  Uiso   1.00
C200   C     0.84476   0.40885   0.16857   0.00000  Uiso   1.00
N201   N     0.51685   0.33358   0.04388   0.00000  Uiso   1.00
O202   O     0.50315   0.34699   0.08237   0.00000  Uiso   1.00
O203   O     0.54043   0.36193   0.02172   0.00000  Uiso   1.00
N204   N     0.51685   0.16642   0.28945   0.00000  Uiso   1.00
O205   O     0.50315   0.15301   0.25097   0.00000  Uiso   1.00
O206   O     0.54044   0.13807   0.31160   0.00000  Uiso   1.00
N207   N     0.98307   0.16647   0.04402   0.00000  Uiso   1.00
O208   O     0.99691   0.15294   0.08243   0.00000  Uiso   1.00
O209   O     0.95929   0.13825   0.02200   0.00000  Uiso   1.00
N210   N     0.98307   0.33353   0.28931   0.00000  Uiso   1.00
O211   O     0.99691   0.34707   0.25091   0.00000  Uiso   1.00
O212   O     0.95928   0.36174   0.31133   0.00000  Uiso   1.00
N213   N     0.73315   0.08358   0.04388   0.00000  Uiso   1.00
O214   O     0.74685   0.09699   0.08236   0.00000  Uiso   1.00
O215   O     0.70957   0.11193   0.02173   0.00000  Uiso   1.00
N216   N     0.73316   0.41641   0.28946   0.00000  Uiso   1.00
O217   O     0.74685   0.40301   0.25096   0.00000  Uiso   1.00
O218   O     0.70959   0.38806   0.31162   0.00000  Uiso   1.00
N219   N     0.76694   0.41647   0.04403   0.00000  Uiso   1.00
O220   O     0.75308   0.40293   0.08242   0.00000  Uiso   1.00
O221   O     0.79073   0.38826   0.02201   0.00000  Uiso   1.00
N222   N     0.76693   0.08354   0.28931   0.00000  Uiso   1.00
O223   O     0.75308   0.09707   0.25091   0.00000  Uiso   1.00
O224   O     0.79071   0.11174   0.31133   0.00000  Uiso   1.00
N225   N     0.88055   0.19352   0.09777   0.00000  Uiso   1.00
O226   O     0.87420   0.23689   0.10869   0.00000  Uiso   1.00
O227   O     0.88730   0.18291   0.05607   0.00000  Uiso   1.00
N228   N     0.57732   0.36860   0.24567   0.00000  Uiso   1.00
O229   O     0.58598   0.33494   0.27337   0.00000  Uiso   1.00
O230   O     0.55750   0.40485   0.26052   0.00000  Uiso   1.00
N231   N     0.61929   0.30682   0.09753   0.00000  Uiso   1.00
O232   O     0.62578   0.26342   0.10828   0.00000  Uiso   1.00
O233   O     0.61233   0.31763   0.05591   0.00000  Uiso   1.00
N234   N     0.92303   0.13085   0.24541   0.00000  Uiso   1.00
O235   O     0.91443   0.16422   0.27340   0.00000  Uiso   1.00
O236   O     0.94298   0.09452   0.25989   0.00000  Uiso   1.00
N237   N     0.61930   0.19319   0.23579   0.00000  Uiso   1.00
O238   O     0.62578   0.23659   0.22504   0.00000  Uiso   1.00
O239   O     0.61233   0.18239   0.27741   0.00000  Uiso   1.00
N240   N     0.92303   0.36916   0.08792   0.00000  Uiso   1.00
O241   O     0.91443   0.33578   0.05993   0.00000  Uiso   1.00
O242   O     0.94298   0.40549   0.07345   0.00000  Uiso   1.00
N243   N     0.88055   0.30648   0.23557   0.00000  Uiso   1.00
O244   O     0.87420   0.26311   0.22464   0.00000  Uiso   1.00
O245   O     0.88729   0.31709   0.27726   0.00000  Uiso   1.00
N246   N     0.57731   0.13138   0.08767   0.00000  Uiso   1.00
O247   O     0.58597   0.16504   0.05996   0.00000  Uiso   1.00
O248   O     0.55749   0.09514   0.07283   0.00000  Uiso   1.00
N249   N     0.67267   0.38141   0.08766   0.00000  Uiso   1.00
O250   O     0.66401   0.41509   0.05996   0.00000  Uiso   1.00
O251   O     0.69249   0.34517   0.07278   0.00000  Uiso   1.00
N252   N     0.86945   0.05648   0.23557   0.00000  Uiso   1.00
O253   O     0.87580   0.01311   0.22464   0.00000  Uiso   1.00
O254   O     0.86270   0.06709   0.27726   0.00000  Uiso   1.00
N255   N     0.82697   0.11916   0.08793   0.00000  Uiso   1.00
O256   O     0.83557   0.08578   0.05993   0.00000  Uiso   1.00
O257   O     0.80702   0.15548   0.07345   0.00000  Uiso   1.00
N258   N     0.63072   0.44316   0.23582   0.00000  Uiso   1.00
O259   O     0.62421   0.48657   0.22510   0.00000  Uiso   1.00
O260   O     0.63769   0.43233   0.27743   0.00000  Uiso   1.00
N261   N     0.82697   0.38085   0.24541   0.00000  Uiso   1.00
O262   O     0.83557   0.41422   0.27341   0.00000  Uiso   1.00
O263   O     0.80702   0.34452   0.25989   0.00000  Uiso   1.00
N264   N     0.63071   0.05682   0.09753   0.00000  Uiso   1.00
O265   O     0.62422   0.01342   0.10827   0.00000  Uiso   1.00
O266   O     0.63767   0.06764   0.05591   0.00000  Uiso   1.00
N267   N     0.67267   0.11859   0.24568   0.00000  Uiso   1.00
O268   O     0.66401   0.08492   0.27337   0.00000  Uiso   1.00
O269   O     0.69249   0.15483   0.26055   0.00000  Uiso   1.00
N270   N     0.86946   0.44353   0.09777   0.00000  Uiso   1.00
O271   O     0.87580   0.48689   0.10870   0.00000  Uiso   1.00
O272   O     0.86271   0.43291   0.05607   0.00000  Uiso   1.00
O273   O     0.04581   0.70419   0.20487   0.00000  Uiso   1.00
O274   O     0.45420   0.79581   0.12846   0.00000  Uiso   1.00
O275   O     0.45420   0.79581   0.20487   0.00000  Uiso   1.00
O276   O     0.04581   0.70419   0.12846   0.00000  Uiso   1.00
O277   O     0.45420   0.70419   0.12846   0.00000  Uiso   1.00
O278   O     0.04581   0.79581   0.20487   0.00000  Uiso   1.00
O279   O     0.04581   0.79581   0.12846   0.00000  Uiso   1.00
O280   O     0.45420   0.70419   0.20487   0.00000  Uiso   1.00
O281   O     0.29581   0.95419   0.20487   0.00000  Uiso   1.00
O282   O     0.20420   0.54581   0.12846   0.00000  Uiso   1.00
O283   O     0.20420   0.54581   0.20487   0.00000  Uiso   1.00
O284   O     0.29581   0.95419   0.12846   0.00000  Uiso   1.00
O285   O     0.20420   0.95419   0.12846   0.00000  Uiso   1.00
O286   O     0.29581   0.54581   0.20487   0.00000  Uiso   1.00
O287   O     0.29581   0.54581   0.12846   0.00000  Uiso   1.00
O288   O     0.20420   0.95419   0.20487   0.00000  Uiso   1.00
C289   C     0.06031   0.69045   0.16621   0.00000  Uiso   1.00
C290   C     0.43972   0.80958   0.16621   0.00000  Uiso   1.00
C291   C     0.43972   0.69042   0.16713   0.00000  Uiso   1.00
C292   C     0.06031   0.80955   0.16712   0.00000  Uiso   1.00
C293   C     0.31028   0.94042   0.16713   0.00000  Uiso   1.00
C294   C     0.18969   0.55955   0.16712   0.00000  Uiso   1.00
C295   C     0.18969   0.94045   0.16621   0.00000  Uiso   1.00
C296   C     0.31028   0.55958   0.16621   0.00000  Uiso   1.00
N297   N     0.00000   0.75000   0.28573   0.00000  Uiso   1.00
N298   N     0.00000   0.75000   0.04760   0.00000  Uiso   1.00
N299   N     0.25000   0.50000   0.28573   0.00000  Uiso   1.00
N300   N     0.25000   0.50000   0.04760   0.00000  Uiso   1.00
Zn301  Zn    0.00000   0.75000   0.21771   0.00000  Uiso   1.00
Zn302  Zn    0.00000   0.75000   0.11563   0.00000  Uiso   1.00
Zn303  Zn    0.25000   0.50000   0.21771   0.00000  Uiso   1.00
Zn304  Zn    0.25000   0.50000   0.11563   0.00000  Uiso   1.00
C305   C     0.00338   0.79081   0.02347   0.00000  Uiso   1.00
C306   C     0.00338   0.70919   0.30986   0.00000  Uiso   1.00
C307   C     0.49659   0.70920   0.02354   0.00000  Uiso   1.00
C308   C     0.49659   0.79080   0.30980   0.00000  Uiso   1.00
C309   C     0.24662   0.54081   0.02347   0.00000  Uiso   1.00
C310   C     0.24663   0.95919   0.30986   0.00000  Uiso   1.00
C311   C     0.25341   0.95920   0.02354   0.00000  Uiso   1.00
C312   C     0.25341   0.54080   0.30980   0.00000  Uiso   1.00
C313   C     0.37905   0.65769   0.13154   0.00000  Uiso   1.00
C314   C     0.10022   0.87235   0.20498   0.00000  Uiso   1.00
C315   C     0.12086   0.84249   0.13142   0.00000  Uiso   1.00
C316   C     0.39993   0.62740   0.20486   0.00000  Uiso   1.00
C317   C     0.12086   0.65751   0.20191   0.00000  Uiso   1.00
C318   C     0.39993   0.87260   0.12848   0.00000  Uiso   1.00
C319   C     0.37905   0.84231   0.20179   0.00000  Uiso   1.00
C320   C     0.10022   0.62765   0.12836   0.00000  Uiso   1.00
C321   C     0.14978   0.87766   0.12835   0.00000  Uiso   1.00
C322   C     0.37095   0.59231   0.20179   0.00000  Uiso   1.00
C323   C     0.35007   0.62260   0.12848   0.00000  Uiso   1.00
C324   C     0.12914   0.90751   0.20191   0.00000  Uiso   1.00
C325   C     0.35007   0.87740   0.20486   0.00000  Uiso   1.00
C326   C     0.12914   0.59249   0.13143   0.00000  Uiso   1.00
C327   C     0.14978   0.62235   0.20498   0.00000  Uiso   1.00
C328   C     0.37095   0.90769   0.13154   0.00000  Uiso   1.00
C329   C     0.09479   0.84111   0.16857   0.00000  Uiso   1.00
C330   C     0.40524   0.65885   0.16857   0.00000  Uiso   1.00
C331   C     0.40524   0.84116   0.16476   0.00000  Uiso   1.00
C332   C     0.09479   0.65889   0.16476   0.00000  Uiso   1.00
C333   C     0.34476   0.59116   0.16476   0.00000  Uiso   1.00
C334   C     0.15521   0.90889   0.16476   0.00000  Uiso   1.00
C335   C     0.15520   0.59111   0.16857   0.00000  Uiso   1.00
C336   C     0.34476   0.90885   0.16857   0.00000  Uiso   1.00
N337   N     0.01685   0.83358   0.04388   0.00000  Uiso   1.00
O338   O     0.00315   0.84699   0.08237   0.00000  Uiso   1.00
O339   O     0.04043   0.86193   0.02172   0.00000  Uiso   1.00
N340   N     0.01685   0.66642   0.28945   0.00000  Uiso   1.00
O341   O     0.00315   0.65301   0.25097   0.00000  Uiso   1.00
O342   O     0.04044   0.63807   0.31160   0.00000  Uiso   1.00
N343   N     0.48307   0.66647   0.04402   0.00000  Uiso   1.00
O344   O     0.49691   0.65294   0.08243   0.00000  Uiso   1.00
O345   O     0.45929   0.63825   0.02200   0.00000  Uiso   1.00
N346   N     0.48307   0.83353   0.28931   0.00000  Uiso   1.00
O347   O     0.49691   0.84707   0.25091   0.00000  Uiso   1.00
O348   O     0.45928   0.86174   0.31133   0.00000  Uiso   1.00
N349   N     0.23315   0.58358   0.04388   0.00000  Uiso   1.00
O350   O     0.24685   0.59699   0.08236   0.00000  Uiso   1.00
O351   O     0.20957   0.61193   0.02173   0.00000  Uiso   1.00
N352   N     0.23316   0.91641   0.28946   0.00000  Uiso   1.00
O353   O     0.24685   0.90301   0.25096   0.00000  Uiso   1.00
O354   O     0.20959   0.88806   0.31162   0.00000  Uiso   1.00
N355   N     0.26694   0.91647   0.04403   0.00000  Uiso   1.00
O356   O     0.25308   0.90293   0.08242   0.00000  Uiso   1.00
O357   O     0.29073   0.88826   0.02201   0.00000  Uiso   1.00
N358   N     0.26693   0.58354   0.28931   0.00000  Uiso   1.00
O359   O     0.25308   0.59707   0.25091   0.00000  Uiso   1.00
O360   O     0.29071   0.61174   0.31133   0.00000  Uiso   1.00
N361   N     0.38055   0.69352   0.09777   0.00000  Uiso   1.00
O362   O     0.37420   0.73689   0.10869   0.00000  Uiso   1.00
O363   O     0.38730   0.68291   0.05607   0.00000  Uiso   1.00
N364   N     0.07732   0.86860   0.24567   0.00000  Uiso   1.00
O365   O     0.08598   0.83494   0.27337   0.00000  Uiso   1.00
O366   O     0.05750   0.90485   0.26052   0.00000  Uiso   1.00
N367   N     0.11929   0.80682   0.09753   0.00000  Uiso   1.00
O368   O     0.12578   0.76342   0.10828   0.00000  Uiso   1.00
O369   O     0.11233   0.81763   0.05591   0.00000  Uiso   1.00
N370   N     0.42303   0.63085   0.24541   0.00000  Uiso   1.00
O371   O     0.41443   0.66422   0.27340   0.00000  Uiso   1.00
O372   O     0.44298   0.59452   0.25989   0.00000  Uiso   1.00
N373   N     0.11930   0.69319   0.23579   0.00000  Uiso   1.00
O374   O     0.12578   0.73659   0.22504   0.00000  Uiso   1.00
O375   O     0.11233   0.68239   0.27741   0.00000  Uiso   1.00
N376   N     0.42303   0.86916   0.08792   0.00000  Uiso   1.00
O377   O     0.41443   0.83578   0.05993   0.00000  Uiso   1.00
O378   O     0.44298   0.90549   0.07345   0.00000  Uiso   1.00
N379   N     0.38055   0.80648   0.23557   0.00000  Uiso   1.00
O380   O     0.37420   0.76311   0.22464   0.00000  Uiso   1.00
O381   O     0.38729   0.81709   0.27726   0.00000  Uiso   1.00
N382   N     0.07731   0.63138   0.08767   0.00000  Uiso   1.00
O383   O     0.08597   0.66504   0.05996   0.00000  Uiso   1.00
O384   O     0.05749   0.59514   0.07283   0.00000  Uiso   1.00
N385   N     0.17267   0.88141   0.08766   0.00000  Uiso   1.00
O386   O     0.16401   0.91509   0.05996   0.00000  Uiso   1.00
O387   O     0.19249   0.84517   0.07278   0.00000  Uiso   1.00
N388   N     0.36945   0.55648   0.23557   0.00000  Uiso   1.00
O389   O     0.37580   0.51311   0.22464   0.00000  Uiso   1.00
O390   O     0.36270   0.56709   0.27726   0.00000  Uiso   1.00
N391   N     0.32697   0.61916   0.08793   0.00000  Uiso   1.00
O392   O     0.33557   0.58578   0.05993   0.00000  Uiso   1.00
O393   O     0.30702   0.65548   0.07345   0.00000  Uiso   1.00
N394   N     0.13072   0.94316   0.23582   0.00000  Uiso   1.00
O395   O     0.12421   0.98657   0.22510   0.00000  Uiso   1.00
O396   O     0.13769   0.93233   0.27743   0.00000  Uiso   1.00
N397   N     0.32697   0.88085   0.24541   0.00000  Uiso   1.00
O398   O     0.33557   0.91422   0.27341   0.00000  Uiso   1.00
O399   O     0.30702   0.84452   0.25989   0.00000  Uiso   1.00
N400   N     0.13071   0.55682   0.09753   0.00000  Uiso   1.00
O401   O     0.12422   0.51342   0.10827   0.00000  Uiso   1.00
O402   O     0.13767   0.56764   0.05591   0.00000  Uiso   1.00
N403   N     0.17267   0.61859   0.24568   0.00000  Uiso   1.00
O404   O     0.16401   0.58492   0.27337   0.00000  Uiso   1.00
O405   O     0.19249   0.65483   0.26055   0.00000  Uiso   1.00
N406   N     0.36946   0.94353   0.09777   0.00000  Uiso   1.00
O407   O     0.37580   0.98689   0.10870   0.00000  Uiso   1.00
O408   O     0.36271   0.93291   0.05607   0.00000  Uiso   1.00
O409   O     0.54581   0.70419   0.20487   0.00000  Uiso   1.00
O410   O     0.95420   0.79581   0.12846   0.00000  Uiso   1.00
O411   O     0.95420   0.79581   0.20487   0.00000  Uiso   1.00
O412   O     0.54581   0.70419   0.12846   0.00000  Uiso   1.00
O413   O     0.95420   0.70419   0.12846   0.00000  Uiso   1.00
O414   O     0.54581   0.79581   0.20487   0.00000  Uiso   1.00
O415   O     0.54581   0.79581   0.12846   0.00000  Uiso   1.00
O416   O     0.95420   0.70419   0.20487   0.00000  Uiso   1.00
O417   O     0.79581   0.95419   0.20487   0.00000  Uiso   1.00
O418   O     0.70420   0.54581   0.12846   0.00000  Uiso   1.00
O419   O     0.70420   0.54581   0.20487   0.00000  Uiso   1.00
O420   O     0.79581   0.95419   0.12846   0.00000  Uiso   1.00
O421   O     0.70420   0.95419   0.12846   0.00000  Uiso   1.00
O422   O     0.79581   0.54581   0.20487   0.00000  Uiso   1.00
O423   O     0.79581   0.54581   0.12846   0.00000  Uiso   1.00
O424   O     0.70420   0.95419   0.20487   0.00000  Uiso   1.00
C425   C     0.56031   0.69045   0.16621   0.00000  Uiso   1.00
C426   C     0.93972   0.80958   0.16621   0.00000  Uiso   1.00
C427   C     0.93972   0.69042   0.16713   0.00000  Uiso   1.00
C428   C     0.56031   0.80955   0.16712   0.00000  Uiso   1.00
C429   C     0.81028   0.94042   0.16713   0.00000  Uiso   1.00
C430   C     0.68969   0.55955   0.16712   0.00000  Uiso   1.00
C431   C     0.68969   0.94045   0.16621   0.00000  Uiso   1.00
C432   C     0.81028   0.55958   0.16621   0.00000  Uiso   1.00
N433   N     0.50000   0.75000   0.28573   0.00000  Uiso   1.00
N434   N     0.50000   0.75000   0.04760   0.00000  Uiso   1.00
N435   N     0.75000   0.50000   0.28573   0.00000  Uiso   1.00
N436   N     0.75000   0.50000   0.04760   0.00000  Uiso   1.00
Zn437  Zn    0.50000   0.75000   0.21771   0.00000  Uiso   1.00
Zn438  Zn    0.50000   0.75000   0.11563   0.00000  Uiso   1.00
Zn439  Zn    0.75000   0.50000   0.21771   0.00000  Uiso   1.00
Zn440  Zn    0.75000   0.50000   0.11563   0.00000  Uiso   1.00
C441   C     0.50338   0.79081   0.02347   0.00000  Uiso   1.00
C442   C     0.50338   0.70919   0.30986   0.00000  Uiso   1.00
C443   C     0.99659   0.70920   0.02354   0.00000  Uiso   1.00
C444   C     0.99659   0.79080   0.30980   0.00000  Uiso   1.00
C445   C     0.74662   0.54081   0.02347   0.00000  Uiso   1.00
C446   C     0.74663   0.95919   0.30986   0.00000  Uiso   1.00
C447   C     0.75341   0.95920   0.02354   0.00000  Uiso   1.00
C448   C     0.75341   0.54080   0.30980   0.00000  Uiso   1.00
C449   C     0.87905   0.65769   0.13154   0.00000  Uiso   1.00
C450   C     0.60022   0.87235   0.20498   0.00000  Uiso   1.00
C451   C     0.62086   0.84249   0.13142   0.00000  Uiso   1.00
C452   C     0.89993   0.62740   0.20486   0.00000  Uiso   1.00
C453   C     0.62086   0.65751   0.20191   0.00000  Uiso   1.00
C454   C     0.89993   0.87260   0.12848   0.00000  Uiso   1.00
C455   C     0.87905   0.84231   0.20179   0.00000  Uiso   1.00
C456   C     0.60022   0.62765   0.12836   0.00000  Uiso   1.00
C457   C     0.64978   0.87766   0.12835   0.00000  Uiso   1.00
C458   C     0.87095   0.59231   0.20179   0.00000  Uiso   1.00
C459   C     0.85007   0.62260   0.12848   0.00000  Uiso   1.00
C460   C     0.62914   0.90751   0.20191   0.00000  Uiso   1.00
C461   C     0.85007   0.87740   0.20486   0.00000  Uiso   1.00
C462   C     0.62914   0.59249   0.13143   0.00000  Uiso   1.00
C463   C     0.64978   0.62235   0.20498   0.00000  Uiso   1.00
C464   C     0.87095   0.90769   0.13154   0.00000  Uiso   1.00
C465   C     0.59479   0.84111   0.16857   0.00000  Uiso   1.00
C466   C     0.90524   0.65885   0.16857   0.00000  Uiso   1.00
C467   C     0.90524   0.84116   0.16476   0.00000  Uiso   1.00
C468   C     0.59479   0.65889   0.16476   0.00000  Uiso   1.00
C469   C     0.84476   0.59116   0.16476   0.00000  Uiso   1.00
C470   C     0.65521   0.90889   0.16476   0.00000  Uiso   1.00
C471   C     0.65520   0.59111   0.16857   0.00000  Uiso   1.00
C472   C     0.84476   0.90885   0.16857   0.00000  Uiso   1.00
N473   N     0.51685   0.83358   0.04388   0.00000  Uiso   1.00
O474   O     0.50315   0.84699   0.08237   0.00000  Uiso   1.00
O475   O     0.54043   0.86193   0.02172   0.00000  Uiso   1.00
N476   N     0.51685   0.66642   0.28945   0.00000  Uiso   1.00
O477   O     0.50315   0.65301   0.25097   0.00000  Uiso   1.00
O478   O     0.54044   0.63807   0.31160   0.00000  Uiso   1.00
N479   N     0.98307   0.66647   0.04402   0.00000  Uiso   1.00
O480   O     0.99691   0.65294   0.08243   0.00000  Uiso   1.00
O481   O     0.95929   0.63825   0.02200   0.00000  Uiso   1.00
N482   N     0.98307   0.83353   0.28931   0.00000  Uiso   1.00
O483   O     0.99691   0.84707   0.25091   0.00000  Uiso   1.00
O484   O     0.95928   0.86174   0.31133   0.00000  Uiso   1.00
N485   N     0.73315   0.58358   0.04388   0.00000  Uiso   1.00
O486   O     0.74685   0.59699   0.08236   0.00000  Uiso   1.00
O487   O     0.70957   0.61193   0.02173   0.00000  Uiso   1.00
N488   N     0.73316   0.91641   0.28946   0.00000  Uiso   1.00
O489   O     0.74685   0.90301   0.25096   0.00000  Uiso   1.00
O490   O     0.70959   0.88806   0.31162   0.00000  Uiso   1.00
N491   N     0.76694   0.91647   0.04403   0.00000  Uiso   1.00
O492   O     0.75308   0.90293   0.08242   0.00000  Uiso   1.00
O493   O     0.79073   0.88826   0.02201   0.00000  Uiso   1.00
N494   N     0.76693   0.58354   0.28931   0.00000  Uiso   1.00
O495   O     0.75308   0.59707   0.25091   0.00000  Uiso   1.00
O496   O     0.79071   0.61174   0.31133   0.00000  Uiso   1.00
N497   N     0.88055   0.69352   0.09777   0.00000  Uiso   1.00
O498   O     0.87420   0.73689   0.10869   0.00000  Uiso   1.00
O499   O     0.88730   0.68291   0.05607   0.00000  Uiso   1.00
N500   N     0.57732   0.86860   0.24567   0.00000  Uiso   1.00
O501   O     0.58598   0.83494   0.27337   0.00000  Uiso   1.00
O502   O     0.55750   0.90485   0.26052   0.00000  Uiso   1.00
N503   N     0.61929   0.80682   0.09753   0.00000  Uiso   1.00
O504   O     0.62578   0.76342   0.10828   0.00000  Uiso   1.00
O505   O     0.61233   0.81763   0.05591   0.00000  Uiso   1.00
N506   N     0.92303   0.63085   0.24541   0.00000  Uiso   1.00
O507   O     0.91443   0.66422   0.27340   0.00000  Uiso   1.00
O508   O     0.94298   0.59452   0.25989   0.00000  Uiso   1.00
N509   N     0.61930   0.69319   0.23579   0.00000  Uiso   1.00
O510   O     0.62578   0.73659   0.22504   0.00000  Uiso   1.00
O511   O     0.61233   0.68239   0.27741   0.00000  Uiso   1.00
N512   N     0.92303   0.86916   0.08792   0.00000  Uiso   1.00
O513   O     0.91443   0.83578   0.05993   0.00000  Uiso   1.00
O514   O     0.94298   0.90549   0.07345   0.00000  Uiso   1.00
N515   N     0.88055   0.80648   0.23557   0.00000  Uiso   1.00
O516   O     0.87420   0.76311   0.22464   0.00000  Uiso   1.00
O517   O     0.88729   0.81709   0.27726   0.00000  Uiso   1.00
N518   N     0.57731   0.63138   0.08767   0.00000  Uiso   1.00
O519   O     0.58597   0.66504   0.05996   0.00000  Uiso   1.00
O520   O     0.55749   0.59514   0.07283   0.00000  Uiso   1.00
N521   N     0.67267   0.88141   0.08766   0.00000  Uiso   1.00
O522   O     0.66401   0.91509   0.05996   0.00000  Uiso   1.00
O523   O     0.69249   0.84517   0.07278   0.00000  Uiso   1.00
N524   N     0.86945   0.55648   0.23557   0.00000  Uiso   1.00
O525   O     0.87580   0.51311   0.22464   0.00000  Uiso   1.00
O526   O     0.86270   0.56709   0.27726   0.00000  Uiso   1.00
N527   N     0.82697   0.61916   0.08793   0.00000  Uiso   1.00
O528   O     0.83557   0.58578   0.05993   0.00000  Uiso   1.00
O529   O     0.80702   0.65548   0.07345   0.00000  Uiso   1.00
N530   N     0.63072   0.94316   0.23582   0.00000  Uiso   1.00
O531   O     0.62421   0.98657   0.22510   0.00000  Uiso   1.00
O532   O     0.63769   0.93233   0.27743   0.00000  Uiso   1.00
N533   N     0.82697   0.88085   0.24541   0.00000  Uiso   1.00
O534   O     0.83557   0.91422   0.27341   0.00000  Uiso   1.00
O535   O     0.80702   0.84452   0.25989   0.00000  Uiso   1.00
N536   N     0.63071   0.55682   0.09753   0.00000  Uiso   1.00
O537   O     0.62422   0.51342   0.10827   0.00000  Uiso   1.00
O538   O     0.63767   0.56764   0.05591   0.00000  Uiso   1.00
N539   N     0.67267   0.61859   0.24568   0.00000  Uiso   1.00
O540   O     0.66401   0.58492   0.27337   0.00000  Uiso   1.00
O541   O     0.69249   0.65483   0.26055   0.00000  Uiso   1.00
N542   N     0.86946   0.94353   0.09777   0.00000  Uiso   1.00
O543   O     0.87580   0.98689   0.10870   0.00000  Uiso   1.00
O544   O     0.86271   0.93291   0.05607   0.00000  Uiso   1.00
O545   O     0.04581   0.20419   0.53821   0.00000  Uiso   1.00
O546   O     0.45420   0.29581   0.46179   0.00000  Uiso   1.00
O547   O     0.45420   0.29581   0.53821   0.00000  Uiso   1.00
O548   O     0.04581   0.20419   0.46179   0.00000  Uiso   1.00
O549   O     0.45420   0.20419   0.46179   0.00000  Uiso   1.00
O550   O     0.04581   0.29581   0.53821   0.00000  Uiso   1.00
O551   O     0.04581   0.29581   0.46179   0.00000  Uiso   1.00
O552   O     0.45420   0.20419   0.53821   0.00000  Uiso   1.00
O553   O     0.29581   0.45419   0.53821   0.00000  Uiso   1.00
O554   O     0.20420   0.04581   0.46179   0.00000  Uiso   1.00
O555   O     0.20420   0.04581   0.53821   0.00000  Uiso   1.00
O556   O     0.29581   0.45419   0.46179   0.00000  Uiso   1.00
O557   O     0.20420   0.45419   0.46179   0.00000  Uiso   1.00
O558   O     0.29581   0.04581   0.53821   0.00000  Uiso   1.00
O559   O     0.29581   0.04581   0.46179   0.00000  Uiso   1.00
O560   O     0.20420   0.45419   0.53821   0.00000  Uiso   1.00
C561   C     0.06031   0.19045   0.49955   0.00000  Uiso   1.00
C562   C     0.43972   0.30958   0.49954   0.00000  Uiso   1.00
C563   C     0.43972   0.19042   0.50046   0.00000  Uiso   1.00
C564   C     0.06031   0.30955   0.50045   0.00000  Uiso   1.00
C565   C     0.31028   0.44042   0.50046   0.00000  Uiso   1.00
C566   C     0.18969   0.05955   0.50045   0.00000  Uiso   1.00
C567   C     0.18969   0.44045   0.49955   0.00000  Uiso   1.00
C568   C     0.31028   0.05958   0.49954   0.00000  Uiso   1.00
N569   N     0.00000   0.25000   0.61907   0.00000  Uiso   1.00
N570   N     0.00000   0.25000   0.38093   0.00000  Uiso   1.00
N571   N     0.25000   0.00000   0.61907   0.00000  Uiso   1.00
N572   N     0.25000   0.00000   0.38093   0.00000  Uiso   1.00
Zn573  Zn    0.00000   0.25000   0.55104   0.00000  Uiso   1.00
Zn574  Zn    0.00000   0.25000   0.44896   0.00000  Uiso   1.00
Zn575  Zn    0.25000   0.00000   0.55104   0.00000  Uiso   1.00
Zn576  Zn    0.25000   0.00000   0.44896   0.00000  Uiso   1.00
C577   C     0.00338   0.29081   0.35680   0.00000  Uiso   1.00
C578   C     0.00338   0.20919   0.64320   0.00000  Uiso   1.00
C579   C     0.49659   0.20920   0.35687   0.00000  Uiso   1.00
C580   C     0.49659   0.29080   0.64313   0.00000  Uiso   1.00
C581   C     0.24662   0.04081   0.35680   0.00000  Uiso   1.00
C582   C     0.24663   0.45919   0.64320   0.00000  Uiso   1.00
C583   C     0.25341   0.45920   0.35687   0.00000  Uiso   1.00
C584   C     0.25341   0.04080   0.64313   0.00000  Uiso   1.00
C585   C     0.37905   0.15769   0.46487   0.00000  Uiso   1.00
C586   C     0.10022   0.37235   0.53831   0.00000  Uiso   1.00
C587   C     0.12086   0.34249   0.46476   0.00000  Uiso   1.00
C588   C     0.39993   0.12740   0.53819   0.00000  Uiso   1.00
C589   C     0.12086   0.15751   0.53524   0.00000  Uiso   1.00
C590   C     0.39993   0.37260   0.46181   0.00000  Uiso   1.00
C591   C     0.37905   0.34231   0.53513   0.00000  Uiso   1.00
C592   C     0.10022   0.12765   0.46169   0.00000  Uiso   1.00
C593   C     0.14978   0.37766   0.46169   0.00000  Uiso   1.00
C594   C     0.37095   0.09231   0.53513   0.00000  Uiso   1.00
C595   C     0.35007   0.12260   0.46181   0.00000  Uiso   1.00
C596   C     0.12914   0.40751   0.53524   0.00000  Uiso   1.00
C597   C     0.35007   0.37740   0.53819   0.00000  Uiso   1.00
C598   C     0.12914   0.09249   0.46476   0.00000  Uiso   1.00
C599   C     0.14978   0.12235   0.53831   0.00000  Uiso   1.00
C600   C     0.37095   0.40769   0.46487   0.00000  Uiso   1.00
C601   C     0.09479   0.34111   0.50190   0.00000  Uiso   1.00
C602   C     0.40524   0.15885   0.50191   0.00000  Uiso   1.00
C603   C     0.40524   0.34116   0.49809   0.00000  Uiso   1.00
C604   C     0.09479   0.15889   0.49810   0.00000  Uiso   1.00
C605   C     0.34476   0.09116   0.49809   0.00000  Uiso   1.00
C606   C     0.15521   0.40889   0.49810   0.00000  Uiso   1.00
C607   C     0.15520   0.09111   0.50190   0.00000  Uiso   1.00
C608   C     0.34476   0.40885   0.50191   0.00000  Uiso   1.00
N609   N     0.01685   0.33358   0.37721   0.00000  Uiso   1.00
O610   O     0.00315   0.34699   0.41570   0.00000  Uiso   1.00
O611   O     0.04043   0.36193   0.35506   0.00000  Uiso   1.00
N612   N     0.01685   0.16642   0.62279   0.00000  Uiso   1.00
O613   O     0.00315   0.15301   0.58430   0.00000  Uiso   1.00
O614   O     0.04044   0.13807   0.64494   0.00000  Uiso   1.00
N615   N     0.48307   0.16647   0.37736   0.00000  Uiso   1.00
O616   O     0.49691   0.15294   0.41576   0.00000  Uiso   1.00
O617   O     0.45929   0.13825   0.35533   0.00000  Uiso   1.00
N618   N     0.48307   0.33353   0.62264   0.00000  Uiso   1.00
O619   O     0.49691   0.34707   0.58424   0.00000  Uiso   1.00
O620   O     0.45928   0.36174   0.64467   0.00000  Uiso   1.00
N621   N     0.23315   0.08358   0.37721   0.00000  Uiso   1.00
O622   O     0.24685   0.09699   0.41570   0.00000  Uiso   1.00
O623   O     0.20957   0.11193   0.35506   0.00000  Uiso   1.00
N624   N     0.23316   0.41641   0.62279   0.00000  Uiso   1.00
O625   O     0.24685   0.40301   0.58430   0.00000  Uiso   1.00
O626   O     0.20959   0.38806   0.64495   0.00000  Uiso   1.00
N627   N     0.26694   0.41647   0.37736   0.00000  Uiso   1.00
O628   O     0.25308   0.40293   0.41576   0.00000  Uiso   1.00
O629   O     0.29073   0.38826   0.35534   0.00000  Uiso   1.00
N630   N     0.26693   0.08354   0.62264   0.00000  Uiso   1.00
O631   O     0.25308   0.09707   0.58424   0.00000  Uiso   1.00
O632   O     0.29071   0.11174   0.64467   0.00000  Uiso   1.00
N633   N     0.38055   0.19352   0.43110   0.00000  Uiso   1.00
O634   O     0.37420   0.23689   0.44203   0.00000  Uiso   1.00
O635   O     0.38730   0.18291   0.38941   0.00000  Uiso   1.00
N636   N     0.07732   0.36860   0.57900   0.00000  Uiso   1.00
O637   O     0.08598   0.33494   0.60671   0.00000  Uiso   1.00
O638   O     0.05750   0.40485   0.59386   0.00000  Uiso   1.00
N639   N     0.11929   0.30682   0.43087   0.00000  Uiso   1.00
O640   O     0.12578   0.26342   0.44161   0.00000  Uiso   1.00
O641   O     0.11233   0.31763   0.38924   0.00000  Uiso   1.00
N642   N     0.42303   0.13085   0.57874   0.00000  Uiso   1.00
O643   O     0.41443   0.16422   0.60674   0.00000  Uiso   1.00
O644   O     0.44298   0.09452   0.59322   0.00000  Uiso   1.00
N645   N     0.11930   0.19319   0.56912   0.00000  Uiso   1.00
O646   O     0.12578   0.23659   0.55837   0.00000  Uiso   1.00
O647   O     0.11233   0.18239   0.61075   0.00000  Uiso   1.00
N648   N     0.42303   0.36916   0.42126   0.00000  Uiso   1.00
O649   O     0.41443   0.33578   0.39326   0.00000  Uiso   1.00
O650   O     0.44298   0.40549   0.40678   0.00000  Uiso   1.00
N651   N     0.38055   0.30648   0.56890   0.00000  Uiso   1.00
O652   O     0.37420   0.26311   0.55797   0.00000  Uiso   1.00
O653   O     0.38729   0.31709   0.61059   0.00000  Uiso   1.00
N654   N     0.07731   0.13138   0.42101   0.00000  Uiso   1.00
O655   O     0.08597   0.16504   0.39329   0.00000  Uiso   1.00
O656   O     0.05749   0.09514   0.40616   0.00000  Uiso   1.00
N657   N     0.17267   0.38141   0.42099   0.00000  Uiso   1.00
O658   O     0.16401   0.41509   0.39330   0.00000  Uiso   1.00
O659   O     0.19249   0.34517   0.40611   0.00000  Uiso   1.00
N660   N     0.36945   0.05648   0.56890   0.00000  Uiso   1.00
O661   O     0.37580   0.01311   0.55797   0.00000  Uiso   1.00
O662   O     0.36270   0.06709   0.61059   0.00000  Uiso   1.00
N663   N     0.32697   0.11916   0.42126   0.00000  Uiso   1.00
O664   O     0.33557   0.08578   0.39326   0.00000  Uiso   1.00
O665   O     0.30702   0.15548   0.40678   0.00000  Uiso   1.00
N666   N     0.13072   0.44316   0.56915   0.00000  Uiso   1.00
O667   O     0.12421   0.48657   0.55843   0.00000  Uiso   1.00
O668   O     0.13769   0.43233   0.61077   0.00000  Uiso   1.00
N669   N     0.32697   0.38085   0.57874   0.00000  Uiso   1.00
O670   O     0.33557   0.41422   0.60674   0.00000  Uiso   1.00
O671   O     0.30702   0.34452   0.59322   0.00000  Uiso   1.00
N672   N     0.13071   0.05682   0.43086   0.00000  Uiso   1.00
O673   O     0.12422   0.01342   0.44160   0.00000  Uiso   1.00
O674   O     0.13767   0.06764   0.38924   0.00000  Uiso   1.00
N675   N     0.17267   0.11859   0.57901   0.00000  Uiso   1.00
O676   O     0.16401   0.08492   0.60670   0.00000  Uiso   1.00
O677   O     0.19249   0.15483   0.59388   0.00000  Uiso   1.00
N678   N     0.36946   0.44353   0.43110   0.00000  Uiso   1.00
O679   O     0.37580   0.48689   0.44204   0.00000  Uiso   1.00
O680   O     0.36271   0.43291   0.38941   0.00000  Uiso   1.00
O681   O     0.54581   0.20419   0.53821   0.00000  Uiso   1.00
O682   O     0.95420   0.29581   0.46179   0.00000  Uiso   1.00
O683   O     0.95420   0.29581   0.53821   0.00000  Uiso   1.00
O684   O     0.54581   0.20419   0.46179   0.00000  Uiso   1.00
O685   O     0.95420   0.20419   0.46179   0.00000  Uiso   1.00
O686   O     0.54581   0.29581   0.53821   0.00000  Uiso   1.00
O687   O     0.54581   0.29581   0.46179   0.00000  Uiso   1.00
O688   O     0.95420   0.20419   0.53821   0.00000  Uiso   1.00
O689   O     0.79581   0.45419   0.53821   0.00000  Uiso   1.00
O690   O     0.70420   0.04581   0.46179   0.00000  Uiso   1.00
O691   O     0.70420   0.04581   0.53821   0.00000  Uiso   1.00
O692   O     0.79581   0.45419   0.46179   0.00000  Uiso   1.00
O693   O     0.70420   0.45419   0.46179   0.00000  Uiso   1.00
O694   O     0.79581   0.04581   0.53821   0.00000  Uiso   1.00
O695   O     0.79581   0.04581   0.46179   0.00000  Uiso   1.00
O696   O     0.70420   0.45419   0.53821   0.00000  Uiso   1.00
C697   C     0.56031   0.19045   0.49955   0.00000  Uiso   1.00
C698   C     0.93972   0.30958   0.49954   0.00000  Uiso   1.00
C699   C     0.93972   0.19042   0.50046   0.00000  Uiso   1.00
C700   C     0.56031   0.30955   0.50045   0.00000  Uiso   1.00
C701   C     0.81028   0.44042   0.50046   0.00000  Uiso   1.00
C702   C     0.68969   0.05955   0.50045   0.00000  Uiso   1.00
C703   C     0.68969   0.44045   0.49955   0.00000  Uiso   1.00
C704   C     0.81028   0.05958   0.49954   0.00000  Uiso   1.00
N705   N     0.50000   0.25000   0.61907   0.00000  Uiso   1.00
N706   N     0.50000   0.25000   0.38093   0.00000  Uiso   1.00
N707   N     0.75000   0.00000   0.61907   0.00000  Uiso   1.00
N708   N     0.75000   0.00000   0.38093   0.00000  Uiso   1.00
Zn709  Zn    0.50000   0.25000   0.55104   0.00000  Uiso   1.00
Zn710  Zn    0.50000   0.25000   0.44896   0.00000  Uiso   1.00
Zn711  Zn    0.75000   0.00000   0.55104   0.00000  Uiso   1.00
Zn712  Zn    0.75000   0.00000   0.44896   0.00000  Uiso   1.00
C713   C     0.50338   0.29081   0.35680   0.00000  Uiso   1.00
C714   C     0.50338   0.20919   0.64320   0.00000  Uiso   1.00
C715   C     0.99659   0.20920   0.35687   0.00000  Uiso   1.00
C716   C     0.99659   0.29080   0.64313   0.00000  Uiso   1.00
C717   C     0.74662   0.04081   0.35680   0.00000  Uiso   1.00
C718   C     0.74663   0.45919   0.64320   0.00000  Uiso   1.00
C719   C     0.75341   0.45920   0.35687   0.00000  Uiso   1.00
C720   C     0.75341   0.04080   0.64313   0.00000  Uiso   1.00
C721   C     0.87905   0.15769   0.46487   0.00000  Uiso   1.00
C722   C     0.60022   0.37235   0.53831   0.00000  Uiso   1.00
C723   C     0.62086   0.34249   0.46476   0.00000  Uiso   1.00
C724   C     0.89993   0.12740   0.53819   0.00000  Uiso   1.00
C725   C     0.62086   0.15751   0.53524   0.00000  Uiso   1.00
C726   C     0.89993   0.37260   0.46181   0.00000  Uiso   1.00
C727   C     0.87905   0.34231   0.53513   0.00000  Uiso   1.00
C728   C     0.60022   0.12765   0.46169   0.00000  Uiso   1.00
C729   C     0.64978   0.37766   0.46169   0.00000  Uiso   1.00
C730   C     0.87095   0.09231   0.53513   0.00000  Uiso   1.00
C731   C     0.85007   0.12260   0.46181   0.00000  Uiso   1.00
C732   C     0.62914   0.40751   0.53524   0.00000  Uiso   1.00
C733   C     0.85007   0.37740   0.53819   0.00000  Uiso   1.00
C734   C     0.62914   0.09249   0.46476   0.00000  Uiso   1.00
C735   C     0.64978   0.12235   0.53831   0.00000  Uiso   1.00
C736   C     0.87095   0.40769   0.46487   0.00000  Uiso   1.00
C737   C     0.59479   0.34111   0.50190   0.00000  Uiso   1.00
C738   C     0.90524   0.15885   0.50191   0.00000  Uiso   1.00
C739   C     0.90524   0.34116   0.49809   0.00000  Uiso   1.00
C740   C     0.59479   0.15889   0.49810   0.00000  Uiso   1.00
C741   C     0.84476   0.09116   0.49809   0.00000  Uiso   1.00
C742   C     0.65521   0.40889   0.49810   0.00000  Uiso   1.00
C743   C     0.65520   0.09111   0.50190   0.00000  Uiso   1.00
C744   C     0.84476   0.40885   0.50191   0.00000  Uiso   1.00
N745   N     0.51685   0.33358   0.37721   0.00000  Uiso   1.00
O746   O     0.50315   0.34699   0.41570   0.00000  Uiso   1.00
O747   O     0.54043   0.36193   0.35506   0.00000  Uiso   1.00
N748   N     0.51685   0.16642   0.62279   0.00000  Uiso   1.00
O749   O     0.50315   0.15301   0.58430   0.00000  Uiso   1.00
O750   O     0.54044   0.13807   0.64494   0.00000  Uiso   1.00
N751   N     0.98307   0.16647   0.37736   0.00000  Uiso   1.00
O752   O     0.99691   0.15294   0.41576   0.00000  Uiso   1.00
O753   O     0.95929   0.13825   0.35533   0.00000  Uiso   1.00
N754   N     0.98307   0.33353   0.62264   0.00000  Uiso   1.00
O755   O     0.99691   0.34707   0.58424   0.00000  Uiso   1.00
O756   O     0.95928   0.36174   0.64467   0.00000  Uiso   1.00
N757   N     0.73315   0.08358   0.37721   0.00000  Uiso   1.00
O758   O     0.74685   0.09699   0.41570   0.00000  Uiso   1.00
O759   O     0.70957   0.11193   0.35506   0.00000  Uiso   1.00
N760   N     0.73316   0.41641   0.62279   0.00000  Uiso   1.00
O761   O     0.74685   0.40301   0.58430   0.00000  Uiso   1.00
O762   O     0.70959   0.38806   0.64495   0.00000  Uiso   1.00
N763   N     0.76694   0.41647   0.37736   0.00000  Uiso   1.00
O764   O     0.75308   0.40293   0.41576   0.00000  Uiso   1.00
O765   O     0.79073   0.38826   0.35534   0.00000  Uiso   1.00
N766   N     0.76693   0.08354   0.62264   0.00000  Uiso   1.00
O767   O     0.75308   0.09707   0.58424   0.00000  Uiso   1.00
O768   O     0.79071   0.11174   0.64467   0.00000  Uiso   1.00
N769   N     0.88055   0.19352   0.43110   0.00000  Uiso   1.00
O770   O     0.87420   0.23689   0.44203   0.00000  Uiso   1.00
O771   O     0.88730   0.18291   0.38941   0.00000  Uiso   1.00
N772   N     0.57732   0.36860   0.57900   0.00000  Uiso   1.00
O773   O     0.58598   0.33494   0.60671   0.00000  Uiso   1.00
O774   O     0.55750   0.40485   0.59386   0.00000  Uiso   1.00
N775   N     0.61929   0.30682   0.43087   0.00000  Uiso   1.00
O776   O     0.62578   0.26342   0.44161   0.00000  Uiso   1.00
O777   O     0.61233   0.31763   0.38924   0.00000  Uiso   1.00
N778   N     0.92303   0.13085   0.57874   0.00000  Uiso   1.00
O779   O     0.91443   0.16422   0.60674   0.00000  Uiso   1.00
O780   O     0.94298   0.09452   0.59322   0.00000  Uiso   1.00
N781   N     0.61930   0.19319   0.56912   0.00000  Uiso   1.00
O782   O     0.62578   0.23659   0.55837   0.00000  Uiso   1.00
O783   O     0.61233   0.18239   0.61075   0.00000  Uiso   1.00
N784   N     0.92303   0.36916   0.42126   0.00000  Uiso   1.00
O785   O     0.91443   0.33578   0.39326   0.00000  Uiso   1.00
O786   O     0.94298   0.40549   0.40678   0.00000  Uiso   1.00
N787   N     0.88055   0.30648   0.56890   0.00000  Uiso   1.00
O788   O     0.87420   0.26311   0.55797   0.00000  Uiso   1.00
O789   O     0.88729   0.31709   0.61059   0.00000  Uiso   1.00
N790   N     0.57731   0.13138   0.42101   0.00000  Uiso   1.00
O791   O     0.58597   0.16504   0.39329   0.00000  Uiso   1.00
O792   O     0.55749   0.09514   0.40616   0.00000  Uiso   1.00
N793   N     0.67267   0.38141   0.42099   0.00000  Uiso   1.00
O794   O     0.66401   0.41509   0.39330   0.00000  Uiso   1.00
O795   O     0.69249   0.34517   0.40611   0.00000  Uiso   1.00
N796   N     0.86945   0.05648   0.56890   0.00000  Uiso   1.00
O797   O     0.87580   0.01311   0.55797   0.00000  Uiso   1.00
O798   O     0.86270   0.06709   0.61059   0.00000  Uiso   1.00
N799   N     0.82697   0.11916   0.42126   0.00000  Uiso   1.00
O800   O     0.83557   0.08578   0.39326   0.00000  Uiso   1.00
O801   O     0.80702   0.15548   0.40678   0.00000  Uiso   1.00
N802   N     0.63072   0.44316   0.56915   0.00000  Uiso   1.00
O803   O     0.62421   0.48657   0.55843   0.00000  Uiso   1.00
O804   O     0.63769   0.43233   0.61077   0.00000  Uiso   1.00
N805   N     0.82697   0.38085   0.57874   0.00000  Uiso   1.00
O806   O     0.83557   0.41422   0.60674   0.00000  Uiso   1.00
O807   O     0.80702   0.34452   0.59322   0.00000  Uiso   1.00
N808   N     0.63071   0.05682   0.43086   0.00000  Uiso   1.00
O809   O     0.62422   0.01342   0.44160   0.00000  Uiso   1.00
O810   O     0.63767   0.06764   0.38924   0.00000  Uiso   1.00
N811   N     0.67267   0.11859   0.57901   0.00000  Uiso   1.00
O812   O     0.66401   0.08492   0.60670   0.00000  Uiso   1.00
O813   O     0.69249   0.15483   0.59388   0.00000  Uiso   1.00
N814   N     0.86946   0.44353   0.43110   0.00000  Uiso   1.00
O815   O     0.87580   0.48689   0.44204   0.00000  Uiso   1.00
O816   O     0.86271   0.43291   0.38941   0.00000  Uiso   1.00
O817   O     0.04581   0.70419   0.53821   0.00000  Uiso   1.00
O818   O     0.45420   0.79581   0.46179   0.00000  Uiso   1.00
O819   O     0.45420   0.79581   0.53821   0.00000  Uiso   1.00
O820   O     0.04581   0.70419   0.46179   0.00000  Uiso   1.00
O821   O     0.45420   0.70419   0.46179   0.00000  Uiso   1.00
O822   O     0.04581   0.79581   0.53821   0.00000  Uiso   1.00
O823   O     0.04581   0.79581   0.46179   0.00000  Uiso   1.00
O824   O     0.45420   0.70419   0.53821   0.00000  Uiso   1.00
O825   O     0.29581   0.95419   0.53821   0.00000  Uiso   1.00
O826   O     0.20420   0.54581   0.46179   0.00000  Uiso   1.00
O827   O     0.20420   0.54581   0.53821   0.00000  Uiso   1.00
O828   O     0.29581   0.95419   0.46179   0.00000  Uiso   1.00
O829   O     0.20420   0.95419   0.46179   0.00000  Uiso   1.00
O830   O     0.29581   0.54581   0.53821   0.00000  Uiso   1.00
O831   O     0.29581   0.54581   0.46179   0.00000  Uiso   1.00
O832   O     0.20420   0.95419   0.53821   0.00000  Uiso   1.00
C833   C     0.06031   0.69045   0.49955   0.00000  Uiso   1.00
C834   C     0.43972   0.80958   0.49954   0.00000  Uiso   1.00
C835   C     0.43972   0.69042   0.50046   0.00000  Uiso   1.00
C836   C     0.06031   0.80955   0.50045   0.00000  Uiso   1.00
C837   C     0.31028   0.94042   0.50046   0.00000  Uiso   1.00
C838   C     0.18969   0.55955   0.50045   0.00000  Uiso   1.00
C839   C     0.18969   0.94045   0.49955   0.00000  Uiso   1.00
C840   C     0.31028   0.55958   0.49954   0.00000  Uiso   1.00
N841   N     0.00000   0.75000   0.61907   0.00000  Uiso   1.00
N842   N     0.00000   0.75000   0.38093   0.00000  Uiso   1.00
N843   N     0.25000   0.50000   0.61907   0.00000  Uiso   1.00
N844   N     0.25000   0.50000   0.38093   0.00000  Uiso   1.00
Zn845  Zn    0.00000   0.75000   0.55104   0.00000  Uiso   1.00
Zn846  Zn    0.00000   0.75000   0.44896   0.00000  Uiso   1.00
Zn847  Zn    0.25000   0.50000   0.55104   0.00000  Uiso   1.00
Zn848  Zn    0.25000   0.50000   0.44896   0.00000  Uiso   1.00
C849   C     0.00338   0.79081   0.35680   0.00000  Uiso   1.00
C850   C     0.00338   0.70919   0.64320   0.00000  Uiso   1.00
C851   C     0.49659   0.70920   0.35687   0.00000  Uiso   1.00
C852   C     0.49659   0.79080   0.64313   0.00000  Uiso   1.00
C853   C     0.24662   0.54081   0.35680   0.00000  Uiso   1.00
C854   C     0.24663   0.95919   0.64320   0.00000  Uiso   1.00
C855   C     0.25341   0.95920   0.35687   0.00000  Uiso   1.00
C856   C     0.25341   0.54080   0.64313   0.00000  Uiso   1.00
C857   C     0.37905   0.65769   0.46487   0.00000  Uiso   1.00
C858   C     0.10022   0.87235   0.53831   0.00000  Uiso   1.00
C859   C     0.12086   0.84249   0.46476   0.00000  Uiso   1.00
C860   C     0.39993   0.62740   0.53819   0.00000  Uiso   1.00
C861   C     0.12086   0.65751   0.53524   0.00000  Uiso   1.00
C862   C     0.39993   0.87260   0.46181   0.00000  Uiso   1.00
C863   C     0.37905   0.84231   0.53513   0.00000  Uiso   1.00
C864   C     0.10022   0.62765   0.46169   0.00000  Uiso   1.00
C865   C     0.14978   0.87766   0.46169   0.00000  Uiso   1.00
C866   C     0.37095   0.59231   0.53513   0.00000  Uiso   1.00
C867   C     0.35007   0.62260   0.46181   0.00000  Uiso   1.00
C868   C     0.12914   0.90751   0.53524   0.00000  Uiso   1.00
C869   C     0.35007   0.87740   0.53819   0.00000  Uiso   1.00
C870   C     0.12914   0.59249   0.46476   0.00000  Uiso   1.00
C871   C     0.14978   0.62235   0.53831   0.00000  Uiso   1.00
C872   C     0.37095   0.90769   0.46487   0.00000  Uiso   1.00
C873   C     0.09479   0.84111   0.50190   0.00000  Uiso   1.00
C874   C     0.40524   0.65885   0.50191   0.00000  Uiso   1.00
C875   C     0.40524   0.84116   0.49809   0.00000  Uiso   1.00
C876   C     0.09479   0.65889   0.49810   0.00000  Uiso   1.00
C877   C     0.34476   0.59116   0.49809   0.00000  Uiso   1.00
C878   C     0.15521   0.90889   0.49810   0.00000  Uiso   1.00
C879   C     0.15520   0.59111   0.50190   0.00000  Uiso   1.00
C880   C     0.34476   0.90885   0.50191   0.00000  Uiso   1.00
N881   N     0.01685   0.83358   0.37721   0.00000  Uiso   1.00
O882   O     0.00315   0.84699   0.41570   0.00000  Uiso   1.00
O883   O     0.04043   0.86193   0.35506   0.00000  Uiso   1.00
N884   N     0.01685   0.66642   0.62279   0.00000  Uiso   1.00
O885   O     0.00315   0.65301   0.58430   0.00000  Uiso   1.00
O886   O     0.04044   0.63807   0.64494   0.00000  Uiso   1.00
N887   N     0.48307   0.66647   0.37736   0.00000  Uiso   1.00
O888   O     0.49691   0.65294   0.41576   0.00000  Uiso   1.00
O889   O     0.45929   0.63825   0.35533   0.00000  Uiso   1.00
N890   N     0.48307   0.83353   0.62264   0.00000  Uiso   1.00
O891   O     0.49691   0.84707   0.58424   0.00000  Uiso   1.00
O892   O     0.45928   0.86174   0.64467   0.00000  Uiso   1.00
N893   N     0.23315   0.58358   0.37721   0.00000  Uiso   1.00
O894   O     0.24685   0.59699   0.41570   0.00000  Uiso   1.00
O895   O     0.20957   0.61193   0.35506   0.00000  Uiso   1.00
N896   N     0.23316   0.91641   0.62279   0.00000  Uiso   1.00
O897   O     0.24685   0.90301   0.58430   0.00000  Uiso   1.00
O898   O     0.20959   0.88806   0.64495   0.00000  Uiso   1.00
N899   N     0.26694   0.91647   0.37736   0.00000  Uiso   1.00
O900   O     0.25308   0.90293   0.41576   0.00000  Uiso   1.00
O901   O     0.29073   0.88826   0.35534   0.00000  Uiso   1.00
N902   N     0.26693   0.58354   0.62264   0.00000  Uiso   1.00
O903   O     0.25308   0.59707   0.58424   0.00000  Uiso   1.00
O904   O     0.29071   0.61174   0.64467   0.00000  Uiso   1.00
N905   N     0.38055   0.69352   0.43110   0.00000  Uiso   1.00
O906   O     0.37420   0.73689   0.44203   0.00000  Uiso   1.00
O907   O     0.38730   0.68291   0.38941   0.00000  Uiso   1.00
N908   N     0.07732   0.86860   0.57900   0.00000  Uiso   1.00
O909   O     0.08598   0.83494   0.60671   0.00000  Uiso   1.00
O910   O     0.05750   0.90485   0.59386   0.00000  Uiso   1.00
N911   N     0.11929   0.80682   0.43087   0.00000  Uiso   1.00
O912   O     0.12578   0.76342   0.44161   0.00000  Uiso   1.00
O913   O     0.11233   0.81763   0.38924   0.00000  Uiso   1.00
N914   N     0.42303   0.63085   0.57874   0.00000  Uiso   1.00
O915   O     0.41443   0.66422   0.60674   0.00000  Uiso   1.00
O916   O     0.44298   0.59452   0.59322   0.00000  Uiso   1.00
N917   N     0.11930   0.69319   0.56912   0.00000  Uiso   1.00
O918   O     0.12578   0.73659   0.55837   0.00000  Uiso   1.00
O919   O     0.11233   0.68239   0.61075   0.00000  Uiso   1.00
N920   N     0.42303   0.86916   0.42126   0.00000  Uiso   1.00
O921   O     0.41443   0.83578   0.39326   0.00000  Uiso   1.00
O922   O     0.44298   0.90549   0.40678   0.00000  Uiso   1.00
N923   N     0.38055   0.80648   0.56890   0.00000  Uiso   1.00
O924   O     0.37420   0.76311   0.55797   0.00000  Uiso   1.00
O925   O     0.38729   0.81709   0.61059   0.00000  Uiso   1.00
N926   N     0.07731   0.63138   0.42101   0.00000  Uiso   1.00
O927   O     0.08597   0.66504   0.39329   0.00000  Uiso   1.00
O928   O     0.05749   0.59514   0.40616   0.00000  Uiso   1.00
N929   N     0.17267   0.88141   0.42099   0.00000  Uiso   1.00
O930   O     0.16401   0.91509   0.39330   0.00000  Uiso   1.00
O931   O     0.19249   0.84517   0.40611   0.00000  Uiso   1.00
N932   N     0.36945   0.55648   0.56890   0.00000  Uiso   1.00
O933   O     0.37580   0.51311   0.55797   0.00000  Uiso   1.00
O934   O     0.36270   0.56709   0.61059   0.00000  Uiso   1.00
N935   N     0.32697   0.61916   0.42126   0.00000  Uiso   1.00
O936   O     0.33557   0.58578   0.39326   0.00000  Uiso   1.00
O937   O     0.30702   0.65548   0.40678   0.00000  Uiso   1.00
N938   N     0.13072   0.94316   0.56915   0.00000  Uiso   1.00
O939   O     0.12421   0.98657   0.55843   0.00000  Uiso   1.00
O940   O     0.13769   0.93233   0.61077   0.00000  Uiso   1.00
N941   N     0.32697   0.88085   0.57874   0.00000  Uiso   1.00
O942   O     0.33557   0.91422   0.60674   0.00000  Uiso   1.00
O943   O     0.30702   0.84452   0.59322   0.00000  Uiso   1.00
N944   N     0.13071   0.55682   0.43086   0.00000  Uiso   1.00
O945   O     0.12422   0.51342   0.44160   0.00000  Uiso   1.00
O946   O     0.13767   0.56764   0.38924   0.00000  Uiso   1.00
N947   N     0.17267   0.61859   0.57901   0.00000  Uiso   1.00
O948   O     0.16401   0.58492   0.60670   0.00000  Uiso   1.00
O949   O     0.19249   0.65483   0.59388   0.00000  Uiso   1.00
N950   N     0.36946   0.94353   0.43110   0.00000  Uiso   1.00
O951   O     0.37580   0.98689   0.44204   0.00000  Uiso   1.00
O952   O     0.36271   0.93291   0.38941   0.00000  Uiso   1.00
O953   O     0.54581   0.70419   0.53821   0.00000  Uiso   1.00
O954   O     0.95420   0.79581   0.46179   0.00000  Uiso   1.00
O955   O     0.95420   0.79581   0.53821   0.00000  Uiso   1.00
O956   O     0.54581   0.70419   0.46179   0.00000  Uiso   1.00
O957   O     0.95420   0.70419   0.46179   0.00000  Uiso   1.00
O958   O     0.54581   0.79581   0.53821   0.00000  Uiso   1.00
O959   O     0.54581   0.79581   0.46179   0.00000  Uiso   1.00
O960   O     0.95420   0.70419   0.53821   0.00000  Uiso   1.00
O961   O     0.79581   0.95419   0.53821   0.00000  Uiso   1.00
O962   O     0.70420   0.54581   0.46179   0.00000  Uiso   1.00
O963   O     0.70420   0.54581   0.53821   0.00000  Uiso   1.00
O964   O     0.79581   0.95419   0.46179   0.00000  Uiso   1.00
O965   O     0.70420   0.95419   0.46179   0.00000  Uiso   1.00
O966   O     0.79581   0.54581   0.53821   0.00000  Uiso   1.00
O967   O     0.79581   0.54581   0.46179   0.00000  Uiso   1.00
O968   O     0.70420   0.95419   0.53821   0.00000  Uiso   1.00
C969   C     0.56031   0.69045   0.49955   0.00000  Uiso   1.00
C970   C     0.93972   0.80958   0.49954   0.00000  Uiso   1.00
C971   C     0.93972   0.69042   0.50046   0.00000  Uiso   1.00
C972   C     0.56031   0.80955   0.50045   0.00000  Uiso   1.00
C973   C     0.81028   0.94042   0.50046   0.00000  Uiso   1.00
C974   C     0.68969   0.55955   0.50045   0.00000  Uiso   1.00
C975   C     0.68969   0.94045   0.49955   0.00000  Uiso   1.00
C976   C     0.81028   0.55958   0.49954   0.00000  Uiso   1.00
N977   N     0.50000   0.75000   0.61907   0.00000  Uiso   1.00
N978   N     0.50000   0.75000   0.38093   0.00000  Uiso   1.00
N979   N     0.75000   0.50000   0.61907   0.00000  Uiso   1.00
N980   N     0.75000   0.50000   0.38093   0.00000  Uiso   1.00
Zn981  Zn    0.50000   0.75000   0.55104   0.00000  Uiso   1.00
Zn982  Zn    0.50000   0.75000   0.44896   0.00000  Uiso   1.00
Zn983  Zn    0.75000   0.50000   0.55104   0.00000  Uiso   1.00
Zn984  Zn    0.75000   0.50000   0.44896   0.00000  Uiso   1.00
C985   C     0.50338   0.79081   0.35680   0.00000  Uiso   1.00
C986   C     0.50338   0.70919   0.64320   0.00000  Uiso   1.00
C987   C     0.99659   0.70920   0.35687   0.00000  Uiso   1.00
C988   C     0.99659   0.79080   0.64313   0.00000  Uiso   1.00
C989   C     0.74662   0.54081   0.35680   0.00000  Uiso   1.00
C990   C     0.74663   0.95919   0.64320   0.00000  Uiso   1.00
C991   C     0.75341   0.95920   0.35687   0.00000  Uiso   1.00
C992   C     0.75341   0.54080   0.64313   0.00000  Uiso   1.00
C993   C     0.87905   0.65769   0.46487   0.00000  Uiso   1.00
C994   C     0.60022   0.87235   0.53831   0.00000  Uiso   1.00
C995   C     0.62086   0.84249   0.46476   0.00000  Uiso   1.00
C996   C     0.89993   0.62740   0.53819   0.00000  Uiso   1.00
C997   C     0.62086   0.65751   0.53524   0.00000  Uiso   1.00
C998   C     0.89993   0.87260   0.46181   0.00000  Uiso   1.00
C999   C     0.87905   0.84231   0.53513   0.00000  Uiso   1.00
C1000  C     0.60022   0.62765   0.46169   0.00000  Uiso   1.00
C1001  C     0.64978   0.87766   0.46169   0.00000  Uiso   1.00
C1002  C     0.87095   0.59231   0.53513   0.00000  Uiso   1.00
C1003  C     0.85007   0.62260   0.46181   0.00000  Uiso   1.00
C1004  C     0.62914   0.90751   0.53524   0.00000  Uiso   1.00
C1005  C     0.85007   0.87740   0.53819   0.00000  Uiso   1.00
C1006  C     0.62914   0.59249   0.46476   0.00000  Uiso   1.00
C1007  C     0.64978   0.62235   0.53831   0.00000  Uiso   1.00
C1008  C     0.87095   0.90769   0.46487   0.00000  Uiso   1.00
C1009  C     0.59479   0.84111   0.50190   0.00000  Uiso   1.00
C1010  C     0.90524   0.65885   0.50191   0.00000  Uiso   1.00
C1011  C     0.90524   0.84116   0.49809   0.00000  Uiso   1.00
C1012  C     0.59479   0.65889   0.49810   0.00000  Uiso   1.00
C1013  C     0.84476   0.59116   0.49809   0.00000  Uiso   1.00
C1014  C     0.65521   0.90889   0.49810   0.00000  Uiso   1.00
C1015  C     0.65520   0.59111   0.50190   0.00000  Uiso   1.00
C1016  C     0.84476   0.90885   0.50191   0.00000  Uiso   1.00
N1017  N     0.51685   0.83358   0.37721   0.00000  Uiso   1.00
O1018  O     0.50315   0.84699   0.41570   0.00000  Uiso   1.00
O1019  O     0.54043   0.86193   0.35506   0.00000  Uiso   1.00
N1020  N     0.51685   0.66642   0.62279   0.00000  Uiso   1.00
O1021  O     0.50315   0.65301   0.58430   0.00000  Uiso   1.00
O1022  O     0.54044   0.63807   0.64494   0.00000  Uiso   1.00
N1023  N     0.98307   0.66647   0.37736   0.00000  Uiso   1.00
O1024  O     0.99691   0.65294   0.41576   0.00000  Uiso   1.00
O1025  O     0.95929   0.63825   0.35533   0.00000  Uiso   1.00
N1026  N     0.98307   0.83353   0.62264   0.00000  Uiso   1.00
O1027  O     0.99691   0.84707   0.58424   0.00000  Uiso   1.00
O1028  O     0.95928   0.86174   0.64467   0.00000  Uiso   1.00
N1029  N     0.73315   0.58358   0.37721   0.00000  Uiso   1.00
O1030  O     0.74685   0.59699   0.41570   0.00000  Uiso   1.00
O1031  O     0.70957   0.61193   0.35506   0.00000  Uiso   1.00
N1032  N     0.73316   0.91641   0.62279   0.00000  Uiso   1.00
O1033  O     0.74685   0.90301   0.58430   0.00000  Uiso   1.00
O1034  O     0.70959   0.88806   0.64495   0.00000  Uiso   1.00
N1035  N     0.76694   0.91647   0.37736   0.00000  Uiso   1.00
O1036  O     0.75308   0.90293   0.41576   0.00000  Uiso   1.00
O1037  O     0.79073   0.88826   0.35534   0.00000  Uiso   1.00
N1038  N     0.76693   0.58354   0.62264   0.00000  Uiso   1.00
O1039  O     0.75308   0.59707   0.58424   0.00000  Uiso   1.00
O1040  O     0.79071   0.61174   0.64467   0.00000  Uiso   1.00
N1041  N     0.88055   0.69352   0.43110   0.00000  Uiso   1.00
O1042  O     0.87420   0.73689   0.44203   0.00000  Uiso   1.00
O1043  O     0.88730   0.68291   0.38941   0.00000  Uiso   1.00
N1044  N     0.57732   0.86860   0.57900   0.00000  Uiso   1.00
O1045  O     0.58598   0.83494   0.60671   0.00000  Uiso   1.00
O1046  O     0.55750   0.90485   0.59386   0.00000  Uiso   1.00
N1047  N     0.61929   0.80682   0.43087   0.00000  Uiso   1.00
O1048  O     0.62578   0.76342   0.44161   0.00000  Uiso   1.00
O1049  O     0.61233   0.81763   0.38924   0.00000  Uiso   1.00
N1050  N     0.92303   0.63085   0.57874   0.00000  Uiso   1.00
O1051  O     0.91443   0.66422   0.60674   0.00000  Uiso   1.00
O1052  O     0.94298   0.59452   0.59322   0.00000  Uiso   1.00
N1053  N     0.61930   0.69319   0.56912   0.00000  Uiso   1.00
O1054  O     0.62578   0.73659   0.55837   0.00000  Uiso   1.00
O1055  O     0.61233   0.68239   0.61075   0.00000  Uiso   1.00
N1056  N     0.92303   0.86916   0.42126   0.00000  Uiso   1.00
O1057  O     0.91443   0.83578   0.39326   0.00000  Uiso   1.00
O1058  O     0.94298   0.90549   0.40678   0.00000  Uiso   1.00
N1059  N     0.88055   0.80648   0.56890   0.00000  Uiso   1.00
O1060  O     0.87420   0.76311   0.55797   0.00000  Uiso   1.00
O1061  O     0.88729   0.81709   0.61059   0.00000  Uiso   1.00
N1062  N     0.57731   0.63138   0.42101   0.00000  Uiso   1.00
O1063  O     0.58597   0.66504   0.39329   0.00000  Uiso   1.00
O1064  O     0.55749   0.59514   0.40616   0.00000  Uiso   1.00
N1065  N     0.67267   0.88141   0.42099   0.00000  Uiso   1.00
O1066  O     0.66401   0.91509   0.39330   0.00000  Uiso   1.00
O1067  O     0.69249   0.84517   0.40611   0.00000  Uiso   1.00
N1068  N     0.86945   0.55648   0.56890   0.00000  Uiso   1.00
O1069  O     0.87580   0.51311   0.55797   0.00000  Uiso   1.00
O1070  O     0.86270   0.56709   0.61059   0.00000  Uiso   1.00
N1071  N     0.82697   0.61916   0.42126   0.00000  Uiso   1.00
O1072  O     0.83557   0.58578   0.39326   0.00000  Uiso   1.00
O1073  O     0.80702   0.65548   0.40678   0.00000  Uiso   1.00
N1074  N     0.63072   0.94316   0.56915   0.00000  Uiso   1.00
O1075  O     0.62421   0.98657   0.55843   0.00000  Uiso   1.00
O1076  O     0.63769   0.93233   0.61077   0.00000  Uiso   1.00
N1077  N     0.82697   0.88085   0.57874   0.00000  Uiso   1.00
O1078  O     0.83557   0.91422   0.60674   0.00000  Uiso   1.00
O1079  O     0.80702   0.84452   0.59322   0.00000  Uiso   1.00
N1080  N     0.63071   0.55682   0.43086   0.00000  Uiso   1.00
O1081  O     0.62422   0.51342   0.44160   0.00000  Uiso   1.00
O1082  O     0.63767   0.56764   0.38924   0.00000  Uiso   1.00
N1083  N     0.67267   0.61859   0.57901   0.00000  Uiso   1.00
O1084  O     0.66401   0.58492   0.60670   0.00000  Uiso   1.00
O1085  O     0.69249   0.65483   0.59388   0.00000  Uiso   1.00
N1086  N     0.86946   0.94353   0.43110   0.00000  Uiso   1.00
O1087  O     0.87580   0.98689   0.44204   0.00000  Uiso   1.00
O1088  O     0.86271   0.93291   0.38941   0.00000  Uiso   1.00
O1089  O     0.04581   0.20419   0.87154   0.00000  Uiso   1.00
O1090  O     0.45420   0.29581   0.79513   0.00000  Uiso   1.00
O1091  O     0.45420   0.29581   0.87154   0.00000  Uiso   1.00
O1092  O     0.04581   0.20419   0.79513   0.00000  Uiso   1.00
O1093  O     0.45420   0.20419   0.79513   0.00000  Uiso   1.00
O1094  O     0.04581   0.29581   0.87154   0.00000  Uiso   1.00
O1095  O     0.04581   0.29581   0.79513   0.00000  Uiso   1.00
O1096  O     0.45420   0.20419   0.87154   0.00000  Uiso   1.00
O1097  O     0.29581   0.45419   0.87154   0.00000  Uiso   1.00
O1098  O     0.20420   0.04581   0.79513   0.00000  Uiso   1.00
O1099  O     0.20420   0.04581   0.87154   0.00000  Uiso   1.00
O1100  O     0.29581   0.45419   0.79513   0.00000  Uiso   1.00
O1101  O     0.20420   0.45419   0.79513   0.00000  Uiso   1.00
O1102  O     0.29581   0.04581   0.87154   0.00000  Uiso   1.00
O1103  O     0.29581   0.04581   0.79513   0.00000  Uiso   1.00
O1104  O     0.20420   0.45419   0.87154   0.00000  Uiso   1.00
C1105  C     0.06031   0.19045   0.83288   0.00000  Uiso   1.00
C1106  C     0.43972   0.30958   0.83287   0.00000  Uiso   1.00
C1107  C     0.43972   0.19042   0.83379   0.00000  Uiso   1.00
C1108  C     0.06031   0.30955   0.83378   0.00000  Uiso   1.00
C1109  C     0.31028   0.44042   0.83379   0.00000  Uiso   1.00
C1110  C     0.18969   0.05955   0.83379   0.00000  Uiso   1.00
C1111  C     0.18969   0.44045   0.83288   0.00000  Uiso   1.00
C1112  C     0.31028   0.05958   0.83287   0.00000  Uiso   1.00
N1113  N     0.00000   0.25000   0.95240   0.00000  Uiso   1.00
N1114  N     0.00000   0.25000   0.71427   0.00000  Uiso   1.00
N1115  N     0.25000   0.00000   0.95240   0.00000  Uiso   1.00
N1116  N     0.25000   0.00000   0.71427   0.00000  Uiso   1.00
Zn1117 Zn    0.00000   0.25000   0.88437   0.00000  Uiso   1.00
Zn1118 Zn    0.00000   0.25000   0.78229   0.00000  Uiso   1.00
Zn1119 Zn    0.25000   0.00000   0.88437   0.00000  Uiso   1.00
Zn1120 Zn    0.25000   0.00000   0.78229   0.00000  Uiso   1.00
C1121  C     0.00338   0.29081   0.69014   0.00000  Uiso   1.00
C1122  C     0.00338   0.20919   0.97653   0.00000  Uiso   1.00
C1123  C     0.49659   0.20920   0.69020   0.00000  Uiso   1.00
C1124  C     0.49659   0.29080   0.97646   0.00000  Uiso   1.00
C1125  C     0.24662   0.04081   0.69014   0.00000  Uiso   1.00
C1126  C     0.24663   0.45919   0.97653   0.00000  Uiso   1.00
C1127  C     0.25341   0.45920   0.69020   0.00000  Uiso   1.00
C1128  C     0.25341   0.04080   0.97646   0.00000  Uiso   1.00
C1129  C     0.37905   0.15769   0.79820   0.00000  Uiso   1.00
C1130  C     0.10022   0.37235   0.87164   0.00000  Uiso   1.00
C1131  C     0.12086   0.34249   0.79809   0.00000  Uiso   1.00
C1132  C     0.39993   0.12740   0.87152   0.00000  Uiso   1.00
C1133  C     0.12086   0.15751   0.86857   0.00000  Uiso   1.00
C1134  C     0.39993   0.37260   0.79514   0.00000  Uiso   1.00
C1135  C     0.37905   0.34231   0.86846   0.00000  Uiso   1.00
C1136  C     0.10022   0.12765   0.79503   0.00000  Uiso   1.00
C1137  C     0.14978   0.37766   0.79502   0.00000  Uiso   1.00
C1138  C     0.37095   0.09231   0.86846   0.00000  Uiso   1.00
C1139  C     0.35007   0.12260   0.79514   0.00000  Uiso   1.00
C1140  C     0.12914   0.40751   0.86858   0.00000  Uiso   1.00
C1141  C     0.35007   0.37740   0.87152   0.00000  Uiso   1.00
C1142  C     0.12914   0.09249   0.79809   0.00000  Uiso   1.00
C1143  C     0.14978   0.12235   0.87165   0.00000  Uiso   1.00
C1144  C     0.37095   0.40769   0.79821   0.00000  Uiso   1.00
C1145  C     0.09479   0.34111   0.83524   0.00000  Uiso   1.00
C1146  C     0.40524   0.15885   0.83524   0.00000  Uiso   1.00
C1147  C     0.40524   0.34116   0.83143   0.00000  Uiso   1.00
C1148  C     0.09479   0.15889   0.83143   0.00000  Uiso   1.00
C1149  C     0.34476   0.09116   0.83143   0.00000  Uiso   1.00
C1150  C     0.15521   0.40889   0.83143   0.00000  Uiso   1.00
C1151  C     0.15520   0.09111   0.83524   0.00000  Uiso   1.00
C1152  C     0.34476   0.40885   0.83524   0.00000  Uiso   1.00
N1153  N     0.01685   0.33358   0.71054   0.00000  Uiso   1.00
O1154  O     0.00315   0.34699   0.74903   0.00000  Uiso   1.00
O1155  O     0.04043   0.36193   0.68839   0.00000  Uiso   1.00
N1156  N     0.01685   0.16642   0.95612   0.00000  Uiso   1.00
O1157  O     0.00315   0.15301   0.91764   0.00000  Uiso   1.00
O1158  O     0.04044   0.13807   0.97827   0.00000  Uiso   1.00
N1159  N     0.48307   0.16647   0.71069   0.00000  Uiso   1.00
O1160  O     0.49691   0.15294   0.74909   0.00000  Uiso   1.00
O1161  O     0.45929   0.13825   0.68866   0.00000  Uiso   1.00
N1162  N     0.48307   0.33353   0.95598   0.00000  Uiso   1.00
O1163  O     0.49691   0.34707   0.91757   0.00000  Uiso   1.00
O1164  O     0.45928   0.36174   0.97800   0.00000  Uiso   1.00
N1165  N     0.23315   0.08358   0.71054   0.00000  Uiso   1.00
O1166  O     0.24685   0.09699   0.74903   0.00000  Uiso   1.00
O1167  O     0.20957   0.11193   0.68839   0.00000  Uiso   1.00
N1168  N     0.23316   0.41641   0.95612   0.00000  Uiso   1.00
O1169  O     0.24685   0.40301   0.91763   0.00000  Uiso   1.00
O1170  O     0.20959   0.38806   0.97828   0.00000  Uiso   1.00
N1171  N     0.26694   0.41647   0.71069   0.00000  Uiso   1.00
O1172  O     0.25308   0.40293   0.74909   0.00000  Uiso   1.00
O1173  O     0.29073   0.38826   0.68867   0.00000  Uiso   1.00
N1174  N     0.26693   0.08354   0.95598   0.00000  Uiso   1.00
O1175  O     0.25308   0.09707   0.91757   0.00000  Uiso   1.00
O1176  O     0.29071   0.11174   0.97800   0.00000  Uiso   1.00
N1177  N     0.38055   0.19352   0.76443   0.00000  Uiso   1.00
O1178  O     0.37420   0.23689   0.77536   0.00000  Uiso   1.00
O1179  O     0.38730   0.18291   0.72274   0.00000  Uiso   1.00
N1180  N     0.07732   0.36860   0.91233   0.00000  Uiso   1.00
O1181  O     0.08598   0.33494   0.94004   0.00000  Uiso   1.00
O1182  O     0.05750   0.40485   0.92719   0.00000  Uiso   1.00
N1183  N     0.11929   0.30682   0.76420   0.00000  Uiso   1.00
O1184  O     0.12578   0.26342   0.77494   0.00000  Uiso   1.00
O1185  O     0.11233   0.31763   0.72258   0.00000  Uiso   1.00
N1186  N     0.42303   0.13085   0.91208   0.00000  Uiso   1.00
O1187  O     0.41443   0.16422   0.94007   0.00000  Uiso   1.00
O1188  O     0.44298   0.09452   0.92655   0.00000  Uiso   1.00
N1189  N     0.11930   0.19319   0.90246   0.00000  Uiso   1.00
O1190  O     0.12578   0.23659   0.89171   0.00000  Uiso   1.00
O1191  O     0.11233   0.18239   0.94408   0.00000  Uiso   1.00
N1192  N     0.42303   0.36916   0.75459   0.00000  Uiso   1.00
O1193  O     0.41443   0.33578   0.72659   0.00000  Uiso   1.00
O1194  O     0.44298   0.40549   0.74011   0.00000  Uiso   1.00
N1195  N     0.38055   0.30648   0.90223   0.00000  Uiso   1.00
O1196  O     0.37420   0.26311   0.89130   0.00000  Uiso   1.00
O1197  O     0.38729   0.31709   0.94393   0.00000  Uiso   1.00
N1198  N     0.07731   0.13138   0.75434   0.00000  Uiso   1.00
O1199  O     0.08597   0.16504   0.72663   0.00000  Uiso   1.00
O1200  O     0.05749   0.09514   0.73949   0.00000  Uiso   1.00
N1201  N     0.17267   0.38141   0.75432   0.00000  Uiso   1.00
O1202  O     0.16401   0.41509   0.72663   0.00000  Uiso   1.00
O1203  O     0.19249   0.34517   0.73945   0.00000  Uiso   1.00
N1204  N     0.36945   0.05648   0.90223   0.00000  Uiso   1.00
O1205  O     0.37580   0.01311   0.89130   0.00000  Uiso   1.00
O1206  O     0.36270   0.06709   0.94393   0.00000  Uiso   1.00
N1207  N     0.32697   0.11916   0.75459   0.00000  Uiso   1.00
O1208  O     0.33557   0.08578   0.72660   0.00000  Uiso   1.00
O1209  O     0.30702   0.15548   0.74012   0.00000  Uiso   1.00
N1210  N     0.13072   0.44316   0.90248   0.00000  Uiso   1.00
O1211  O     0.12421   0.48657   0.89176   0.00000  Uiso   1.00
O1212  O     0.13769   0.43233   0.94410   0.00000  Uiso   1.00
N1213  N     0.32697   0.38085   0.91208   0.00000  Uiso   1.00
O1214  O     0.33557   0.41422   0.94007   0.00000  Uiso   1.00
O1215  O     0.30702   0.34452   0.92655   0.00000  Uiso   1.00
N1216  N     0.13071   0.05682   0.76420   0.00000  Uiso   1.00
O1217  O     0.12422   0.01342   0.77493   0.00000  Uiso   1.00
O1218  O     0.13767   0.06764   0.72258   0.00000  Uiso   1.00
N1219  N     0.17267   0.11859   0.91234   0.00000  Uiso   1.00
O1220  O     0.16401   0.08492   0.94004   0.00000  Uiso   1.00
O1221  O     0.19249   0.15483   0.92722   0.00000  Uiso   1.00
N1222  N     0.36946   0.44353   0.76444   0.00000  Uiso   1.00
O1223  O     0.37580   0.48689   0.77537   0.00000  Uiso   1.00
O1224  O     0.36271   0.43291   0.72274   0.00000  Uiso   1.00
O1225  O     0.54581   0.20419   0.87154   0.00000  Uiso   1.00
O1226  O     0.95420   0.29581   0.79513   0.00000  Uiso   1.00
O1227  O     0.95420   0.29581   0.87154   0.00000  Uiso   1.00
O1228  O     0.54581   0.20419   0.79513   0.00000  Uiso   1.00
O1229  O     0.95420   0.20419   0.79513   0.00000  Uiso   1.00
O1230  O     0.54581   0.29581   0.87154   0.00000  Uiso   1.00
O1231  O     0.54581   0.29581   0.79513   0.00000  Uiso   1.00
O1232  O     0.95420   0.20419   0.87154   0.00000  Uiso   1.00
O1233  O     0.79581   0.45419   0.87154   0.00000  Uiso   1.00
O1234  O     0.70420   0.04581   0.79513   0.00000  Uiso   1.00
O1235  O     0.70420   0.04581   0.87154   0.00000  Uiso   1.00
O1236  O     0.79581   0.45419   0.79513   0.00000  Uiso   1.00
O1237  O     0.70420   0.45419   0.79513   0.00000  Uiso   1.00
O1238  O     0.79581   0.04581   0.87154   0.00000  Uiso   1.00
O1239  O     0.79581   0.04581   0.79513   0.00000  Uiso   1.00
O1240  O     0.70420   0.45419   0.87154   0.00000  Uiso   1.00
C1241  C     0.56031   0.19045   0.83288   0.00000  Uiso   1.00
C1242  C     0.93972   0.30958   0.83287   0.00000  Uiso   1.00
C1243  C     0.93972   0.19042   0.83379   0.00000  Uiso   1.00
C1244  C     0.56031   0.30955   0.83378   0.00000  Uiso   1.00
C1245  C     0.81028   0.44042   0.83379   0.00000  Uiso   1.00
C1246  C     0.68969   0.05955   0.83379   0.00000  Uiso   1.00
C1247  C     0.68969   0.44045   0.83288   0.00000  Uiso   1.00
C1248  C     0.81028   0.05958   0.83287   0.00000  Uiso   1.00
N1249  N     0.50000   0.25000   0.95240   0.00000  Uiso   1.00
N1250  N     0.50000   0.25000   0.71427   0.00000  Uiso   1.00
N1251  N     0.75000   0.00000   0.95240   0.00000  Uiso   1.00
N1252  N     0.75000   0.00000   0.71427   0.00000  Uiso   1.00
Zn1253 Zn    0.50000   0.25000   0.88437   0.00000  Uiso   1.00
Zn1254 Zn    0.50000   0.25000   0.78229   0.00000  Uiso   1.00
Zn1255 Zn    0.75000   0.00000   0.88437   0.00000  Uiso   1.00
Zn1256 Zn    0.75000   0.00000   0.78229   0.00000  Uiso   1.00
C1257  C     0.50338   0.29081   0.69014   0.00000  Uiso   1.00
C1258  C     0.50338   0.20919   0.97653   0.00000  Uiso   1.00
C1259  C     0.99659   0.20920   0.69020   0.00000  Uiso   1.00
C1260  C     0.99659   0.29080   0.97646   0.00000  Uiso   1.00
C1261  C     0.74662   0.04081   0.69014   0.00000  Uiso   1.00
C1262  C     0.74663   0.45919   0.97653   0.00000  Uiso   1.00
C1263  C     0.75341   0.45920   0.69020   0.00000  Uiso   1.00
C1264  C     0.75341   0.04080   0.97646   0.00000  Uiso   1.00
C1265  C     0.87905   0.15769   0.79820   0.00000  Uiso   1.00
C1266  C     0.60022   0.37235   0.87164   0.00000  Uiso   1.00
C1267  C     0.62086   0.34249   0.79809   0.00000  Uiso   1.00
C1268  C     0.89993   0.12740   0.87152   0.00000  Uiso   1.00
C1269  C     0.62086   0.15751   0.86857   0.00000  Uiso   1.00
C1270  C     0.89993   0.37260   0.79514   0.00000  Uiso   1.00
C1271  C     0.87905   0.34231   0.86846   0.00000  Uiso   1.00
C1272  C     0.60022   0.12765   0.79503   0.00000  Uiso   1.00
C1273  C     0.64978   0.37766   0.79502   0.00000  Uiso   1.00
C1274  C     0.87095   0.09231   0.86846   0.00000  Uiso   1.00
C1275  C     0.85007   0.12260   0.79514   0.00000  Uiso   1.00
C1276  C     0.62914   0.40751   0.86858   0.00000  Uiso   1.00
C1277  C     0.85007   0.37740   0.87152   0.00000  Uiso   1.00
C1278  C     0.62914   0.09249   0.79809   0.00000  Uiso   1.00
C1279  C     0.64978   0.12235   0.87165   0.00000  Uiso   1.00
C1280  C     0.87095   0.40769   0.79821   0.00000  Uiso   1.00
C1281  C     0.59479   0.34111   0.83524   0.00000  Uiso   1.00
C1282  C     0.90524   0.15885   0.83524   0.00000  Uiso   1.00
C1283  C     0.90524   0.34116   0.83143   0.00000  Uiso   1.00
C1284  C     0.59479   0.15889   0.83143   0.00000  Uiso   1.00
C1285  C     0.84476   0.09116   0.83143   0.00000  Uiso   1.00
C1286  C     0.65521   0.40889   0.83143   0.00000  Uiso   1.00
C1287  C     0.65520   0.09111   0.83524   0.00000  Uiso   1.00
C1288  C     0.84476   0.40885   0.83524   0.00000  Uiso   1.00
N1289  N     0.51685   0.33358   0.71054   0.00000  Uiso   1.00
O1290  O     0.50315   0.34699   0.74903   0.00000  Uiso   1.00
O1291  O     0.54043   0.36193   0.68839   0.00000  Uiso   1.00
N1292  N     0.51685   0.16642   0.95612   0.00000  Uiso   1.00
O1293  O     0.50315   0.15301   0.91764   0.00000  Uiso   1.00
O1294  O     0.54044   0.13807   0.97827   0.00000  Uiso   1.00
N1295  N     0.98307   0.16647   0.71069   0.00000  Uiso   1.00
O1296  O     0.99691   0.15294   0.74909   0.00000  Uiso   1.00
O1297  O     0.95929   0.13825   0.68866   0.00000  Uiso   1.00
N1298  N     0.98307   0.33353   0.95598   0.00000  Uiso   1.00
O1299  O     0.99691   0.34707   0.91757   0.00000  Uiso   1.00
O1300  O     0.95928   0.36174   0.97800   0.00000  Uiso   1.00
N1301  N     0.73315   0.08358   0.71054   0.00000  Uiso   1.00
O1302  O     0.74685   0.09699   0.74903   0.00000  Uiso   1.00
O1303  O     0.70957   0.11193   0.68839   0.00000  Uiso   1.00
N1304  N     0.73316   0.41641   0.95612   0.00000  Uiso   1.00
O1305  O     0.74685   0.40301   0.91763   0.00000  Uiso   1.00
O1306  O     0.70959   0.38806   0.97828   0.00000  Uiso   1.00
N1307  N     0.76694   0.41647   0.71069   0.00000  Uiso   1.00
O1308  O     0.75308   0.40293   0.74909   0.00000  Uiso   1.00
O1309  O     0.79073   0.38826   0.68867   0.00000  Uiso   1.00
N1310  N     0.76693   0.08354   0.95598   0.00000  Uiso   1.00
O1311  O     0.75308   0.09707   0.91757   0.00000  Uiso   1.00
O1312  O     0.79071   0.11174   0.97800   0.00000  Uiso   1.00
N1313  N     0.88055   0.19352   0.76443   0.00000  Uiso   1.00
O1314  O     0.87420   0.23689   0.77536   0.00000  Uiso   1.00
O1315  O     0.88730   0.18291   0.72274   0.00000  Uiso   1.00
N1316  N     0.57732   0.36860   0.91233   0.00000  Uiso   1.00
O1317  O     0.58598   0.33494   0.94004   0.00000  Uiso   1.00
O1318  O     0.55750   0.40485   0.92719   0.00000  Uiso   1.00
N1319  N     0.61929   0.30682   0.76420   0.00000  Uiso   1.00
O1320  O     0.62578   0.26342   0.77494   0.00000  Uiso   1.00
O1321  O     0.61233   0.31763   0.72258   0.00000  Uiso   1.00
N1322  N     0.92303   0.13085   0.91208   0.00000  Uiso   1.00
O1323  O     0.91443   0.16422   0.94007   0.00000  Uiso   1.00
O1324  O     0.94298   0.09452   0.92655   0.00000  Uiso   1.00
N1325  N     0.61930   0.19319   0.90246   0.00000  Uiso   1.00
O1326  O     0.62578   0.23659   0.89171   0.00000  Uiso   1.00
O1327  O     0.61233   0.18239   0.94408   0.00000  Uiso   1.00
N1328  N     0.92303   0.36916   0.75459   0.00000  Uiso   1.00
O1329  O     0.91443   0.33578   0.72659   0.00000  Uiso   1.00
O1330  O     0.94298   0.40549   0.74011   0.00000  Uiso   1.00
N1331  N     0.88055   0.30648   0.90223   0.00000  Uiso   1.00
O1332  O     0.87420   0.26311   0.89130   0.00000  Uiso   1.00
O1333  O     0.88729   0.31709   0.94393   0.00000  Uiso   1.00
N1334  N     0.57731   0.13138   0.75434   0.00000  Uiso   1.00
O1335  O     0.58597   0.16504   0.72663   0.00000  Uiso   1.00
O1336  O     0.55749   0.09514   0.73949   0.00000  Uiso   1.00
N1337  N     0.67267   0.38141   0.75432   0.00000  Uiso   1.00
O1338  O     0.66401   0.41509   0.72663   0.00000  Uiso   1.00
O1339  O     0.69249   0.34517   0.73945   0.00000  Uiso   1.00
N1340  N     0.86945   0.05648   0.90223   0.00000  Uiso   1.00
O1341  O     0.87580   0.01311   0.89130   0.00000  Uiso   1.00
O1342  O     0.86270   0.06709   0.94393   0.00000  Uiso   1.00
N1343  N     0.82697   0.11916   0.75459   0.00000  Uiso   1.00
O1344  O     0.83557   0.08578   0.72660   0.00000  Uiso   1.00
O1345  O     0.80702   0.15548   0.74012   0.00000  Uiso   1.00
N1346  N     0.63072   0.44316   0.90248   0.00000  Uiso   1.00
O1347  O     0.62421   0.48657   0.89176   0.00000  Uiso   1.00
O1348  O     0.63769   0.43233   0.94410   0.00000  Uiso   1.00
N1349  N     0.82697   0.38085   0.91208   0.00000  Uiso   1.00
O1350  O     0.83557   0.41422   0.94007   0.00000  Uiso   1.00
O1351  O     0.80702   0.34452   0.92655   0.00000  Uiso   1.00
N1352  N     0.63071   0.05682   0.76420   0.00000  Uiso   1.00
O1353  O     0.62422   0.01342   0.77493   0.00000  Uiso   1.00
O1354  O     0.63767   0.06764   0.72258   0.00000  Uiso   1.00
N1355  N     0.67267   0.11859   0.91234   0.00000  Uiso   1.00
O1356  O     0.66401   0.08492   0.94004   0.00000  Uiso   1.00
O1357  O     0.69249   0.15483   0.92722   0.00000  Uiso   1.00
N1358  N     0.86946   0.44353   0.76444   0.00000  Uiso   1.00
O1359  O     0.87580   0.48689   0.77537   0.00000  Uiso   1.00
O1360  O     0.86271   0.43291   0.72274   0.00000  Uiso   1.00
O1361  O     0.04581   0.70419   0.87154   0.00000  Uiso   1.00
O1362  O     0.45420   0.79581   0.79513   0.00000  Uiso   1.00
O1363  O     0.45420   0.79581   0.87154   0.00000  Uiso   1.00
O1364  O     0.04581   0.70419   0.79513   0.00000  Uiso   1.00
O1365  O     0.45420   0.70419   0.79513   0.00000  Uiso   1.00
O1366  O     0.04581   0.79581   0.87154   0.00000  Uiso   1.00
O1367  O     0.04581   0.79581   0.79513   0.00000  Uiso   1.00
O1368  O     0.45420   0.70419   0.87154   0.00000  Uiso   1.00
O1369  O     0.29581   0.95419   0.87154   0.00000  Uiso   1.00
O1370  O     0.20420   0.54581   0.79513   0.00000  Uiso   1.00
O1371  O     0.20420   0.54581   0.87154   0.00000  Uiso   1.00
O1372  O     0.29581   0.95419   0.79513   0.00000  Uiso   1.00
O1373  O     0.20420   0.95419   0.79513   0.00000  Uiso   1.00
O1374  O     0.29581   0.54581   0.87154   0.00000  Uiso   1.00
O1375  O     0.29581   0.54581   0.79513   0.00000  Uiso   1.00
O1376  O     0.20420   0.95419   0.87154   0.00000  Uiso   1.00
C1377  C     0.06031   0.69045   0.83288   0.00000  Uiso   1.00
C1378  C     0.43972   0.80958   0.83287   0.00000  Uiso   1.00
C1379  C     0.43972   0.69042   0.83379   0.00000  Uiso   1.00
C1380  C     0.06031   0.80955   0.83378   0.00000  Uiso   1.00
C1381  C     0.31028   0.94042   0.83379   0.00000  Uiso   1.00
C1382  C     0.18969   0.55955   0.83379   0.00000  Uiso   1.00
C1383  C     0.18969   0.94045   0.83288   0.00000  Uiso   1.00
C1384  C     0.31028   0.55958   0.83287   0.00000  Uiso   1.00
N1385  N     0.00000   0.75000   0.95240   0.00000  Uiso   1.00
N1386  N     0.00000   0.75000   0.71427   0.00000  Uiso   1.00
N1387  N     0.25000   0.50000   0.95240   0.00000  Uiso   1.00
N1388  N     0.25000   0.50000   0.71427   0.00000  Uiso   1.00
Zn1389 Zn    0.00000   0.75000   0.88437   0.00000  Uiso   1.00
Zn1390 Zn    0.00000   0.75000   0.78229   0.00000  Uiso   1.00
Zn1391 Zn    0.25000   0.50000   0.88437   0.00000  Uiso   1.00
Zn1392 Zn    0.25000   0.50000   0.78229   0.00000  Uiso   1.00
C1393  C     0.00338   0.79081   0.69014   0.00000  Uiso   1.00
C1394  C     0.00338   0.70919   0.97653   0.00000  Uiso   1.00
C1395  C     0.49659   0.70920   0.69020   0.00000  Uiso   1.00
C1396  C     0.49659   0.79080   0.97646   0.00000  Uiso   1.00
C1397  C     0.24662   0.54081   0.69014   0.00000  Uiso   1.00
C1398  C     0.24663   0.95919   0.97653   0.00000  Uiso   1.00
C1399  C     0.25341   0.95920   0.69020   0.00000  Uiso   1.00
C1400  C     0.25341   0.54080   0.97646   0.00000  Uiso   1.00
C1401  C     0.37905   0.65769   0.79820   0.00000  Uiso   1.00
C1402  C     0.10022   0.87235   0.87164   0.00000  Uiso   1.00
C1403  C     0.12086   0.84249   0.79809   0.00000  Uiso   1.00
C1404  C     0.39993   0.62740   0.87152   0.00000  Uiso   1.00
C1405  C     0.12086   0.65751   0.86857   0.00000  Uiso   1.00
C1406  C     0.39993   0.87260   0.79514   0.00000  Uiso   1.00
C1407  C     0.37905   0.84231   0.86846   0.00000  Uiso   1.00
C1408  C     0.10022   0.62765   0.79503   0.00000  Uiso   1.00
C1409  C     0.14978   0.87766   0.79502   0.00000  Uiso   1.00
C1410  C     0.37095   0.59231   0.86846   0.00000  Uiso   1.00
C1411  C     0.35007   0.62260   0.79514   0.00000  Uiso   1.00
C1412  C     0.12914   0.90751   0.86858   0.00000  Uiso   1.00
C1413  C     0.35007   0.87740   0.87152   0.00000  Uiso   1.00
C1414  C     0.12914   0.59249   0.79809   0.00000  Uiso   1.00
C1415  C     0.14978   0.62235   0.87165   0.00000  Uiso   1.00
C1416  C     0.37095   0.90769   0.79821   0.00000  Uiso   1.00
C1417  C     0.09479   0.84111   0.83524   0.00000  Uiso   1.00
C1418  C     0.40524   0.65885   0.83524   0.00000  Uiso   1.00
C1419  C     0.40524   0.84116   0.83143   0.00000  Uiso   1.00
C1420  C     0.09479   0.65889   0.83143   0.00000  Uiso   1.00
C1421  C     0.34476   0.59116   0.83143   0.00000  Uiso   1.00
C1422  C     0.15521   0.90889   0.83143   0.00000  Uiso   1.00
C1423  C     0.15520   0.59111   0.83524   0.00000  Uiso   1.00
C1424  C     0.34476   0.90885   0.83524   0.00000  Uiso   1.00
N1425  N     0.01685   0.83358   0.71054   0.00000  Uiso   1.00
O1426  O     0.00315   0.84699   0.74903   0.00000  Uiso   1.00
O1427  O     0.04043   0.86193   0.68839   0.00000  Uiso   1.00
N1428  N     0.01685   0.66642   0.95612   0.00000  Uiso   1.00
O1429  O     0.00315   0.65301   0.91764   0.00000  Uiso   1.00
O1430  O     0.04044   0.63807   0.97827   0.00000  Uiso   1.00
N1431  N     0.48307   0.66647   0.71069   0.00000  Uiso   1.00
O1432  O     0.49691   0.65294   0.74909   0.00000  Uiso   1.00
O1433  O     0.45929   0.63825   0.68866   0.00000  Uiso   1.00
N1434  N     0.48307   0.83353   0.95598   0.00000  Uiso   1.00
O1435  O     0.49691   0.84707   0.91757   0.00000  Uiso   1.00
O1436  O     0.45928   0.86174   0.97800   0.00000  Uiso   1.00
N1437  N     0.23315   0.58358   0.71054   0.00000  Uiso   1.00
O1438  O     0.24685   0.59699   0.74903   0.00000  Uiso   1.00
O1439  O     0.20957   0.61193   0.68839   0.00000  Uiso   1.00
N1440  N     0.23316   0.91641   0.95612   0.00000  Uiso   1.00
O1441  O     0.24685   0.90301   0.91763   0.00000  Uiso   1.00
O1442  O     0.20959   0.88806   0.97828   0.00000  Uiso   1.00
N1443  N     0.26694   0.91647   0.71069   0.00000  Uiso   1.00
O1444  O     0.25308   0.90293   0.74909   0.00000  Uiso   1.00
O1445  O     0.29073   0.88826   0.68867   0.00000  Uiso   1.00
N1446  N     0.26693   0.58354   0.95598   0.00000  Uiso   1.00
O1447  O     0.25308   0.59707   0.91757   0.00000  Uiso   1.00
O1448  O     0.29071   0.61174   0.97800   0.00000  Uiso   1.00
N1449  N     0.38055   0.69352   0.76443   0.00000  Uiso   1.00
O1450  O     0.37420   0.73689   0.77536   0.00000  Uiso   1.00
O1451  O     0.38730   0.68291   0.72274   0.00000  Uiso   1.00
N1452  N     0.07732   0.86860   0.91233   0.00000  Uiso   1.00
O1453  O     0.08598   0.83494   0.94004   0.00000  Uiso   1.00
O1454  O     0.05750   0.90485   0.92719   0.00000  Uiso   1.00
N1455  N     0.11929   0.80682   0.76420   0.00000  Uiso   1.00
O1456  O     0.12578   0.76342   0.77494   0.00000  Uiso   1.00
O1457  O     0.11233   0.81763   0.72258   0.00000  Uiso   1.00
N1458  N     0.42303   0.63085   0.91208   0.00000  Uiso   1.00
O1459  O     0.41443   0.66422   0.94007   0.00000  Uiso   1.00
O1460  O     0.44298   0.59452   0.92655   0.00000  Uiso   1.00
N1461  N     0.11930   0.69319   0.90246   0.00000  Uiso   1.00
O1462  O     0.12578   0.73659   0.89171   0.00000  Uiso   1.00
O1463  O     0.11233   0.68239   0.94408   0.00000  Uiso   1.00
N1464  N     0.42303   0.86916   0.75459   0.00000  Uiso   1.00
O1465  O     0.41443   0.83578   0.72659   0.00000  Uiso   1.00
O1466  O     0.44298   0.90549   0.74011   0.00000  Uiso   1.00
N1467  N     0.38055   0.80648   0.90223   0.00000  Uiso   1.00
O1468  O     0.37420   0.76311   0.89130   0.00000  Uiso   1.00
O1469  O     0.38729   0.81709   0.94393   0.00000  Uiso   1.00
N1470  N     0.07731   0.63138   0.75434   0.00000  Uiso   1.00
O1471  O     0.08597   0.66504   0.72663   0.00000  Uiso   1.00
O1472  O     0.05749   0.59514   0.73949   0.00000  Uiso   1.00
N1473  N     0.17267   0.88141   0.75432   0.00000  Uiso   1.00
O1474  O     0.16401   0.91509   0.72663   0.00000  Uiso   1.00
O1475  O     0.19249   0.84517   0.73945   0.00000  Uiso   1.00
N1476  N     0.36945   0.55648   0.90223   0.00000  Uiso   1.00
O1477  O     0.37580   0.51311   0.89130   0.00000  Uiso   1.00
O1478  O     0.36270   0.56709   0.94393   0.00000  Uiso   1.00
N1479  N     0.32697   0.61916   0.75459   0.00000  Uiso   1.00
O1480  O     0.33557   0.58578   0.72660   0.00000  Uiso   1.00
O1481  O     0.30702   0.65548   0.74012   0.00000  Uiso   1.00
N1482  N     0.13072   0.94316   0.90248   0.00000  Uiso   1.00
O1483  O     0.12421   0.98657   0.89176   0.00000  Uiso   1.00
O1484  O     0.13769   0.93233   0.94410   0.00000  Uiso   1.00
N1485  N     0.32697   0.88085   0.91208   0.00000  Uiso   1.00
O1486  O     0.33557   0.91422   0.94007   0.00000  Uiso   1.00
O1487  O     0.30702   0.84452   0.92655   0.00000  Uiso   1.00
N1488  N     0.13071   0.55682   0.76420   0.00000  Uiso   1.00
O1489  O     0.12422   0.51342   0.77493   0.00000  Uiso   1.00
O1490  O     0.13767   0.56764   0.72258   0.00000  Uiso   1.00
N1491  N     0.17267   0.61859   0.91234   0.00000  Uiso   1.00
O1492  O     0.16401   0.58492   0.94004   0.00000  Uiso   1.00
O1493  O     0.19249   0.65483   0.92722   0.00000  Uiso   1.00
N1494  N     0.36946   0.94353   0.76444   0.00000  Uiso   1.00
O1495  O     0.37580   0.98689   0.77537   0.00000  Uiso   1.00
O1496  O     0.36271   0.93291   0.72274   0.00000  Uiso   1.00
O1497  O     0.54581   0.70419   0.87154   0.00000  Uiso   1.00
O1498  O     0.95420   0.79581   0.79513   0.00000  Uiso   1.00
O1499  O     0.95420   0.79581   0.87154   0.00000  Uiso   1.00
O1500  O     0.54581   0.70419   0.79513   0.00000  Uiso   1.00
O1501  O     0.95420   0.70419   0.79513   0.00000  Uiso   1.00
O1502  O     0.54581   0.79581   0.87154   0.00000  Uiso   1.00
O1503  O     0.54581   0.79581   0.79513   0.00000  Uiso   1.00
O1504  O     0.95420   0.70419   0.87154   0.00000  Uiso   1.00
O1505  O     0.79581   0.95419   0.87154   0.00000  Uiso   1.00
O1506  O     0.70420   0.54581   0.79513   0.00000  Uiso   1.00
O1507  O     0.70420   0.54581   0.87154   0.00000  Uiso   1.00
O1508  O     0.79581   0.95419   0.79513   0.00000  Uiso   1.00
O1509  O     0.70420   0.95419   0.79513   0.00000  Uiso   1.00
O1510  O     0.79581   0.54581   0.87154   0.00000  Uiso   1.00
O1511  O     0.79581   0.54581   0.79513   0.00000  Uiso   1.00
O1512  O     0.70420   0.95419   0.87154   0.00000  Uiso   1.00
C1513  C     0.56031   0.69045   0.83288   0.00000  Uiso   1.00
C1514  C     0.93972   0.80958   0.83287   0.00000  Uiso   1.00
C1515  C     0.93972   0.69042   0.83379   0.00000  Uiso   1.00
C1516  C     0.56031   0.80955   0.83378   0.00000  Uiso   1.00
C1517  C     0.81028   0.94042   0.83379   0.00000  Uiso   1.00
C1518  C     0.68969   0.55955   0.83379   0.00000  Uiso   1.00
C1519  C     0.68969   0.94045   0.83288   0.00000  Uiso   1.00
C1520  C     0.81028   0.55958   0.83287   0.00000  Uiso   1.00
N1521  N     0.50000   0.75000   0.95240   0.00000  Uiso   1.00
N1522  N     0.50000   0.75000   0.71427   0.00000  Uiso   1.00
N1523  N     0.75000   0.50000   0.95240   0.00000  Uiso   1.00
N1524  N     0.75000   0.50000   0.71427   0.00000  Uiso   1.00
Zn1525 Zn    0.50000   0.75000   0.88437   0.00000  Uiso   1.00
Zn1526 Zn    0.50000   0.75000   0.78229   0.00000  Uiso   1.00
Zn1527 Zn    0.75000   0.50000   0.88437   0.00000  Uiso   1.00
Zn1528 Zn    0.75000   0.50000   0.78229   0.00000  Uiso   1.00
C1529  C     0.50338   0.79081   0.69014   0.00000  Uiso   1.00
C1530  C     0.50338   0.70919   0.97653   0.00000  Uiso   1.00
C1531  C     0.99659   0.70920   0.69020   0.00000  Uiso   1.00
C1532  C     0.99659   0.79080   0.97646   0.00000  Uiso   1.00
C1533  C     0.74662   0.54081   0.69014   0.00000  Uiso   1.00
C1534  C     0.74663   0.95919   0.97653   0.00000  Uiso   1.00
C1535  C     0.75341   0.95920   0.69020   0.00000  Uiso   1.00
C1536  C     0.75341   0.54080   0.97646   0.00000  Uiso   1.00
C1537  C     0.87905   0.65769   0.79820   0.00000  Uiso   1.00
C1538  C     0.60022   0.87235   0.87164   0.00000  Uiso   1.00
C1539  C     0.62086   0.84249   0.79809   0.00000  Uiso   1.00
C1540  C     0.89993   0.62740   0.87152   0.00000  Uiso   1.00
C1541  C     0.62086   0.65751   0.86857   0.00000  Uiso   1.00
C1542  C     0.89993   0.87260   0.79514   0.00000  Uiso   1.00
C1543  C     0.87905   0.84231   0.86846   0.00000  Uiso   1.00
C1544  C     0.60022   0.62765   0.79503   0.00000  Uiso   1.00
C1545  C     0.64978   0.87766   0.79502   0.00000  Uiso   1.00
C1546  C     0.87095   0.59231   0.86846   0.00000  Uiso   1.00
C1547  C     0.85007   0.62260   0.79514   0.00000  Uiso   1.00
C1548  C     0.62914   0.90751   0.86858   0.00000  Uiso   1.00
C1549  C     0.85007   0.87740   0.87152   0.00000  Uiso   1.00
C1550  C     0.62914   0.59249   0.79809   0.00000  Uiso   1.00
C1551  C     0.64978   0.62235   0.87165   0.00000  Uiso   1.00
C1552  C     0.87095   0.90769   0.79821   0.00000  Uiso   1.00
C1553  C     0.59479   0.84111   0.83524   0.00000  Uiso   1.00
C1554  C     0.90524   0.65885   0.83524   0.00000  Uiso   1.00
C1555  C     0.90524   0.84116   0.83143   0.00000  Uiso   1.00
C1556  C     0.59479   0.65889   0.83143   0.00000  Uiso   1.00
C1557  C     0.84476   0.59116   0.83143   0.00000  Uiso   1.00
C1558  C     0.65521   0.90889   0.83143   0.00000  Uiso   1.00
C1559  C     0.65520   0.59111   0.83524   0.00000  Uiso   1.00
C1560  C     0.84476   0.90885   0.83524   0.00000  Uiso   1.00
N1561  N     0.51685   0.83358   0.71054   0.00000  Uiso   1.00
O1562  O     0.50315   0.84699   0.74903   0.00000  Uiso   1.00
O1563  O     0.54043   0.86193   0.68839   0.00000  Uiso   1.00
N1564  N     0.51685   0.66642   0.95612   0.00000  Uiso   1.00
O1565  O     0.50315   0.65301   0.91764   0.00000  Uiso   1.00
O1566  O     0.54044   0.63807   0.97827   0.00000  Uiso   1.00
N1567  N     0.98307   0.66647   0.71069   0.00000  Uiso   1.00
O1568  O     0.99691   0.65294   0.74909   0.00000  Uiso   1.00
O1569  O     0.95929   0.63825   0.68866   0.00000  Uiso   1.00
N1570  N     0.98307   0.83353   0.95598   0.00000  Uiso   1.00
O1571  O     0.99691   0.84707   0.91757   0.00000  Uiso   1.00
O1572  O     0.95928   0.86174   0.97800   0.00000  Uiso   1.00
N1573  N     0.73315   0.58358   0.71054   0.00000  Uiso   1.00
O1574  O     0.74685   0.59699   0.74903   0.00000  Uiso   1.00
O1575  O     0.70957   0.61193   0.68839   0.00000  Uiso   1.00
N1576  N     0.73316   0.91641   0.95612   0.00000  Uiso   1.00
O1577  O     0.74685   0.90301   0.91763   0.00000  Uiso   1.00
O1578  O     0.70959   0.88806   0.97828   0.00000  Uiso   1.00
N1579  N     0.76694   0.91647   0.71069   0.00000  Uiso   1.00
O1580  O     0.75308   0.90293   0.74909   0.00000  Uiso   1.00
O1581  O     0.79073   0.88826   0.68867   0.00000  Uiso   1.00
N1582  N     0.76693   0.58354   0.95598   0.00000  Uiso   1.00
O1583  O     0.75308   0.59707   0.91757   0.00000  Uiso   1.00
O1584  O     0.79071   0.61174   0.97800   0.00000  Uiso   1.00
N1585  N     0.88055   0.69352   0.76443   0.00000  Uiso   1.00
O1586  O     0.87420   0.73689   0.77536   0.00000  Uiso   1.00
O1587  O     0.88730   0.68291   0.72274   0.00000  Uiso   1.00
N1588  N     0.57732   0.86860   0.91233   0.00000  Uiso   1.00
O1589  O     0.58598   0.83494   0.94004   0.00000  Uiso   1.00
O1590  O     0.55750   0.90485   0.92719   0.00000  Uiso   1.00
N1591  N     0.61929   0.80682   0.76420   0.00000  Uiso   1.00
O1592  O     0.62578   0.76342   0.77494   0.00000  Uiso   1.00
O1593  O     0.61233   0.81763   0.72258   0.00000  Uiso   1.00
N1594  N     0.92303   0.63085   0.91208   0.00000  Uiso   1.00
O1595  O     0.91443   0.66422   0.94007   0.00000  Uiso   1.00
O1596  O     0.94298   0.59452   0.92655   0.00000  Uiso   1.00
N1597  N     0.61930   0.69319   0.90246   0.00000  Uiso   1.00
O1598  O     0.62578   0.73659   0.89171   0.00000  Uiso   1.00
O1599  O     0.61233   0.68239   0.94408   0.00000  Uiso   1.00
N1600  N     0.92303   0.86916   0.75459   0.00000  Uiso   1.00
O1601  O     0.91443   0.83578   0.72659   0.00000  Uiso   1.00
O1602  O     0.94298   0.90549   0.74011   0.00000  Uiso   1.00
N1603  N     0.88055   0.80648   0.90223   0.00000  Uiso   1.00
O1604  O     0.87420   0.76311   0.89130   0.00000  Uiso   1.00
O1605  O     0.88729   0.81709   0.94393   0.00000  Uiso   1.00
N1606  N     0.57731   0.63138   0.75434   0.00000  Uiso   1.00
O1607  O     0.58597   0.66504   0.72663   0.00000  Uiso   1.00
O1608  O     0.55749   0.59514   0.73949   0.00000  Uiso   1.00
N1609  N     0.67267   0.88141   0.75432   0.00000  Uiso   1.00
O1610  O     0.66401   0.91509   0.72663   0.00000  Uiso   1.00
O1611  O     0.69249   0.84517   0.73945   0.00000  Uiso   1.00
N1612  N     0.86945   0.55648   0.90223   0.00000  Uiso   1.00
O1613  O     0.87580   0.51311   0.89130   0.00000  Uiso   1.00
O1614  O     0.86270   0.56709   0.94393   0.00000  Uiso   1.00
N1615  N     0.82697   0.61916   0.75459   0.00000  Uiso   1.00
O1616  O     0.83557   0.58578   0.72660   0.00000  Uiso   1.00
O1617  O     0.80702   0.65548   0.74012   0.00000  Uiso   1.00
N1618  N     0.63072   0.94316   0.90248   0.00000  Uiso   1.00
O1619  O     0.62421   0.98657   0.89176   0.00000  Uiso   1.00
O1620  O     0.63769   0.93233   0.94410   0.00000  Uiso   1.00
N1621  N     0.82697   0.88085   0.91208   0.00000  Uiso   1.00
O1622  O     0.83557   0.91422   0.94007   0.00000  Uiso   1.00
O1623  O     0.80702   0.84452   0.92655   0.00000  Uiso   1.00
N1624  N     0.63071   0.55682   0.76420   0.00000  Uiso   1.00
O1625  O     0.62422   0.51342   0.77493   0.00000  Uiso   1.00
O1626  O     0.63767   0.56764   0.72258   0.00000  Uiso   1.00
N1627  N     0.67267   0.61859   0.91234   0.00000  Uiso   1.00
O1628  O     0.66401   0.58492   0.94004   0.00000  Uiso   1.00
O1629  O     0.69249   0.65483   0.92722   0.00000  Uiso   1.00
N1630  N     0.86946   0.94353   0.76444   0.00000  Uiso   1.00
O1631  O     0.87580   0.98689   0.77537   0.00000  Uiso   1.00
O1632  O     0.86271   0.93291   0.72274   0.00000  Uiso   1.00
loop_
_geom_bond_atom_site_label_1
_geom_bond_atom_site_label_2
_geom_bond_distance
_geom_bond_site_symmetry_2
_ccdc_geom_bond_type
O1     C17     1.309   .     A
O1     Zn29    2.030   .     S
O2     C18     1.285   .     A
O2     Zn166   2.030   .     S
O3     C18     1.309   .     A
O3     Zn165   2.030   .     S
O4     C17     1.285   .     A
O4     Zn30    2.030   .     S
O5     Zn166   2.030   .     S
O5     C19     1.309   .     A
O6     C20     1.285   .     A
O6     Zn29    2.030   .     S
O7     C20     1.309   .     A
O7     Zn30    2.030   .     S
O8     Zn165   2.030   .     S
O8     C19     1.285   .     A
O9     C21     1.285   .     A
O9     Zn303   2.030   .     S
O10    C22     1.309   .     A
O10    Zn32    2.030   .     S
O11    Zn31    2.030   .     S
O11    C22     1.285   .     A
O12    C21     1.309   .     A
O12    Zn304   2.030   .     S
O13    C23     1.285   .     A
O13    Zn304   2.030   .     S
O14    Zn31    2.030   .     S
O14    C24     1.309   .     A
O15    Zn32    2.030   .     S
O15    C24     1.285   .     A
O16    C23     1.309   .     A
O16    Zn303   2.030   .     S
C17    C60     1.448   .     S
C18    C59     1.448   .     S
C19    C58     1.448   .     S
C20    C57     1.448   .     S
C21    C64     1.448   .     S
C22    C63     1.448   .     S
C23    C62     1.448   .     S
C24    C61     1.448   .     S
N25    Zn29    2.032   .     S
N25    C172    1.377   1_455 A
N25    C34     1.378   .     S
N26    C171    1.377   1_455 A
N26    Zn30    2.032   .     S
N26    C33     1.378   .     S
N27    C310    1.378   1_545 A
N27    Zn31    2.032   .     S
N27    C40     1.377   .     S
N28    C311    1.377   1_545 A
N28    Zn32    2.032   .     S
N28    C37     1.378   .     S
Zn29   O144    2.030   1_455 S
Zn29   O139    2.030   1_455 S
Zn30   O141    2.030   1_455 S
Zn30   O138    2.030   1_455 S
Zn31   O288    2.030   1_545 S
Zn31   O281    2.030   1_545 S
Zn32   O285    2.030   1_545 S
Zn32   O284    2.030   1_545 S
C33    N65     1.438   .     S
C33    C1260   1.421   1_454 S
C34    N68     1.438   .     S
C34    C715    1.421   1_455 S
C35    N162    1.377   .     A
C35    N71     1.438   .     S
C35    C1258   1.421   1_554 S
C36    N161    1.377   .     A
C36    N74     1.438   .     S
C36    C713    1.421   .     S
C37    N77     1.438   .     S
C37    C1128   1.421   1_554 S
C38    N299    1.378   .     A
C38    N80     1.438   .     S
C38    C583    1.421   .     S
C39    N300    1.377   .     A
C39    N83     1.438   .     S
C39    C1126   1.421   1_554 S
C40    N86     1.438   .     S
C40    C581    1.421   .     S
C41    C58     1.400   .     A
C41    N89     1.440   .     S
C41    C51     1.386   .     A
C42    N92     1.432   .     S
C42    C57     1.420   .     A
C42    C52     1.386   .     A
C43    N95     1.440   .     S
C43    C57     1.400   .     A
C43    C49     1.386   .     A
C44    N98     1.432   .     S
C44    C58     1.419   .     A
C44    C50     1.386   .     A
C45    C60     1.400   .     A
C45    N101    1.440   .     S
C45    C55     1.386   .     A
C46    C59     1.419   .     A
C46    N104    1.432   .     S
C46    C56     1.386   .     A
C47    C53     1.386   .     A
C47    N107    1.440   .     S
C47    C59     1.400   .     A
C48    N110    1.432   .     S
C48    C54     1.386   .     A
C48    C60     1.420   .     A
C49    N113    1.432   .     S
C49    C62     1.420   .     A
C50    N116    1.440   .     S
C50    C61     1.400   .     A
C51    C61     1.419   .     A
C51    N119    1.432   .     S
C52    N122    1.440   .     S
C52    C62     1.400   .     A
C53    C64     1.419   .     A
C53    N125    1.432   .     S
C54    C63     1.400   .     A
C54    N128    1.440   .     S
C55    C63     1.420   .     A
C55    N131    1.432   .     S
C56    C64     1.400   .     A
C56    N134    1.440   .     S
N65    O67     1.301   .     A
N65    O66     1.293   .     A
N68    O69     1.293   .     A
N68    O70     1.301   .     A
N71    O73     1.301   .     A
N71    O72     1.293   .     A
N74    O76     1.301   .     A
N74    O75     1.293   .     A
N77    O78     1.293   .     A
N77    O79     1.301   .     A
N80    O82     1.301   .     A
N80    O81     1.293   .     A
N83    O84     1.293   .     A
N83    O85     1.301   .     A
N86    O88     1.301   .     A
N86    O87     1.293   .     A
N89    O91     1.301   .     A
N89    O90     1.301   .     A
N92    O94     1.303   .     A
N92    O93     1.302   .     A
N95    O96     1.301   .     A
N95    O97     1.301   .     A
N98    O100    1.303   .     A
N98    O99     1.301   .     A
N101   O102    1.301   .     A
N101   O103    1.301   .     A
N104   O106    1.303   .     A
N104   O105    1.301   .     A
N107   O108    1.301   .     A
N107   O109    1.301   .     A
N110   O111    1.302   .     A
N110   O112    1.303   .     A
N113   O114    1.302   .     A
N113   O115    1.303   .     A
N116   O117    1.301   .     A
N116   O118    1.301   .     A
N119   O121    1.303   .     A
N119   O120    1.301   .     A
N122   O124    1.301   .     A
N122   O123    1.302   .     A
N125   O126    1.301   .     A
N125   O127    1.303   .     A
N128   O129    1.302   .     A
N128   O130    1.301   .     A
N131   O132    1.302   .     A
N131   O133    1.303   .     A
N134   O136    1.301   .     A
N134   O135    1.301   .     A
O137   C153    1.309   .     A
O137   Zn165   2.030   .     S
O138   C154    1.285   .     A
O138   Zn30    2.030   1_655 S
O139   C154    1.309   .     A
O139   Zn29    2.030   1_655 S
O140   C153    1.285   .     A
O140   Zn166   2.030   .     S
O141   Zn30    2.030   1_655 S
O141   C155    1.309   .     A
O142   C156    1.285   .     A
O142   Zn165   2.030   .     S
O143   C156    1.309   .     A
O143   Zn166   2.030   .     S
O144   Zn29    2.030   1_655 S
O144   C155    1.285   .     A
O145   C157    1.285   .     A
O145   Zn439   2.030   .     S
O146   C158    1.309   .     A
O146   Zn168   2.030   .     S
O147   Zn167   2.030   .     S
O147   C158    1.285   .     A
O148   C157    1.309   .     A
O148   Zn440   2.030   .     S
O149   C159    1.285   .     A
O149   Zn440   2.030   .     S
O150   Zn167   2.030   .     S
O150   C160    1.309   .     A
O151   Zn168   2.030   .     S
O151   C160    1.285   .     A
O152   C159    1.309   .     A
O152   Zn439   2.030   .     S
C153   C196    1.448   .     S
C154   C195    1.448   .     S
C155   C194    1.448   .     S
C156   C193    1.448   .     S
C157   C200    1.448   .     S
C158   C199    1.448   .     S
C159   C198    1.448   .     S
C160   C197    1.448   .     S
N161   Zn165   2.032   .     S
N161   C170    1.378   .     S
N162   Zn166   2.032   .     S
N162   C169    1.378   .     S
N163   C446    1.378   1_545 A
N163   Zn167   2.032   .     S
N163   C176    1.377   .     S
N164   C447    1.377   1_545 A
N164   Zn168   2.032   .     S
N164   C173    1.378   .     S
Zn167  O424    2.030   1_545 S
Zn167  O417    2.030   1_545 S
Zn168  O421    2.030   1_545 S
Zn168  O420    2.030   1_545 S
C169   N201    1.438   .     S
C169   C1124   1.421   1_554 S
C170   N204    1.438   .     S
C170   C579    1.421   .     S
C171   N26     1.377   1_655 A
C171   N207    1.438   .     S
C171   C1122   1.421   1_654 S
C172   N25     1.377   1_655 A
C172   N210    1.438   .     S
C172   C577    1.421   1_655 S
C173   N213    1.438   .     S
C173   C1264   1.421   1_554 S
C174   N435    1.378   .     A
C174   N216    1.438   .     S
C174   C719    1.421   .     S
C175   N436    1.377   .     A
C175   N219    1.438   .     S
C175   C1262   1.421   1_554 S
C176   N222    1.438   .     S
C176   C717    1.421   .     S
C177   C194    1.400   .     A
C177   N225    1.440   .     S
C177   C187    1.386   .     A
C178   N228    1.432   .     S
C178   C193    1.420   .     A
C178   C188    1.386   .     A
C179   N231    1.440   .     S
C179   C193    1.400   .     A
C179   C185    1.386   .     A
C180   N234    1.432   .     S
C180   C194    1.419   .     A
C180   C186    1.386   .     A
C181   C196    1.400   .     A
C181   N237    1.440   .     S
C181   C191    1.386   .     A
C182   C195    1.419   .     A
C182   N240    1.432   .     S
C182   C192    1.386   .     A
C183   C189    1.386   .     A
C183   N243    1.440   .     S
C183   C195    1.400   .     A
C184   N246    1.432   .     S
C184   C190    1.386   .     A
C184   C196    1.420   .     A
C185   N249    1.432   .     S
C185   C198    1.420   .     A
C186   N252    1.440   .     S
C186   C197    1.400   .     A
C187   C197    1.419   .     A
C187   N255    1.432   .     S
C188   N258    1.440   .     S
C188   C198    1.400   .     A
C189   C200    1.419   .     A
C189   N261    1.432   .     S
C190   C199    1.400   .     A
C190   N264    1.440   .     S
C191   C199    1.420   .     A
C191   N267    1.432   .     S
C192   C200    1.400   .     A
C192   N270    1.440   .     S
N201   O203    1.301   .     A
N201   O202    1.293   .     A
N204   O205    1.293   .     A
N204   O206    1.301   .     A
N207   O209    1.301   .     A
N207   O208    1.293   .     A
N210   O212    1.301   .     A
N210   O211    1.293   .     A
N213   O214    1.293   .     A
N213   O215    1.301   .     A
N216   O218    1.301   .     A
N216   O217    1.293   .     A
N219   O220    1.293   .     A
N219   O221    1.301   .     A
N222   O224    1.301   .     A
N222   O223    1.293   .     A
N225   O227    1.301   .     A
N225   O226    1.301   .     A
N228   O230    1.303   .     A
N228   O229    1.302   .     A
N231   O232    1.301   .     A
N231   O233    1.301   .     A
N234   O236    1.303   .     A
N234   O235    1.301   .     A
N237   O238    1.301   .     A
N237   O239    1.301   .     A
N240   O242    1.303   .     A
N240   O241    1.301   .     A
N243   O244    1.301   .     A
N243   O245    1.301   .     A
N246   O247    1.302   .     A
N246   O248    1.303   .     A
N249   O250    1.302   .     A
N249   O251    1.303   .     A
N252   O253    1.301   .     A
N252   O254    1.301   .     A
N255   O257    1.303   .     A
N255   O256    1.301   .     A
N258   O260    1.301   .     A
N258   O259    1.302   .     A
N261   O262    1.301   .     A
N261   O263    1.303   .     A
N264   O265    1.302   .     A
N264   O266    1.301   .     A
N267   O268    1.302   .     A
N267   O269    1.303   .     A
N270   O272    1.301   .     A
N270   O271    1.301   .     A
O273   C289    1.309   .     A
O273   Zn301   2.030   .     S
O274   C290    1.285   .     A
O274   Zn438   2.030   .     S
O275   C290    1.309   .     A
O275   Zn437   2.030   .     S
O276   C289    1.285   .     A
O276   Zn302   2.030   .     S
O277   Zn438   2.030   .     S
O277   C291    1.309   .     A
O278   C292    1.285   .     A
O278   Zn301   2.030   .     S
O279   C292    1.309   .     A
O279   Zn302   2.030   .     S
O280   Zn437   2.030   .     S
O280   C291    1.285   .     A
O281   C293    1.285   .     A
O281   Zn31    2.030   1_565 S
O282   C294    1.309   .     A
O282   Zn304   2.030   .     S
O283   Zn303   2.030   .     S
O283   C294    1.285   .     A
O284   C293    1.309   .     A
O284   Zn32    2.030   1_565 S
O285   C295    1.285   .     A
O285   Zn32    2.030   1_565 S
O286   Zn303   2.030   .     S
O286   C296    1.309   .     A
O287   Zn304   2.030   .     S
O287   C296    1.285   .     A
O288   C295    1.309   .     A
O288   Zn31    2.030   1_565 S
C289   C332    1.448   .     S
C290   C331    1.448   .     S
C291   C330    1.448   .     S
C292   C329    1.448   .     S
C293   C336    1.448   .     S
C294   C335    1.448   .     S
C295   C334    1.448   .     S
C296   C333    1.448   .     S
N297   Zn301   2.032   .     S
N297   C444    1.377   1_455 A
N297   C306    1.378   .     S
N298   C443    1.377   1_455 A
N298   Zn302   2.032   .     S
N298   C305    1.378   .     S
N299   Zn303   2.032   .     S
N299   C312    1.377   .     S
N300   Zn304   2.032   .     S
N300   C309    1.378   .     S
Zn301  O416    2.030   1_455 S
Zn301  O411    2.030   1_455 S
Zn302  O413    2.030   1_455 S
Zn302  O410    2.030   1_455 S
C305   N337    1.438   .     S
C305   C1532   1.421   1_454 S
C306   N340    1.438   .     S
C306   C987    1.421   1_455 S
C307   N434    1.377   .     A
C307   N343    1.438   .     S
C307   C1530   1.421   1_554 S
C308   N433    1.377   .     A
C308   N346    1.438   .     S
C308   C985    1.421   .     S
C309   N349    1.438   .     S
C309   C1400   1.421   1_554 S
C310   N27     1.378   1_565 A
C310   N352    1.438   .     S
C310   C855    1.421   .     S
C311   N28     1.377   1_565 A
C311   N355    1.438   .     S
C311   C1398   1.421   1_554 S
C312   N358    1.438   .     S
C312   C853    1.421   .     S
C313   C330    1.400   .     A
C313   N361    1.440   .     S
C313   C323    1.386   .     A
C314   N364    1.432   .     S
C314   C329    1.420   .     A
C314   C324    1.386   .     A
C315   N367    1.440   .     S
C315   C329    1.400   .     A
C315   C321    1.386   .     A
C316   N370    1.432   .     S
C316   C330    1.419   .     A
C316   C322    1.386   .     A
C317   C332    1.400   .     A
C317   N373    1.440   .     S
C317   C327    1.386   .     A
C318   C331    1.419   .     A
C318   N376    1.432   .     S
C318   C328    1.386   .     A
C319   C325    1.386   .     A
C319   N379    1.440   .     S
C319   C331    1.400   .     A
C320   N382    1.432   .     S
C320   C326    1.386   .     A
C320   C332    1.420   .     A
C321   N385    1.432   .     S
C321   C334    1.420   .     A
C322   N388    1.440   .     S
C322   C333    1.400   .     A
C323   C333    1.419   .     A
C323   N391    1.432   .     S
C324   N394    1.440   .     S
C324   C334    1.400   .     A
C325   C336    1.419   .     A
C325   N397    1.432   .     S
C326   C335    1.400   .     A
C326   N400    1.440   .     S
C327   C335    1.420   .     A
C327   N403    1.432   .     S
C328   C336    1.400   .     A
C328   N406    1.440   .     S
N337   O339    1.301   .     A
N337   O338    1.293   .     A
N340   O341    1.293   .     A
N340   O342    1.301   .     A
N343   O345    1.301   .     A
N343   O344    1.293   .     A
N346   O348    1.301   .     A
N346   O347    1.293   .     A
N349   O350    1.293   .     A
N349   O351    1.301   .     A
N352   O354    1.301   .     A
N352   O353    1.293   .     A
N355   O356    1.293   .     A
N355   O357    1.301   .     A
N358   O360    1.301   .     A
N358   O359    1.293   .     A
N361   O363    1.301   .     A
N361   O362    1.301   .     A
N364   O366    1.303   .     A
N364   O365    1.302   .     A
N367   O368    1.301   .     A
N367   O369    1.301   .     A
N370   O372    1.303   .     A
N370   O371    1.301   .     A
N373   O374    1.301   .     A
N373   O375    1.301   .     A
N376   O378    1.303   .     A
N376   O377    1.301   .     A
N379   O380    1.301   .     A
N379   O381    1.301   .     A
N382   O383    1.302   .     A
N382   O384    1.303   .     A
N385   O386    1.302   .     A
N385   O387    1.303   .     A
N388   O389    1.301   .     A
N388   O390    1.301   .     A
N391   O393    1.303   .     A
N391   O392    1.301   .     A
N394   O396    1.301   .     A
N394   O395    1.302   .     A
N397   O398    1.301   .     A
N397   O399    1.303   .     A
N400   O401    1.302   .     A
N400   O402    1.301   .     A
N403   O404    1.302   .     A
N403   O405    1.303   .     A
N406   O408    1.301   .     A
N406   O407    1.301   .     A
O409   C425    1.309   .     A
O409   Zn437   2.030   .     S
O410   C426    1.285   .     A
O410   Zn302   2.030   1_655 S
O411   C426    1.309   .     A
O411   Zn301   2.030   1_655 S
O412   C425    1.285   .     A
O412   Zn438   2.030   .     S
O413   Zn302   2.030   1_655 S
O413   C427    1.309   .     A
O414   C428    1.285   .     A
O414   Zn437   2.030   .     S
O415   C428    1.309   .     A
O415   Zn438   2.030   .     S
O416   Zn301   2.030   1_655 S
O416   C427    1.285   .     A
O417   C429    1.285   .     A
O417   Zn167   2.030   1_565 S
O418   C430    1.309   .     A
O418   Zn440   2.030   .     S
O419   Zn439   2.030   .     S
O419   C430    1.285   .     A
O420   C429    1.309   .     A
O420   Zn168   2.030   1_565 S
O421   C431    1.285   .     A
O421   Zn168   2.030   1_565 S
O422   Zn439   2.030   .     S
O422   C432    1.309   .     A
O423   Zn440   2.030   .     S
O423   C432    1.285   .     A
O424   C431    1.309   .     A
O424   Zn167   2.030   1_565 S
C425   C468    1.448   .     S
C426   C467    1.448   .     S
C427   C466    1.448   .     S
C428   C465    1.448   .     S
C429   C472    1.448   .     S
C430   C471    1.448   .     S
C431   C470    1.448   .     S
C432   C469    1.448   .     S
N433   Zn437   2.032   .     S
N433   C442    1.378   .     S
N434   Zn438   2.032   .     S
N434   C441    1.378   .     S
N435   Zn439   2.032   .     S
N435   C448    1.377   .     S
N436   Zn440   2.032   .     S
N436   C445    1.378   .     S
C441   N473    1.438   .     S
C441   C1396   1.421   1_554 S
C442   N476    1.438   .     S
C442   C851    1.421   .     S
C443   N298    1.377   1_655 A
C443   N479    1.438   .     S
C443   C1394   1.421   1_654 S
C444   N297    1.377   1_655 A
C444   N482    1.438   .     S
C444   C849    1.421   1_655 S
C445   N485    1.438   .     S
C445   C1536   1.421   1_554 S
C446   N163    1.378   1_565 A
C446   N488    1.438   .     S
C446   C991    1.421   .     S
C447   N164    1.377   1_565 A
C447   N491    1.438   .     S
C447   C1534   1.421   1_554 S
C448   N494    1.438   .     S
C448   C989    1.421   .     S
C449   C466    1.400   .     A
C449   N497    1.440   .     S
C449   C459    1.386   .     A
C450   N500    1.432   .     S
C450   C465    1.420   .     A
C450   C460    1.386   .     A
C451   N503    1.440   .     S
C451   C465    1.400   .     A
C451   C457    1.386   .     A
C452   N506    1.432   .     S
C452   C466    1.419   .     A
C452   C458    1.386   .     A
C453   C468    1.400   .     A
C453   N509    1.440   .     S
C453   C463    1.386   .     A
C454   C467    1.419   .     A
C454   N512    1.432   .     S
C454   C464    1.386   .     A
C455   C461    1.386   .     A
C455   N515    1.440   .     S
C455   C467    1.400   .     A
C456   N518    1.432   .     S
C456   C462    1.386   .     A
C456   C468    1.420   .     A
C457   N521    1.432   .     S
C457   C470    1.420   .     A
C458   N524    1.440   .     S
C458   C469    1.400   .     A
C459   C469    1.419   .     A
C459   N527    1.432   .     S
C460   N530    1.440   .     S
C460   C470    1.400   .     A
C461   C472    1.419   .     A
C461   N533    1.432   .     S
C462   C471    1.400   .     A
C462   N536    1.440   .     S
C463   C471    1.420   .     A
C463   N539    1.432   .     S
C464   C472    1.400   .     A
C464   N542    1.440   .     S
N473   O475    1.301   .     A
N473   O474    1.293   .     A
N476   O477    1.293   .     A
N476   O478    1.301   .     A
N479   O481    1.301   .     A
N479   O480    1.293   .     A
N482   O484    1.301   .     A
N482   O483    1.293   .     A
N485   O486    1.293   .     A
N485   O487    1.301   .     A
N488   O490    1.301   .     A
N488   O489    1.293   .     A
N491   O492    1.293   .     A
N491   O493    1.301   .     A
N494   O496    1.301   .     A
N494   O495    1.293   .     A
N497   O499    1.301   .     A
N497   O498    1.301   .     A
N500   O502    1.303   .     A
N500   O501    1.302   .     A
N503   O504    1.301   .     A
N503   O505    1.301   .     A
N506   O508    1.303   .     A
N506   O507    1.301   .     A
N509   O510    1.301   .     A
N509   O511    1.301   .     A
N512   O514    1.303   .     A
N512   O513    1.301   .     A
N515   O516    1.301   .     A
N515   O517    1.301   .     A
N518   O519    1.302   .     A
N518   O520    1.303   .     A
N521   O522    1.302   .     A
N521   O523    1.303   .     A
N524   O525    1.301   .     A
N524   O526    1.301   .     A
N527   O529    1.303   .     A
N527   O528    1.301   .     A
N530   O532    1.301   .     A
N530   O531    1.302   .     A
N533   O534    1.301   .     A
N533   O535    1.303   .     A
N536   O537    1.302   .     A
N536   O538    1.301   .     A
N539   O540    1.302   .     A
N539   O541    1.303   .     A
N542   O544    1.301   .     A
N542   O543    1.301   .     A
O545   C561    1.309   .     A
O545   Zn573   2.030   .     S
O546   C562    1.285   .     A
O546   Zn710   2.030   .     S
O547   C562    1.309   .     A
O547   Zn709   2.030   .     S
O548   C561    1.285   .     A
O548   Zn574   2.030   .     S
O549   Zn710   2.030   .     S
O549   C563    1.309   .     A
O550   C564    1.285   .     A
O550   Zn573   2.030   .     S
O551   C564    1.309   .     A
O551   Zn574   2.030   .     S
O552   Zn709   2.030   .     S
O552   C563    1.285   .     A
O553   C565    1.285   .     A
O553   Zn847   2.030   .     S
O554   C566    1.309   .     A
O554   Zn576   2.030   .     S
O555   Zn575   2.030   .     S
O555   C566    1.285   .     A
O556   C565    1.309   .     A
O556   Zn848   2.030   .     S
O557   C567    1.285   .     A
O557   Zn848   2.030   .     S
O558   Zn575   2.030   .     S
O558   C568    1.309   .     A
O559   Zn576   2.030   .     S
O559   C568    1.285   .     A
O560   C567    1.309   .     A
O560   Zn847   2.030   .     S
C561   C604    1.448   .     S
C562   C603    1.448   .     S
C563   C602    1.448   .     S
C564   C601    1.448   .     S
C565   C608    1.448   .     S
C566   C607    1.448   .     S
C567   C606    1.448   .     S
C568   C605    1.448   .     S
N569   Zn573   2.032   .     S
N569   C716    1.377   1_455 A
N569   C578    1.378   .     S
N570   C715    1.377   1_455 A
N570   Zn574   2.032   .     S
N570   C577    1.378   .     S
N571   C854    1.378   1_545 A
N571   Zn575   2.032   .     S
N571   C584    1.377   .     S
N572   C855    1.377   1_545 A
N572   Zn576   2.032   .     S
N572   C581    1.378   .     S
Zn573  O688    2.030   1_455 S
Zn573  O683    2.030   1_455 S
Zn574  O685    2.030   1_455 S
Zn574  O682    2.030   1_455 S
Zn575  O832    2.030   1_545 S
Zn575  O825    2.030   1_545 S
Zn576  O829    2.030   1_545 S
Zn576  O828    2.030   1_545 S
C577   N609    1.438   .     S
C577   C172    1.421   1_455 S
C578   N612    1.438   .     S
C578   C1259   1.421   1_455 S
C579   N706    1.377   .     A
C579   N615    1.438   .     S
C580   N705    1.377   .     A
C580   N618    1.438   .     S
C580   C1257   1.421   .     S
C581   N621    1.438   .     S
C582   N843    1.378   .     A
C582   N624    1.438   .     S
C582   C1127   1.421   .     S
C583   N844    1.377   .     A
C583   N627    1.438   .     S
C584   N630    1.438   .     S
C584   C1125   1.421   .     S
C585   C602    1.400   .     A
C585   N633    1.440   .     S
C585   C595    1.386   .     A
C586   N636    1.432   .     S
C586   C601    1.420   .     A
C586   C596    1.386   .     A
C587   N639    1.440   .     S
C587   C601    1.400   .     A
C587   C593    1.386   .     A
C588   N642    1.432   .     S
C588   C602    1.419   .     A
C588   C594    1.386   .     A
C589   C604    1.400   .     A
C589   N645    1.440   .     S
C589   C599    1.386   .     A
C590   C603    1.419   .     A
C590   N648    1.432   .     S
C590   C600    1.386   .     A
C591   C597    1.386   .     A
C591   N651    1.440   .     S
C591   C603    1.400   .     A
C592   N654    1.432   .     S
C592   C598    1.386   .     A
C592   C604    1.420   .     A
C593   N657    1.432   .     S
C593   C606    1.420   .     A
C594   N660    1.440   .     S
C594   C605    1.400   .     A
C595   C605    1.419   .     A
C595   N663    1.432   .     S
C596   N666    1.440   .     S
C596   C606    1.400   .     A
C597   C608    1.419   .     A
C597   N669    1.432   .     S
C598   C607    1.400   .     A
C598   N672    1.440   .     S
C599   C607    1.420   .     A
C599   N675    1.432   .     S
C600   C608    1.400   .     A
C600   N678    1.440   .     S
N609   O611    1.301   .     A
N609   O610    1.293   .     A
N612   O613    1.293   .     A
N612   O614    1.301   .     A
N615   O617    1.301   .     A
N615   O616    1.293   .     A
N618   O620    1.301   .     A
N618   O619    1.293   .     A
N621   O622    1.293   .     A
N621   O623    1.301   .     A
N624   O626    1.301   .     A
N624   O625    1.293   .     A
N627   O628    1.293   .     A
N627   O629    1.301   .     A
N630   O632    1.301   .     A
N630   O631    1.293   .     A
N633   O635    1.301   .     A
N633   O634    1.301   .     A
N636   O638    1.303   .     A
N636   O637    1.302   .     A
N639   O640    1.301   .     A
N639   O641    1.301   .     A
N642   O644    1.303   .     A
N642   O643    1.301   .     A
N645   O646    1.301   .     A
N645   O647    1.301   .     A
N648   O650    1.303   .     A
N648   O649    1.301   .     A
N651   O652    1.301   .     A
N651   O653    1.301   .     A
N654   O655    1.302   .     A
N654   O656    1.303   .     A
N657   O658    1.302   .     A
N657   O659    1.303   .     A
N660   O661    1.301   .     A
N660   O662    1.301   .     A
N663   O665    1.303   .     A
N663   O664    1.301   .     A
N666   O668    1.301   .     A
N666   O667    1.302   .     A
N669   O670    1.301   .     A
N669   O671    1.303   .     A
N672   O673    1.302   .     A
N672   O674    1.301   .     A
N675   O676    1.302   .     A
N675   O677    1.303   .     A
N678   O680    1.301   .     A
N678   O679    1.301   .     A
O681   C697    1.309   .     A
O681   Zn709   2.030   .     S
O682   C698    1.285   .     A
O682   Zn574   2.030   1_655 S
O683   C698    1.309   .     A
O683   Zn573   2.030   1_655 S
O684   C697    1.285   .     A
O684   Zn710   2.030   .     S
O685   Zn574   2.030   1_655 S
O685   C699    1.309   .     A
O686   C700    1.285   .     A
O686   Zn709   2.030   .     S
O687   C700    1.309   .     A
O687   Zn710   2.030   .     S
O688   Zn573   2.030   1_655 S
O688   C699    1.285   .     A
O689   C701    1.285   .     A
O689   Zn983   2.030   .     S
O690   C702    1.309   .     A
O690   Zn712   2.030   .     S
O691   Zn711   2.030   .     S
O691   C702    1.285   .     A
O692   C701    1.309   .     A
O692   Zn984   2.030   .     S
O693   C703    1.285   .     A
O693   Zn984   2.030   .     S
O694   Zn711   2.030   .     S
O694   C704    1.309   .     A
O695   Zn712   2.030   .     S
O695   C704    1.285   .     A
O696   C703    1.309   .     A
O696   Zn983   2.030   .     S
C697   C740    1.448   .     S
C698   C739    1.448   .     S
C699   C738    1.448   .     S
C700   C737    1.448   .     S
C701   C744    1.448   .     S
C702   C743    1.448   .     S
C703   C742    1.448   .     S
C704   C741    1.448   .     S
N705   Zn709   2.032   .     S
N705   C714    1.378   .     S
N706   Zn710   2.032   .     S
N706   C713    1.378   .     S
N707   C990    1.378   1_545 A
N707   Zn711   2.032   .     S
N707   C720    1.377   .     S
N708   C991    1.377   1_545 A
N708   Zn712   2.032   .     S
N708   C717    1.378   .     S
Zn711  O968    2.030   1_545 S
Zn711  O961    2.030   1_545 S
Zn712  O965    2.030   1_545 S
Zn712  O964    2.030   1_545 S
C713   N745    1.438   .     S
C714   N748    1.438   .     S
C714   C1123   1.421   .     S
C715   N570    1.377   1_655 A
C715   N751    1.438   .     S
C715   C34     1.421   1_655 S
C716   N569    1.377   1_655 A
C716   N754    1.438   .     S
C716   C1121   1.421   1_655 S
C717   N757    1.438   .     S
C718   N979    1.378   .     A
C718   N760    1.438   .     S
C718   C1263   1.421   .     S
C719   N980    1.377   .     A
C719   N763    1.438   .     S
C720   N766    1.438   .     S
C720   C1261   1.421   .     S
C721   C738    1.400   .     A
C721   N769    1.440   .     S
C721   C731    1.386   .     A
C722   N772    1.432   .     S
C722   C737    1.420   .     A
C722   C732    1.386   .     A
C723   N775    1.440   .     S
C723   C737    1.400   .     A
C723   C729    1.386   .     A
C724   N778    1.432   .     S
C724   C738    1.419   .     A
C724   C730    1.386   .     A
C725   C740    1.400   .     A
C725   N781    1.440   .     S
C725   C735    1.386   .     A
C726   C739    1.419   .     A
C726   N784    1.432   .     S
C726   C736    1.386   .     A
C727   C733    1.386   .     A
C727   N787    1.440   .     S
C727   C739    1.400   .     A
C728   N790    1.432   .     S
C728   C734    1.386   .     A
C728   C740    1.420   .     A
C729   N793    1.432   .     S
C729   C742    1.420   .     A
C730   N796    1.440   .     S
C730   C741    1.400   .     A
C731   C741    1.419   .     A
C731   N799    1.432   .     S
C732   N802    1.440   .     S
C732   C742    1.400   .     A
C733   C744    1.419   .     A
C733   N805    1.432   .     S
C734   C743    1.400   .     A
C734   N808    1.440   .     S
C735   C743    1.420   .     A
C735   N811    1.432   .     S
C736   C744    1.400   .     A
C736   N814    1.440   .     S
N745   O747    1.301   .     A
N745   O746    1.293   .     A
N748   O749    1.293   .     A
N748   O750    1.301   .     A
N751   O753    1.301   .     A
N751   O752    1.293   .     A
N754   O756    1.301   .     A
N754   O755    1.293   .     A
N757   O758    1.293   .     A
N757   O759    1.301   .     A
N760   O762    1.301   .     A
N760   O761    1.293   .     A
N763   O764    1.293   .     A
N763   O765    1.301   .     A
N766   O768    1.301   .     A
N766   O767    1.293   .     A
N769   O771    1.301   .     A
N769   O770    1.301   .     A
N772   O774    1.303   .     A
N772   O773    1.302   .     A
N775   O776    1.301   .     A
N775   O777    1.301   .     A
N778   O780    1.303   .     A
N778   O779    1.301   .     A
N781   O782    1.301   .     A
N781   O783    1.301   .     A
N784   O786    1.303   .     A
N784   O785    1.301   .     A
N787   O788    1.301   .     A
N787   O789    1.301   .     A
N790   O791    1.302   .     A
N790   O792    1.303   .     A
N793   O794    1.302   .     A
N793   O795    1.303   .     A
N796   O797    1.301   .     A
N796   O798    1.301   .     A
N799   O801    1.303   .     A
N799   O800    1.301   .     A
N802   O804    1.301   .     A
N802   O803    1.302   .     A
N805   O806    1.301   .     A
N805   O807    1.303   .     A
N808   O809    1.302   .     A
N808   O810    1.301   .     A
N811   O812    1.302   .     A
N811   O813    1.303   .     A
N814   O816    1.301   .     A
N814   O815    1.301   .     A
O817   C833    1.309   .     A
O817   Zn845   2.030   .     S
O818   C834    1.285   .     A
O818   Zn982   2.030   .     S
O819   C834    1.309   .     A
O819   Zn981   2.030   .     S
O820   C833    1.285   .     A
O820   Zn846   2.030   .     S
O821   Zn982   2.030   .     S
O821   C835    1.309   .     A
O822   C836    1.285   .     A
O822   Zn845   2.030   .     S
O823   C836    1.309   .     A
O823   Zn846   2.030   .     S
O824   Zn981   2.030   .     S
O824   C835    1.285   .     A
O825   C837    1.285   .     A
O825   Zn575   2.030   1_565 S
O826   C838    1.309   .     A
O826   Zn848   2.030   .     S
O827   Zn847   2.030   .     S
O827   C838    1.285   .     A
O828   C837    1.309   .     A
O828   Zn576   2.030   1_565 S
O829   C839    1.285   .     A
O829   Zn576   2.030   1_565 S
O830   Zn847   2.030   .     S
O830   C840    1.309   .     A
O831   Zn848   2.030   .     S
O831   C840    1.285   .     A
O832   C839    1.309   .     A
O832   Zn575   2.030   1_565 S
C833   C876    1.448   .     S
C834   C875    1.448   .     S
C835   C874    1.448   .     S
C836   C873    1.448   .     S
C837   C880    1.448   .     S
C838   C879    1.448   .     S
C839   C878    1.448   .     S
C840   C877    1.448   .     S
N841   Zn845   2.032   .     S
N841   C988    1.377   1_455 A
N841   C850    1.378   .     S
N842   C987    1.377   1_455 A
N842   Zn846   2.032   .     S
N842   C849    1.378   .     S
N843   Zn847   2.032   .     S
N843   C856    1.377   .     S
N844   Zn848   2.032   .     S
N844   C853    1.378   .     S
Zn845  O960    2.030   1_455 S
Zn845  O955    2.030   1_455 S
Zn846  O957    2.030   1_455 S
Zn846  O954    2.030   1_455 S
C849   N881    1.438   .     S
C849   C444    1.421   1_455 S
C850   N884    1.438   .     S
C850   C1531   1.421   1_455 S
C851   N978    1.377   .     A
C851   N887    1.438   .     S
C852   N977    1.377   .     A
C852   N890    1.438   .     S
C852   C1529   1.421   .     S
C853   N893    1.438   .     S
C854   N571    1.378   1_565 A
C854   N896    1.438   .     S
C854   C1399   1.421   .     S
C855   N572    1.377   1_565 A
C855   N899    1.438   .     S
C856   N902    1.438   .     S
C856   C1397   1.421   .     S
C857   C874    1.400   .     A
C857   N905    1.440   .     S
C857   C867    1.386   .     A
C858   N908    1.432   .     S
C858   C873    1.420   .     A
C858   C868    1.386   .     A
C859   N911    1.440   .     S
C859   C873    1.400   .     A
C859   C865    1.386   .     A
C860   N914    1.432   .     S
C860   C874    1.419   .     A
C860   C866    1.386   .     A
C861   C876    1.400   .     A
C861   N917    1.440   .     S
C861   C871    1.386   .     A
C862   C875    1.419   .     A
C862   N920    1.432   .     S
C862   C872    1.386   .     A
C863   C869    1.386   .     A
C863   N923    1.440   .     S
C863   C875    1.400   .     A
C864   N926    1.432   .     S
C864   C870    1.386   .     A
C864   C876    1.420   .     A
C865   N929    1.432   .     S
C865   C878    1.420   .     A
C866   N932    1.440   .     S
C866   C877    1.400   .     A
C867   C877    1.419   .     A
C867   N935    1.432   .     S
C868   N938    1.440   .     S
C868   C878    1.400   .     A
C869   C880    1.419   .     A
C869   N941    1.432   .     S
C870   C879    1.400   .     A
C870   N944    1.440   .     S
C871   C879    1.420   .     A
C871   N947    1.432   .     S
C872   C880    1.400   .     A
C872   N950    1.440   .     S
N881   O883    1.301   .     A
N881   O882    1.293   .     A
N884   O885    1.293   .     A
N884   O886    1.301   .     A
N887   O889    1.301   .     A
N887   O888    1.293   .     A
N890   O892    1.301   .     A
N890   O891    1.293   .     A
N893   O894    1.293   .     A
N893   O895    1.301   .     A
N896   O898    1.301   .     A
N896   O897    1.293   .     A
N899   O900    1.293   .     A
N899   O901    1.301   .     A
N902   O904    1.301   .     A
N902   O903    1.293   .     A
N905   O907    1.301   .     A
N905   O906    1.301   .     A
N908   O910    1.303   .     A
N908   O909    1.302   .     A
N911   O912    1.301   .     A
N911   O913    1.301   .     A
N914   O916    1.303   .     A
N914   O915    1.301   .     A
N917   O918    1.301   .     A
N917   O919    1.301   .     A
N920   O922    1.303   .     A
N920   O921    1.301   .     A
N923   O924    1.301   .     A
N923   O925    1.301   .     A
N926   O927    1.302   .     A
N926   O928    1.303   .     A
N929   O930    1.302   .     A
N929   O931    1.303   .     A
N932   O933    1.301   .     A
N932   O934    1.301   .     A
N935   O937    1.303   .     A
N935   O936    1.301   .     A
N938   O940    1.301   .     A
N938   O939    1.302   .     A
N941   O942    1.301   .     A
N941   O943    1.303   .     A
N944   O945    1.302   .     A
N944   O946    1.301   .     A
N947   O948    1.302   .     A
N947   O949    1.303   .     A
N950   O952    1.301   .     A
N950   O951    1.301   .     A
O953   C969    1.309   .     A
O953   Zn981   2.030   .     S
O954   C970    1.285   .     A
O954   Zn846   2.030   1_655 S
O955   C970    1.309   .     A
O955   Zn845   2.030   1_655 S
O956   C969    1.285   .     A
O956   Zn982   2.030   .     S
O957   Zn846   2.030   1_655 S
O957   C971    1.309   .     A
O958   C972    1.285   .     A
O958   Zn981   2.030   .     S
O959   C972    1.309   .     A
O959   Zn982   2.030   .     S
O960   Zn845   2.030   1_655 S
O960   C971    1.285   .     A
O961   C973    1.285   .     A
O961   Zn711   2.030   1_565 S
O962   C974    1.309   .     A
O962   Zn984   2.030   .     S
O963   Zn983   2.030   .     S
O963   C974    1.285   .     A
O964   C973    1.309   .     A
O964   Zn712   2.030   1_565 S
O965   C975    1.285   .     A
O965   Zn712   2.030   1_565 S
O966   Zn983   2.030   .     S
O966   C976    1.309   .     A
O967   Zn984   2.030   .     S
O967   C976    1.285   .     A
O968   C975    1.309   .     A
O968   Zn711   2.030   1_565 S
C969   C1012   1.448   .     S
C970   C1011   1.448   .     S
C971   C1010   1.448   .     S
C972   C1009   1.448   .     S
C973   C1016   1.448   .     S
C974   C1015   1.448   .     S
C975   C1014   1.448   .     S
C976   C1013   1.448   .     S
N977   Zn981   2.032   .     S
N977   C986    1.378   .     S
N978   Zn982   2.032   .     S
N978   C985    1.378   .     S
N979   Zn983   2.032   .     S
N979   C992    1.377   .     S
N980   Zn984   2.032   .     S
N980   C989    1.378   .     S
C985   N1017   1.438   .     S
C986   N1020   1.438   .     S
C986   C1395   1.421   .     S
C987   N842    1.377   1_655 A
C987   N1023   1.438   .     S
C987   C306    1.421   1_655 S
C988   N841    1.377   1_655 A
C988   N1026   1.438   .     S
C988   C1393   1.421   1_655 S
C989   N1029   1.438   .     S
C990   N707    1.378   1_565 A
C990   N1032   1.438   .     S
C990   C1535   1.421   .     S
C991   N708    1.377   1_565 A
C991   N1035   1.438   .     S
C992   N1038   1.438   .     S
C992   C1533   1.421   .     S
C993   C1010   1.400   .     A
C993   N1041   1.440   .     S
C993   C1003   1.386   .     A
C994   N1044   1.432   .     S
C994   C1009   1.420   .     A
C994   C1004   1.386   .     A
C995   N1047   1.440   .     S
C995   C1009   1.400   .     A
C995   C1001   1.386   .     A
C996   N1050   1.432   .     S
C996   C1010   1.419   .     A
C996   C1002   1.386   .     A
C997   C1012   1.400   .     A
C997   N1053   1.440   .     S
C997   C1007   1.386   .     A
C998   C1011   1.419   .     A
C998   N1056   1.432   .     S
C998   C1008   1.386   .     A
C999   C1005   1.386   .     A
C999   N1059   1.440   .     S
C999   C1011   1.400   .     A
C1000  N1062   1.432   .     S
C1000  C1006   1.386   .     A
C1000  C1012   1.420   .     A
C1001  N1065   1.432   .     S
C1001  C1014   1.420   .     A
C1002  N1068   1.440   .     S
C1002  C1013   1.400   .     A
C1003  C1013   1.419   .     A
C1003  N1071   1.432   .     S
C1004  N1074   1.440   .     S
C1004  C1014   1.400   .     A
C1005  C1016   1.419   .     A
C1005  N1077   1.432   .     S
C1006  C1015   1.400   .     A
C1006  N1080   1.440   .     S
C1007  C1015   1.420   .     A
C1007  N1083   1.432   .     S
C1008  C1016   1.400   .     A
C1008  N1086   1.440   .     S
N1017  O1019   1.301   .     A
N1017  O1018   1.293   .     A
N1020  O1021   1.293   .     A
N1020  O1022   1.301   .     A
N1023  O1025   1.301   .     A
N1023  O1024   1.293   .     A
N1026  O1028   1.301   .     A
N1026  O1027   1.293   .     A
N1029  O1030   1.293   .     A
N1029  O1031   1.301   .     A
N1032  O1034   1.301   .     A
N1032  O1033   1.293   .     A
N1035  O1036   1.293   .     A
N1035  O1037   1.301   .     A
N1038  O1040   1.301   .     A
N1038  O1039   1.293   .     A
N1041  O1043   1.301   .     A
N1041  O1042   1.301   .     A
N1044  O1046   1.303   .     A
N1044  O1045   1.302   .     A
N1047  O1048   1.301   .     A
N1047  O1049   1.301   .     A
N1050  O1052   1.303   .     A
N1050  O1051   1.301   .     A
N1053  O1054   1.301   .     A
N1053  O1055   1.301   .     A
N1056  O1058   1.303   .     A
N1056  O1057   1.301   .     A
N1059  O1060   1.301   .     A
N1059  O1061   1.301   .     A
N1062  O1063   1.302   .     A
N1062  O1064   1.303   .     A
N1065  O1066   1.302   .     A
N1065  O1067   1.303   .     A
N1068  O1069   1.301   .     A
N1068  O1070   1.301   .     A
N1071  O1073   1.303   .     A
N1071  O1072   1.301   .     A
N1074  O1076   1.301   .     A
N1074  O1075   1.302   .     A
N1077  O1078   1.301   .     A
N1077  O1079   1.303   .     A
N1080  O1081   1.302   .     A
N1080  O1082   1.301   .     A
N1083  O1084   1.302   .     A
N1083  O1085   1.303   .     A
N1086  O1088   1.301   .     A
N1086  O1087   1.301   .     A
O1089  C1105   1.309   .     A
O1089  Zn1117  2.030   .     S
O1090  C1106   1.285   .     A
O1090  Zn1254  2.030   .     S
O1091  C1106   1.309   .     A
O1091  Zn1253  2.030   .     S
O1092  C1105   1.285   .     A
O1092  Zn1118  2.030   .     S
O1093  Zn1254  2.030   .     S
O1093  C1107   1.309   .     A
O1094  C1108   1.285   .     A
O1094  Zn1117  2.030   .     S
O1095  C1108   1.309   .     A
O1095  Zn1118  2.030   .     S
O1096  Zn1253  2.030   .     S
O1096  C1107   1.285   .     A
O1097  C1109   1.285   .     A
O1097  Zn1391  2.030   .     S
O1098  C1110   1.309   .     A
O1098  Zn1120  2.030   .     S
O1099  Zn1119  2.030   .     S
O1099  C1110   1.285   .     A
O1100  C1109   1.309   .     A
O1100  Zn1392  2.030   .     S
O1101  C1111   1.285   .     A
O1101  Zn1392  2.030   .     S
O1102  Zn1119  2.030   .     S
O1102  C1112   1.309   .     A
O1103  Zn1120  2.030   .     S
O1103  C1112   1.285   .     A
O1104  C1111   1.309   .     A
O1104  Zn1391  2.030   .     S
C1105  C1148   1.448   .     S
C1106  C1147   1.448   .     S
C1107  C1146   1.448   .     S
C1108  C1145   1.448   .     S
C1109  C1152   1.448   .     S
C1110  C1151   1.448   .     S
C1111  C1150   1.448   .     S
C1112  C1149   1.448   .     S
N1113  Zn1117  2.032   .     S
N1113  C1260   1.377   1_455 A
N1113  C1122   1.378   .     S
N1114  C1259   1.377   1_455 A
N1114  Zn1118  2.032   .     S
N1114  C1121   1.378   .     S
N1115  C1398   1.378   1_545 A
N1115  Zn1119  2.032   .     S
N1115  C1128   1.377   .     S
N1116  C1399   1.377   1_545 A
N1116  Zn1120  2.032   .     S
N1116  C1125   1.378   .     S
Zn1117 O1232   2.030   1_455 S
Zn1117 O1227   2.030   1_455 S
Zn1118 O1229   2.030   1_455 S
Zn1118 O1226   2.030   1_455 S
Zn1119 O1376   2.030   1_545 S
Zn1119 O1369   2.030   1_545 S
Zn1120 O1373   2.030   1_545 S
Zn1120 O1372   2.030   1_545 S
C1121  N1153   1.438   .     S
C1121  C716    1.421   1_455 S
C1122  N1156   1.438   .     S
C1122  C171    1.421   1_456 S
C1123  N1250   1.377   .     A
C1123  N1159   1.438   .     S
C1124  N1249   1.377   .     A
C1124  N1162   1.438   .     S
C1124  C169    1.421   1_556 S
C1125  N1165   1.438   .     S
C1126  N1387   1.378   .     A
C1126  N1168   1.438   .     S
C1126  C39     1.421   1_556 S
C1127  N1388   1.377   .     A
C1127  N1171   1.438   .     S
C1128  N1174   1.438   .     S
C1128  C37     1.421   1_556 S
C1129  C1146   1.400   .     A
C1129  N1177   1.440   .     S
C1129  C1139   1.386   .     A
C1130  N1180   1.432   .     S
C1130  C1145   1.420   .     A
C1130  C1140   1.386   .     A
C1131  N1183   1.440   .     S
C1131  C1145   1.400   .     A
C1131  C1137   1.386   .     A
C1132  N1186   1.432   .     S
C1132  C1146   1.419   .     A
C1132  C1138   1.386   .     A
C1133  C1148   1.400   .     A
C1133  N1189   1.440   .     S
C1133  C1143   1.386   .     A
C1134  C1147   1.419   .     A
C1134  N1192   1.432   .     S
C1134  C1144   1.386   .     A
C1135  C1141   1.386   .     A
C1135  N1195   1.440   .     S
C1135  C1147   1.400   .     A
C1136  N1198   1.432   .     S
C1136  C1142   1.386   .     A
C1136  C1148   1.420   .     A
C1137  N1201   1.432   .     S
C1137  C1150   1.420   .     A
C1138  N1204   1.440   .     S
C1138  C1149   1.400   .     A
C1139  C1149   1.419   .     A
C1139  N1207   1.432   .     S
C1140  N1210   1.440   .     S
C1140  C1150   1.400   .     A
C1141  C1152   1.419   .     A
C1141  N1213   1.432   .     S
C1142  C1151   1.400   .     A
C1142  N1216   1.440   .     S
C1143  C1151   1.420   .     A
C1143  N1219   1.432   .     S
C1144  C1152   1.400   .     A
C1144  N1222   1.440   .     S
N1153  O1155   1.301   .     A
N1153  O1154   1.293   .     A
N1156  O1157   1.293   .     A
N1156  O1158   1.301   .     A
N1159  O1161   1.301   .     A
N1159  O1160   1.293   .     A
N1162  O1164   1.301   .     A
N1162  O1163   1.293   .     A
N1165  O1166   1.293   .     A
N1165  O1167   1.301   .     A
N1168  O1170   1.301   .     A
N1168  O1169   1.293   .     A
N1171  O1172   1.293   .     A
N1171  O1173   1.301   .     A
N1174  O1176   1.301   .     A
N1174  O1175   1.293   .     A
N1177  O1179   1.301   .     A
N1177  O1178   1.301   .     A
N1180  O1182   1.303   .     A
N1180  O1181   1.302   .     A
N1183  O1184   1.301   .     A
N1183  O1185   1.301   .     A
N1186  O1188   1.303   .     A
N1186  O1187   1.301   .     A
N1189  O1190   1.301   .     A
N1189  O1191   1.301   .     A
N1192  O1194   1.303   .     A
N1192  O1193   1.301   .     A
N1195  O1196   1.301   .     A
N1195  O1197   1.301   .     A
N1198  O1199   1.302   .     A
N1198  O1200   1.303   .     A
N1201  O1202   1.302   .     A
N1201  O1203   1.303   .     A
N1204  O1205   1.301   .     A
N1204  O1206   1.301   .     A
N1207  O1209   1.303   .     A
N1207  O1208   1.301   .     A
N1210  O1212   1.301   .     A
N1210  O1211   1.302   .     A
N1213  O1214   1.301   .     A
N1213  O1215   1.303   .     A
N1216  O1217   1.302   .     A
N1216  O1218   1.301   .     A
N1219  O1220   1.302   .     A
N1219  O1221   1.303   .     A
N1222  O1224   1.301   .     A
N1222  O1223   1.301   .     A
O1225  C1241   1.309   .     A
O1225  Zn1253  2.030   .     S
O1226  C1242   1.285   .     A
O1226  Zn1118  2.030   1_655 S
O1227  C1242   1.309   .     A
O1227  Zn1117  2.030   1_655 S
O1228  C1241   1.285   .     A
O1228  Zn1254  2.030   .     S
O1229  Zn1118  2.030   1_655 S
O1229  C1243   1.309   .     A
O1230  C1244   1.285   .     A
O1230  Zn1253  2.030   .     S
O1231  C1244   1.309   .     A
O1231  Zn1254  2.030   .     S
O1232  Zn1117  2.030   1_655 S
O1232  C1243   1.285   .     A
O1233  C1245   1.285   .     A
O1233  Zn1527  2.030   .     S
O1234  C1246   1.309   .     A
O1234  Zn1256  2.030   .     S
O1235  Zn1255  2.030   .     S
O1235  C1246   1.285   .     A
O1236  C1245   1.309   .     A
O1236  Zn1528  2.030   .     S
O1237  C1247   1.285   .     A
O1237  Zn1528  2.030   .     S
O1238  Zn1255  2.030   .     S
O1238  C1248   1.309   .     A
O1239  Zn1256  2.030   .     S
O1239  C1248   1.285   .     A
O1240  C1247   1.309   .     A
O1240  Zn1527  2.030   .     S
C1241  C1284   1.448   .     S
C1242  C1283   1.448   .     S
C1243  C1282   1.448   .     S
C1244  C1281   1.448   .     S
C1245  C1288   1.448   .     S
C1246  C1287   1.448   .     S
C1247  C1286   1.448   .     S
C1248  C1285   1.448   .     S
N1249  Zn1253  2.032   .     S
N1249  C1258   1.378   .     S
N1250  Zn1254  2.032   .     S
N1250  C1257   1.378   .     S
N1251  C1534   1.378   1_545 A
N1251  Zn1255  2.032   .     S
N1251  C1264   1.377   .     S
N1252  C1535   1.377   1_545 A
N1252  Zn1256  2.032   .     S
N1252  C1261   1.378   .     S
Zn1255 O1512   2.030   1_545 S
Zn1255 O1505   2.030   1_545 S
Zn1256 O1509   2.030   1_545 S
Zn1256 O1508   2.030   1_545 S
C1257  N1289   1.438   .     S
C1258  N1292   1.438   .     S
C1258  C35     1.421   1_556 S
C1259  N1114   1.377   1_655 A
C1259  N1295   1.438   .     S
C1259  C578    1.421   1_655 S
C1260  N1113   1.377   1_655 A
C1260  N1298   1.438   .     S
C1260  C33     1.421   1_656 S
C1261  N1301   1.438   .     S
C1262  N1523   1.378   .     A
C1262  N1304   1.438   .     S
C1262  C175    1.421   1_556 S
C1263  N1524   1.377   .     A
C1263  N1307   1.438   .     S
C1264  N1310   1.438   .     S
C1264  C173    1.421   1_556 S
C1265  C1282   1.400   .     A
C1265  N1313   1.440   .     S
C1265  C1275   1.386   .     A
C1266  N1316   1.432   .     S
C1266  C1281   1.420   .     A
C1266  C1276   1.386   .     A
C1267  N1319   1.440   .     S
C1267  C1281   1.400   .     A
C1267  C1273   1.386   .     A
C1268  N1322   1.432   .     S
C1268  C1282   1.419   .     A
C1268  C1274   1.386   .     A
C1269  C1284   1.400   .     A
C1269  N1325   1.440   .     S
C1269  C1279   1.386   .     A
C1270  C1283   1.419   .     A
C1270  N1328   1.432   .     S
C1270  C1280   1.386   .     A
C1271  C1277   1.386   .     A
C1271  N1331   1.440   .     S
C1271  C1283   1.400   .     A
C1272  N1334   1.432   .     S
C1272  C1278   1.386   .     A
C1272  C1284   1.420   .     A
C1273  N1337   1.432   .     S
C1273  C1286   1.420   .     A
C1274  N1340   1.440   .     S
C1274  C1285   1.400   .     A
C1275  C1285   1.419   .     A
C1275  N1343   1.432   .     S
C1276  N1346   1.440   .     S
C1276  C1286   1.400   .     A
C1277  C1288   1.419   .     A
C1277  N1349   1.432   .     S
C1278  C1287   1.400   .     A
C1278  N1352   1.440   .     S
C1279  C1287   1.420   .     A
C1279  N1355   1.432   .     S
C1280  C1288   1.400   .     A
C1280  N1358   1.440   .     S
N1289  O1291   1.301   .     A
N1289  O1290   1.293   .     A
N1292  O1293   1.293   .     A
N1292  O1294   1.301   .     A
N1295  O1297   1.301   .     A
N1295  O1296   1.293   .     A
N1298  O1300   1.301   .     A
N1298  O1299   1.293   .     A
N1301  O1302   1.293   .     A
N1301  O1303   1.301   .     A
N1304  O1306   1.301   .     A
N1304  O1305   1.293   .     A
N1307  O1308   1.293   .     A
N1307  O1309   1.301   .     A
N1310  O1312   1.301   .     A
N1310  O1311   1.293   .     A
N1313  O1315   1.301   .     A
N1313  O1314   1.301   .     A
N1316  O1318   1.303   .     A
N1316  O1317   1.302   .     A
N1319  O1320   1.301   .     A
N1319  O1321   1.301   .     A
N1322  O1324   1.303   .     A
N1322  O1323   1.301   .     A
N1325  O1326   1.301   .     A
N1325  O1327   1.301   .     A
N1328  O1330   1.303   .     A
N1328  O1329   1.301   .     A
N1331  O1332   1.301   .     A
N1331  O1333   1.301   .     A
N1334  O1335   1.302   .     A
N1334  O1336   1.303   .     A
N1337  O1338   1.302   .     A
N1337  O1339   1.303   .     A
N1340  O1341   1.301   .     A
N1340  O1342   1.301   .     A
N1343  O1345   1.303   .     A
N1343  O1344   1.301   .     A
N1346  O1348   1.301   .     A
N1346  O1347   1.302   .     A
N1349  O1350   1.301   .     A
N1349  O1351   1.303   .     A
N1352  O1353   1.302   .     A
N1352  O1354   1.301   .     A
N1355  O1356   1.302   .     A
N1355  O1357   1.303   .     A
N1358  O1360   1.301   .     A
N1358  O1359   1.301   .     A
O1361  C1377   1.309   .     A
O1361  Zn1389  2.030   .     S
O1362  C1378   1.285   .     A
O1362  Zn1526  2.030   .     S
O1363  C1378   1.309   .     A
O1363  Zn1525  2.030   .     S
O1364  C1377   1.285   .     A
O1364  Zn1390  2.030   .     S
O1365  Zn1526  2.030   .     S
O1365  C1379   1.309   .     A
O1366  C1380   1.285   .     A
O1366  Zn1389  2.030   .     S
O1367  C1380   1.309   .     A
O1367  Zn1390  2.030   .     S
O1368  Zn1525  2.030   .     S
O1368  C1379   1.285   .     A
O1369  C1381   1.285   .     A
O1369  Zn1119  2.030   1_565 S
O1370  C1382   1.309   .     A
O1370  Zn1392  2.030   .     S
O1371  Zn1391  2.030   .     S
O1371  C1382   1.285   .     A
O1372  C1381   1.309   .     A
O1372  Zn1120  2.030   1_565 S
O1373  C1383   1.285   .     A
O1373  Zn1120  2.030   1_565 S
O1374  Zn1391  2.030   .     S
O1374  C1384   1.309   .     A
O1375  Zn1392  2.030   .     S
O1375  C1384   1.285   .     A
O1376  C1383   1.309   .     A
O1376  Zn1119  2.030   1_565 S
C1377  C1420   1.448   .     S
C1378  C1419   1.448   .     S
C1379  C1418   1.448   .     S
C1380  C1417   1.448   .     S
C1381  C1424   1.448   .     S
C1382  C1423   1.448   .     S
C1383  C1422   1.448   .     S
C1384  C1421   1.448   .     S
N1385  Zn1389  2.032   .     S
N1385  C1532   1.377   1_455 A
N1385  C1394   1.378   .     S
N1386  C1531   1.377   1_455 A
N1386  Zn1390  2.032   .     S
N1386  C1393   1.378   .     S
N1387  Zn1391  2.032   .     S
N1387  C1400   1.377   .     S
N1388  Zn1392  2.032   .     S
N1388  C1397   1.378   .     S
Zn1389 O1504   2.030   1_455 S
Zn1389 O1499   2.030   1_455 S
Zn1390 O1501   2.030   1_455 S
Zn1390 O1498   2.030   1_455 S
C1393  N1425   1.438   .     S
C1393  C988    1.421   1_455 S
C1394  N1428   1.438   .     S
C1394  C443    1.421   1_456 S
C1395  N1522   1.377   .     A
C1395  N1431   1.438   .     S
C1396  N1521   1.377   .     A
C1396  N1434   1.438   .     S
C1396  C441    1.421   1_556 S
C1397  N1437   1.438   .     S
C1398  N1115   1.378   1_565 A
C1398  N1440   1.438   .     S
C1398  C311    1.421   1_556 S
C1399  N1116   1.377   1_565 A
C1399  N1443   1.438   .     S
C1400  N1446   1.438   .     S
C1400  C309    1.421   1_556 S
C1401  C1418   1.400   .     A
C1401  N1449   1.440   .     S
C1401  C1411   1.386   .     A
C1402  N1452   1.432   .     S
C1402  C1417   1.420   .     A
C1402  C1412   1.386   .     A
C1403  N1455   1.440   .     S
C1403  C1417   1.400   .     A
C1403  C1409   1.386   .     A
C1404  N1458   1.432   .     S
C1404  C1418   1.419   .     A
C1404  C1410   1.386   .     A
C1405  C1420   1.400   .     A
C1405  N1461   1.440   .     S
C1405  C1415   1.386   .     A
C1406  C1419   1.419   .     A
C1406  N1464   1.432   .     S
C1406  C1416   1.386   .     A
C1407  C1413   1.386   .     A
C1407  N1467   1.440   .     S
C1407  C1419   1.400   .     A
C1408  N1470   1.432   .     S
C1408  C1414   1.386   .     A
C1408  C1420   1.420   .     A
C1409  N1473   1.432   .     S
C1409  C1422   1.420   .     A
C1410  N1476   1.440   .     S
C1410  C1421   1.400   .     A
C1411  C1421   1.419   .     A
C1411  N1479   1.432   .     S
C1412  N1482   1.440   .     S
C1412  C1422   1.400   .     A
C1413  C1424   1.419   .     A
C1413  N1485   1.432   .     S
C1414  C1423   1.400   .     A
C1414  N1488   1.440   .     S
C1415  C1423   1.420   .     A
C1415  N1491   1.432   .     S
C1416  C1424   1.400   .     A
C1416  N1494   1.440   .     S
N1425  O1427   1.301   .     A
N1425  O1426   1.293   .     A
N1428  O1429   1.293   .     A
N1428  O1430   1.301   .     A
N1431  O1433   1.301   .     A
N1431  O1432   1.293   .     A
N1434  O1436   1.301   .     A
N1434  O1435   1.293   .     A
N1437  O1438   1.293   .     A
N1437  O1439   1.301   .     A
N1440  O1442   1.301   .     A
N1440  O1441   1.293   .     A
N1443  O1444   1.293   .     A
N1443  O1445   1.301   .     A
N1446  O1448   1.301   .     A
N1446  O1447   1.293   .     A
N1449  O1451   1.301   .     A
N1449  O1450   1.301   .     A
N1452  O1454   1.303   .     A
N1452  O1453   1.302   .     A
N1455  O1456   1.301   .     A
N1455  O1457   1.301   .     A
N1458  O1460   1.303   .     A
N1458  O1459   1.301   .     A
N1461  O1462   1.301   .     A
N1461  O1463   1.301   .     A
N1464  O1466   1.303   .     A
N1464  O1465   1.301   .     A
N1467  O1468   1.301   .     A
N1467  O1469   1.301   .     A
N1470  O1471   1.302   .     A
N1470  O1472   1.303   .     A
N1473  O1474   1.302   .     A
N1473  O1475   1.303   .     A
N1476  O1477   1.301   .     A
N1476  O1478   1.301   .     A
N1479  O1481   1.303   .     A
N1479  O1480   1.301   .     A
N1482  O1484   1.301   .     A
N1482  O1483   1.302   .     A
N1485  O1486   1.301   .     A
N1485  O1487   1.303   .     A
N1488  O1489   1.302   .     A
N1488  O1490   1.301   .     A
N1491  O1492   1.302   .     A
N1491  O1493   1.303   .     A
N1494  O1496   1.301   .     A
N1494  O1495   1.301   .     A
O1497  C1513   1.309   .     A
O1497  Zn1525  2.030   .     S
O1498  C1514   1.285   .     A
O1498  Zn1390  2.030   1_655 S
O1499  C1514   1.309   .     A
O1499  Zn1389  2.030   1_655 S
O1500  C1513   1.285   .     A
O1500  Zn1526  2.030   .     S
O1501  Zn1390  2.030   1_655 S
O1501  C1515   1.309   .     A
O1502  C1516   1.285   .     A
O1502  Zn1525  2.030   .     S
O1503  C1516   1.309   .     A
O1503  Zn1526  2.030   .     S
O1504  Zn1389  2.030   1_655 S
O1504  C1515   1.285   .     A
O1505  C1517   1.285   .     A
O1505  Zn1255  2.030   1_565 S
O1506  C1518   1.309   .     A
O1506  Zn1528  2.030   .     S
O1507  Zn1527  2.030   .     S
O1507  C1518   1.285   .     A
O1508  C1517   1.309   .     A
O1508  Zn1256  2.030   1_565 S
O1509  C1519   1.285   .     A
O1509  Zn1256  2.030   1_565 S
O1510  Zn1527  2.030   .     S
O1510  C1520   1.309   .     A
O1511  Zn1528  2.030   .     S
O1511  C1520   1.285   .     A
O1512  C1519   1.309   .     A
O1512  Zn1255  2.030   1_565 S
C1513  C1556   1.448   .     S
C1514  C1555   1.448   .     S
C1515  C1554   1.448   .     S
C1516  C1553   1.448   .     S
C1517  C1560   1.448   .     S
C1518  C1559   1.448   .     S
C1519  C1558   1.448   .     S
C1520  C1557   1.448   .     S
N1521  Zn1525  2.032   .     S
N1521  C1530   1.378   .     S
N1522  Zn1526  2.032   .     S
N1522  C1529   1.378   .     S
N1523  Zn1527  2.032   .     S
N1523  C1536   1.377   .     S
N1524  Zn1528  2.032   .     S
N1524  C1533   1.378   .     S
C1529  N1561   1.438   .     S
C1530  N1564   1.438   .     S
C1530  C307    1.421   1_556 S
C1531  N1386   1.377   1_655 A
C1531  N1567   1.438   .     S
C1531  C850    1.421   1_655 S
C1532  N1385   1.377   1_655 A
C1532  N1570   1.438   .     S
C1532  C305    1.421   1_656 S
C1533  N1573   1.438   .     S
C1534  N1251   1.378   1_565 A
C1534  N1576   1.438   .     S
C1534  C447    1.421   1_556 S
C1535  N1252   1.377   1_565 A
C1535  N1579   1.438   .     S
C1536  N1582   1.438   .     S
C1536  C445    1.421   1_556 S
C1537  C1554   1.400   .     A
C1537  N1585   1.440   .     S
C1537  C1547   1.386   .     A
C1538  N1588   1.432   .     S
C1538  C1553   1.420   .     A
C1538  C1548   1.386   .     A
C1539  N1591   1.440   .     S
C1539  C1553   1.400   .     A
C1539  C1545   1.386   .     A
C1540  N1594   1.432   .     S
C1540  C1554   1.419   .     A
C1540  C1546   1.386   .     A
C1541  C1556   1.400   .     A
C1541  N1597   1.440   .     S
C1541  C1551   1.386   .     A
C1542  C1555   1.419   .     A
C1542  N1600   1.432   .     S
C1542  C1552   1.386   .     A
C1543  C1549   1.386   .     A
C1543  N1603   1.440   .     S
C1543  C1555   1.400   .     A
C1544  N1606   1.432   .     S
C1544  C1550   1.386   .     A
C1544  C1556   1.420   .     A
C1545  N1609   1.432   .     S
C1545  C1558   1.420   .     A
C1546  N1612   1.440   .     S
C1546  C1557   1.400   .     A
C1547  C1557   1.419   .     A
C1547  N1615   1.432   .     S
C1548  N1618   1.440   .     S
C1548  C1558   1.400   .     A
C1549  C1560   1.419   .     A
C1549  N1621   1.432   .     S
C1550  C1559   1.400   .     A
C1550  N1624   1.440   .     S
C1551  C1559   1.420   .     A
C1551  N1627   1.432   .     S
C1552  C1560   1.400   .     A
C1552  N1630   1.440   .     S
N1561  O1563   1.301   .     A
N1561  O1562   1.293   .     A
N1564  O1565   1.293   .     A
N1564  O1566   1.301   .     A
N1567  O1569   1.301   .     A
N1567  O1568   1.293   .     A
N1570  O1572   1.301   .     A
N1570  O1571   1.293   .     A
N1573  O1574   1.293   .     A
N1573  O1575   1.301   .     A
N1576  O1578   1.301   .     A
N1576  O1577   1.293   .     A
N1579  O1580   1.293   .     A
N1579  O1581   1.301   .     A
N1582  O1584   1.301   .     A
N1582  O1583   1.293   .     A
N1585  O1587   1.301   .     A
N1585  O1586   1.301   .     A
N1588  O1590   1.303   .     A
N1588  O1589   1.302   .     A
N1591  O1592   1.301   .     A
N1591  O1593   1.301   .     A
N1594  O1596   1.303   .     A
N1594  O1595   1.301   .     A
N1597  O1598   1.301   .     A
N1597  O1599   1.301   .     A
N1600  O1602   1.303   .     A
N1600  O1601   1.301   .     A
N1603  O1604   1.301   .     A
N1603  O1605   1.301   .     A
N1606  O1607   1.302   .     A
N1606  O1608   1.303   .     A
N1609  O1610   1.302   .     A
N1609  O1611   1.303   .     A
N1612  O1613   1.301   .     A
N1612  O1614   1.301   .     A
N1615  O1617   1.303   .     A
N1615  O1616   1.301   .     A
N1618  O1620   1.301   .     A
N1618  O1619   1.302   .     A
N1621  O1622   1.301   .     A
N1621  O1623   1.303   .     A
N1624  O1625   1.302   .     A
N1624  O1626   1.301   .     A
N1627  O1628   1.302   .     A
N1627  O1629   1.303   .     A
N1630  O1632   1.301   .     A
N1630  O1631   1.301   .     A
