data_str_m3_o1_o16_pcu_sym.91
_audit_creation_date              2020-01-03
_audit_creation_method            'Materials Studio'
_symmetry_space_group_name_H-M    'P1'
_symmetry_Int_Tables_number       1
_symmetry_cell_setting            triclinic
loop_
_symmetry_equiv_pos_as_xyz
  x,y,z
_cell_length_a                    29.5664
_cell_length_b                    31.9509
_cell_length_c                    26.5451
_cell_angle_alpha                 90.2933
_cell_angle_beta                  70.8776
_cell_angle_gamma                 90.4155
loop_
_atom_site_label
_atom_site_type_symbol
_atom_site_fract_x
_atom_site_fract_y
_atom_site_fract_z
_atom_site_U_iso_or_equiv
_atom_site_adp_type
_atom_site_occupancy
C1     C     0.16672   0.24665   0.25013   0.00000  Uiso   1.00
C2     C     0.15827   0.18497   0.48043   0.00000  Uiso   1.00
C3     C     0.15512   0.16167   0.43660   0.00000  Uiso   1.00
C4     C     0.18604   0.16887   0.01016   0.00000  Uiso   1.00
C5     C     0.21978   0.13685   0.48771   0.00000  Uiso   1.00
C6     C     0.21825   0.11547   0.44248   0.00000  Uiso   1.00
C7     C     0.18375   0.12567   0.41976   0.00000  Uiso   1.00
C8     C     0.17750   0.18002   0.06382   0.00000  Uiso   1.00
C9     C     0.24701   0.13925   0.06391   0.00000  Uiso   1.00
C10    C     0.12626   0.17650   0.40771   0.00000  Uiso   1.00
C11    C     0.18501   0.31234   0.28569   0.00000  Uiso   1.00
C12    C     0.14048   0.16681   0.35152   0.00000  Uiso   1.00
C13    C     0.18498   0.02226   0.28511   0.00000  Uiso   1.00
C14    C     0.16593   0.04279   0.25066   0.00000  Uiso   1.00
C15    C     0.14649   0.02156   0.21668   0.00000  Uiso   1.00
C16    C     0.14599   0.31170   0.21676   0.00000  Uiso   1.00
C17    C     0.16643   0.29092   0.25048   0.00000  Uiso   1.00
C18    C     0.31764   0.13768   0.22116   0.00000  Uiso   1.00
C19    C     0.03195   0.13725   0.22194   0.00000  Uiso   1.00
C20    C     0.01574   0.19542   0.27927   0.00000  Uiso   1.00
C21    C     0.30033   0.19478   0.28077   0.00000  Uiso   1.00
C22    C     0.16648   0.08677   0.25006   0.00000  Uiso   1.00
C23    C     0.19282   0.16746   0.14827   0.00000  Uiso   1.00
C24    C     0.25209   0.12443   0.01311   0.00000  Uiso   1.00
C25    C     0.20799   0.16457   0.09051   0.00000  Uiso   1.00
C26    C     0.09774   0.21198   0.42488   0.00000  Uiso   1.00
C27    C     0.10381   0.23698   0.46539   0.00000  Uiso   1.00
C28    C     0.13512   0.22423   0.49174   0.00000  Uiso   1.00
H29    H     0.27025   0.12713   0.08453   0.00000  Uiso   1.00
H30    H     0.19906   0.03991   0.31175   0.00000  Uiso   1.00
H31    H     0.13312   0.03853   0.18926   0.00000  Uiso   1.00
H32    H     0.30626   0.11465   0.19774   0.00000  Uiso   1.00
H33    H     0.05647   0.11368   0.19942   0.00000  Uiso   1.00
H34    H     0.02806   0.21872   0.30153   0.00000  Uiso   1.00
H35    H     0.24187   0.08935   0.42652   0.00000  Uiso   1.00
H36    H     0.27933   0.10132   0.49513   0.00000  Uiso   1.00
H37    H     0.07583   0.22346   0.40226   0.00000  Uiso   1.00
H38    H     0.14146   0.24571   0.02031   0.00000  Uiso   1.00
H39    H     0.18108   0.10624   0.38728   0.00000  Uiso   1.00
N40    N     0.04760   0.16668   0.25002   0.00000  Uiso   1.00
N41    N     0.28573   0.16665   0.25001   0.00000  Uiso   1.00
O42    O     0.12846   0.22775   0.25001   0.00000  Uiso   1.00
O43    O     0.20490   0.22774   0.25001   0.00000  Uiso   1.00
O44    O     0.10947   0.16666   0.32681   0.00000  Uiso   1.00
O45    O     0.18591   0.16665   0.32681   0.00000  Uiso   1.00
O46    O     0.12843   0.10559   0.25000   0.00000  Uiso   1.00
O47    O     0.20488   0.10558   0.25000   0.00000  Uiso   1.00
O48    O     0.14742   0.16668   0.17319   0.00000  Uiso   1.00
O49    O     0.22387   0.16667   0.17319   0.00000  Uiso   1.00
Zn50   Zn    0.11562   0.16667   0.25000   0.00000  Uiso   1.00
Zn51   Zn    0.21771   0.16666   0.25000   0.00000  Uiso   1.00
O52    O     0.13064   0.28954   0.18024   0.00000  Uiso   1.00
C53    C     0.08073   0.29432   0.19284   0.00000  Uiso   1.00
H54    H     0.06114   0.28717   0.23552   0.00000  Uiso   1.00
H55    H     0.06798   0.27178   0.16846   0.00000  Uiso   1.00
H56    H     0.07180   0.32625   0.18279   0.00000  Uiso   1.00
O57    O     0.26756   0.22355   0.31066   0.00000  Uiso   1.00
C58    C     0.26581   0.22274   0.36446   0.00000  Uiso   1.00
H59    H     0.23150   0.23674   0.38938   0.00000  Uiso   1.00
H60    H     0.29515   0.24207   0.37012   0.00000  Uiso   1.00
H61    H     0.26685   0.19032   0.37932   0.00000  Uiso   1.00
O62    O     0.13731   0.20287   0.09230   0.00000  Uiso   1.00
C63    C     0.09545   0.17785   0.10227   0.00000  Uiso   1.00
H64    H     0.06714   0.19145   0.13679   0.00000  Uiso   1.00
H65    H     0.10087   0.14475   0.11185   0.00000  Uiso   1.00
H66    H     0.08147   0.17819   0.06836   0.00000  Uiso   1.00
O67    O     0.07970   0.27440   0.47908   0.00000  Uiso   1.00
C68    C     0.10445   0.30520   0.44225   0.00000  Uiso   1.00
H69    H     0.10369   0.29809   0.40145   0.00000  Uiso   1.00
H70    H     0.14209   0.30886   0.44179   0.00000  Uiso   1.00
H71    H     0.08637   0.00233   0.45457   0.00000  Uiso   1.00
O72    O     0.20156   0.29046   0.32084   0.00000  Uiso   1.00
H73    H     0.21290   0.31054   0.34277   0.00000  Uiso   1.00
C74    C     0.50005   0.24665   0.25013   0.00000  Uiso   1.00
C75    C     0.49160   0.18497   0.48043   0.00000  Uiso   1.00
C76    C     0.48846   0.16167   0.43660   0.00000  Uiso   1.00
C77    C     0.51938   0.16887   0.01016   0.00000  Uiso   1.00
C78    C     0.55312   0.13685   0.48771   0.00000  Uiso   1.00
C79    C     0.55158   0.11547   0.44248   0.00000  Uiso   1.00
C80    C     0.51708   0.12567   0.41976   0.00000  Uiso   1.00
C81    C     0.51084   0.18002   0.06382   0.00000  Uiso   1.00
C82    C     0.58035   0.13925   0.06391   0.00000  Uiso   1.00
C83    C     0.45959   0.17650   0.40771   0.00000  Uiso   1.00
C84    C     0.51834   0.31234   0.28569   0.00000  Uiso   1.00
C85    C     0.47382   0.16681   0.35152   0.00000  Uiso   1.00
C86    C     0.51831   0.02226   0.28511   0.00000  Uiso   1.00
C87    C     0.49926   0.04279   0.25066   0.00000  Uiso   1.00
C88    C     0.47982   0.02156   0.21668   0.00000  Uiso   1.00
C89    C     0.47932   0.31170   0.21676   0.00000  Uiso   1.00
C90    C     0.49977   0.29092   0.25048   0.00000  Uiso   1.00
C91    C     0.65097   0.13768   0.22116   0.00000  Uiso   1.00
C92    C     0.36528   0.13725   0.22194   0.00000  Uiso   1.00
C93    C     0.34907   0.19542   0.27927   0.00000  Uiso   1.00
C94    C     0.63367   0.19478   0.28077   0.00000  Uiso   1.00
C95    C     0.49982   0.08677   0.25006   0.00000  Uiso   1.00
C96    C     0.52616   0.16746   0.14827   0.00000  Uiso   1.00
C97    C     0.58543   0.12443   0.01311   0.00000  Uiso   1.00
C98    C     0.54132   0.16457   0.09051   0.00000  Uiso   1.00
C99    C     0.43107   0.21198   0.42488   0.00000  Uiso   1.00
C100   C     0.43715   0.23698   0.46539   0.00000  Uiso   1.00
C101   C     0.46845   0.22423   0.49174   0.00000  Uiso   1.00
H102   H     0.60358   0.12713   0.08453   0.00000  Uiso   1.00
H103   H     0.53239   0.03991   0.31175   0.00000  Uiso   1.00
H104   H     0.46645   0.03853   0.18926   0.00000  Uiso   1.00
H105   H     0.63959   0.11465   0.19774   0.00000  Uiso   1.00
H106   H     0.38981   0.11368   0.19942   0.00000  Uiso   1.00
H107   H     0.36139   0.21872   0.30153   0.00000  Uiso   1.00
H108   H     0.57520   0.08935   0.42652   0.00000  Uiso   1.00
H109   H     0.61266   0.10132   0.49513   0.00000  Uiso   1.00
H110   H     0.40917   0.22346   0.40226   0.00000  Uiso   1.00
H111   H     0.47479   0.24571   0.02031   0.00000  Uiso   1.00
H112   H     0.51441   0.10624   0.38728   0.00000  Uiso   1.00
N113   N     0.38093   0.16668   0.25002   0.00000  Uiso   1.00
N114   N     0.61906   0.16665   0.25001   0.00000  Uiso   1.00
O115   O     0.46179   0.22775   0.25001   0.00000  Uiso   1.00
O116   O     0.53823   0.22774   0.25001   0.00000  Uiso   1.00
O117   O     0.44280   0.16666   0.32681   0.00000  Uiso   1.00
O118   O     0.51924   0.16665   0.32681   0.00000  Uiso   1.00
O119   O     0.46177   0.10559   0.25000   0.00000  Uiso   1.00
O120   O     0.53821   0.10558   0.25000   0.00000  Uiso   1.00
O121   O     0.48076   0.16668   0.17319   0.00000  Uiso   1.00
O122   O     0.55720   0.16667   0.17319   0.00000  Uiso   1.00
Zn123  Zn    0.44896   0.16667   0.25000   0.00000  Uiso   1.00
Zn124  Zn    0.55104   0.16666   0.25000   0.00000  Uiso   1.00
O125   O     0.46397   0.28954   0.18024   0.00000  Uiso   1.00
C126   C     0.41406   0.29432   0.19284   0.00000  Uiso   1.00
H127   H     0.39448   0.28717   0.23552   0.00000  Uiso   1.00
H128   H     0.40132   0.27178   0.16846   0.00000  Uiso   1.00
H129   H     0.40513   0.32625   0.18279   0.00000  Uiso   1.00
O130   O     0.60089   0.22355   0.31066   0.00000  Uiso   1.00
C131   C     0.59915   0.22274   0.36446   0.00000  Uiso   1.00
H132   H     0.56484   0.23674   0.38938   0.00000  Uiso   1.00
H133   H     0.62848   0.24207   0.37012   0.00000  Uiso   1.00
H134   H     0.60018   0.19032   0.37932   0.00000  Uiso   1.00
O135   O     0.47064   0.20287   0.09230   0.00000  Uiso   1.00
C136   C     0.42878   0.17785   0.10227   0.00000  Uiso   1.00
H137   H     0.40047   0.19145   0.13679   0.00000  Uiso   1.00
H138   H     0.43421   0.14475   0.11185   0.00000  Uiso   1.00
H139   H     0.41480   0.17819   0.06836   0.00000  Uiso   1.00
O140   O     0.41304   0.27440   0.47908   0.00000  Uiso   1.00
C141   C     0.43779   0.30520   0.44225   0.00000  Uiso   1.00
H142   H     0.43702   0.29809   0.40145   0.00000  Uiso   1.00
H143   H     0.47542   0.30886   0.44179   0.00000  Uiso   1.00
H144   H     0.41970   0.00233   0.45457   0.00000  Uiso   1.00
O145   O     0.53489   0.29046   0.32084   0.00000  Uiso   1.00
H146   H     0.54624   0.31054   0.34277   0.00000  Uiso   1.00
C147   C     0.83338   0.24665   0.25013   0.00000  Uiso   1.00
C148   C     0.82493   0.18497   0.48043   0.00000  Uiso   1.00
C149   C     0.82179   0.16167   0.43660   0.00000  Uiso   1.00
C150   C     0.85271   0.16887   0.01016   0.00000  Uiso   1.00
C151   C     0.88645   0.13685   0.48771   0.00000  Uiso   1.00
C152   C     0.88492   0.11547   0.44248   0.00000  Uiso   1.00
C153   C     0.85042   0.12567   0.41976   0.00000  Uiso   1.00
C154   C     0.84417   0.18002   0.06382   0.00000  Uiso   1.00
C155   C     0.91368   0.13925   0.06391   0.00000  Uiso   1.00
C156   C     0.79293   0.17650   0.40771   0.00000  Uiso   1.00
C157   C     0.85167   0.31234   0.28569   0.00000  Uiso   1.00
C158   C     0.80715   0.16681   0.35152   0.00000  Uiso   1.00
C159   C     0.85164   0.02226   0.28511   0.00000  Uiso   1.00
C160   C     0.83259   0.04279   0.25066   0.00000  Uiso   1.00
C161   C     0.81315   0.02156   0.21668   0.00000  Uiso   1.00
C162   C     0.81265   0.31170   0.21676   0.00000  Uiso   1.00
C163   C     0.83310   0.29092   0.25048   0.00000  Uiso   1.00
C164   C     0.98431   0.13768   0.22116   0.00000  Uiso   1.00
C165   C     0.69861   0.13725   0.22194   0.00000  Uiso   1.00
C166   C     0.68241   0.19542   0.27927   0.00000  Uiso   1.00
C167   C     0.96700   0.19478   0.28077   0.00000  Uiso   1.00
C168   C     0.83315   0.08677   0.25006   0.00000  Uiso   1.00
C169   C     0.85949   0.16746   0.14827   0.00000  Uiso   1.00
C170   C     0.91876   0.12443   0.01311   0.00000  Uiso   1.00
C171   C     0.87465   0.16457   0.09051   0.00000  Uiso   1.00
C172   C     0.76441   0.21198   0.42488   0.00000  Uiso   1.00
C173   C     0.77048   0.23698   0.46539   0.00000  Uiso   1.00
C174   C     0.80178   0.22423   0.49174   0.00000  Uiso   1.00
H175   H     0.93691   0.12713   0.08453   0.00000  Uiso   1.00
H176   H     0.86572   0.03991   0.31175   0.00000  Uiso   1.00
H177   H     0.79978   0.03853   0.18926   0.00000  Uiso   1.00
H178   H     0.97293   0.11465   0.19774   0.00000  Uiso   1.00
H179   H     0.72314   0.11368   0.19942   0.00000  Uiso   1.00
H180   H     0.69472   0.21872   0.30153   0.00000  Uiso   1.00
H181   H     0.90853   0.08935   0.42652   0.00000  Uiso   1.00
H182   H     0.94600   0.10132   0.49513   0.00000  Uiso   1.00
H183   H     0.74250   0.22346   0.40226   0.00000  Uiso   1.00
H184   H     0.80813   0.24571   0.02031   0.00000  Uiso   1.00
H185   H     0.84775   0.10624   0.38728   0.00000  Uiso   1.00
N186   N     0.71426   0.16668   0.25002   0.00000  Uiso   1.00
N187   N     0.95239   0.16665   0.25001   0.00000  Uiso   1.00
O188   O     0.79512   0.22775   0.25001   0.00000  Uiso   1.00
O189   O     0.87157   0.22774   0.25001   0.00000  Uiso   1.00
O190   O     0.77613   0.16666   0.32681   0.00000  Uiso   1.00
O191   O     0.85258   0.16665   0.32681   0.00000  Uiso   1.00
O192   O     0.79510   0.10559   0.25000   0.00000  Uiso   1.00
O193   O     0.87154   0.10558   0.25000   0.00000  Uiso   1.00
O194   O     0.81409   0.16668   0.17319   0.00000  Uiso   1.00
O195   O     0.89053   0.16667   0.17319   0.00000  Uiso   1.00
Zn196  Zn    0.78229   0.16667   0.25000   0.00000  Uiso   1.00
Zn197  Zn    0.88438   0.16666   0.25000   0.00000  Uiso   1.00
O198   O     0.79731   0.28954   0.18024   0.00000  Uiso   1.00
C199   C     0.74740   0.29432   0.19284   0.00000  Uiso   1.00
H200   H     0.72781   0.28717   0.23552   0.00000  Uiso   1.00
H201   H     0.73465   0.27178   0.16846   0.00000  Uiso   1.00
H202   H     0.73847   0.32625   0.18279   0.00000  Uiso   1.00
O203   O     0.93422   0.22355   0.31066   0.00000  Uiso   1.00
C204   C     0.93248   0.22274   0.36446   0.00000  Uiso   1.00
H205   H     0.89817   0.23674   0.38938   0.00000  Uiso   1.00
H206   H     0.96182   0.24207   0.37012   0.00000  Uiso   1.00
H207   H     0.93351   0.19032   0.37932   0.00000  Uiso   1.00
O208   O     0.80397   0.20287   0.09230   0.00000  Uiso   1.00
C209   C     0.76211   0.17785   0.10227   0.00000  Uiso   1.00
H210   H     0.73381   0.19145   0.13679   0.00000  Uiso   1.00
H211   H     0.76754   0.14475   0.11185   0.00000  Uiso   1.00
H212   H     0.74814   0.17819   0.06836   0.00000  Uiso   1.00
O213   O     0.74637   0.27440   0.47908   0.00000  Uiso   1.00
C214   C     0.77112   0.30520   0.44225   0.00000  Uiso   1.00
H215   H     0.77035   0.29809   0.40145   0.00000  Uiso   1.00
H216   H     0.80875   0.30886   0.44179   0.00000  Uiso   1.00
H217   H     0.75303   0.00233   0.45457   0.00000  Uiso   1.00
O218   O     0.86822   0.29046   0.32084   0.00000  Uiso   1.00
H219   H     0.87957   0.31054   0.34277   0.00000  Uiso   1.00
C220   C     0.16672   0.57998   0.25013   0.00000  Uiso   1.00
C221   C     0.15827   0.51830   0.48043   0.00000  Uiso   1.00
C222   C     0.15512   0.49500   0.43660   0.00000  Uiso   1.00
C223   C     0.18604   0.50221   0.01016   0.00000  Uiso   1.00
C224   C     0.21978   0.47019   0.48771   0.00000  Uiso   1.00
C225   C     0.21825   0.44881   0.44248   0.00000  Uiso   1.00
C226   C     0.18375   0.45900   0.41976   0.00000  Uiso   1.00
C227   C     0.17750   0.51335   0.06382   0.00000  Uiso   1.00
C228   C     0.24701   0.47258   0.06391   0.00000  Uiso   1.00
C229   C     0.12626   0.50983   0.40771   0.00000  Uiso   1.00
C230   C     0.18501   0.64567   0.28569   0.00000  Uiso   1.00
C231   C     0.14048   0.50014   0.35152   0.00000  Uiso   1.00
C232   C     0.18498   0.35559   0.28511   0.00000  Uiso   1.00
C233   C     0.16593   0.37612   0.25066   0.00000  Uiso   1.00
C234   C     0.14649   0.35489   0.21668   0.00000  Uiso   1.00
C235   C     0.14599   0.64504   0.21676   0.00000  Uiso   1.00
C236   C     0.16643   0.62425   0.25048   0.00000  Uiso   1.00
C237   C     0.31764   0.47101   0.22116   0.00000  Uiso   1.00
C238   C     0.03195   0.47058   0.22194   0.00000  Uiso   1.00
C239   C     0.01574   0.52875   0.27927   0.00000  Uiso   1.00
C240   C     0.30033   0.52811   0.28077   0.00000  Uiso   1.00
C241   C     0.16648   0.42010   0.25006   0.00000  Uiso   1.00
C242   C     0.19282   0.50080   0.14827   0.00000  Uiso   1.00
C243   C     0.25209   0.45776   0.01311   0.00000  Uiso   1.00
C244   C     0.20799   0.49790   0.09051   0.00000  Uiso   1.00
C245   C     0.09774   0.54531   0.42488   0.00000  Uiso   1.00
C246   C     0.10381   0.57032   0.46539   0.00000  Uiso   1.00
C247   C     0.13512   0.55756   0.49174   0.00000  Uiso   1.00
H248   H     0.27025   0.46046   0.08453   0.00000  Uiso   1.00
H249   H     0.19906   0.37324   0.31175   0.00000  Uiso   1.00
H250   H     0.13312   0.37186   0.18926   0.00000  Uiso   1.00
H251   H     0.30626   0.44798   0.19774   0.00000  Uiso   1.00
H252   H     0.05647   0.44701   0.19942   0.00000  Uiso   1.00
H253   H     0.02806   0.55205   0.30153   0.00000  Uiso   1.00
H254   H     0.24187   0.42268   0.42652   0.00000  Uiso   1.00
H255   H     0.27933   0.43465   0.49513   0.00000  Uiso   1.00
H256   H     0.07583   0.55679   0.40226   0.00000  Uiso   1.00
H257   H     0.14146   0.57904   0.02031   0.00000  Uiso   1.00
H258   H     0.18108   0.43958   0.38728   0.00000  Uiso   1.00
N259   N     0.04760   0.50001   0.25002   0.00000  Uiso   1.00
N260   N     0.28573   0.49998   0.25001   0.00000  Uiso   1.00
O261   O     0.12846   0.56108   0.25001   0.00000  Uiso   1.00
O262   O     0.20490   0.56107   0.25001   0.00000  Uiso   1.00
O263   O     0.10947   0.50000   0.32681   0.00000  Uiso   1.00
O264   O     0.18591   0.49999   0.32681   0.00000  Uiso   1.00
O265   O     0.12843   0.43893   0.25000   0.00000  Uiso   1.00
O266   O     0.20488   0.43892   0.25000   0.00000  Uiso   1.00
O267   O     0.14742   0.50001   0.17319   0.00000  Uiso   1.00
O268   O     0.22387   0.50000   0.17319   0.00000  Uiso   1.00
Zn269  Zn    0.11562   0.50001   0.25000   0.00000  Uiso   1.00
Zn270  Zn    0.21771   0.49999   0.25000   0.00000  Uiso   1.00
O271   O     0.13064   0.62287   0.18024   0.00000  Uiso   1.00
C272   C     0.08073   0.62765   0.19284   0.00000  Uiso   1.00
H273   H     0.06114   0.62051   0.23552   0.00000  Uiso   1.00
H274   H     0.06798   0.60511   0.16846   0.00000  Uiso   1.00
H275   H     0.07180   0.65959   0.18279   0.00000  Uiso   1.00
O276   O     0.26756   0.55689   0.31066   0.00000  Uiso   1.00
C277   C     0.26581   0.55608   0.36446   0.00000  Uiso   1.00
H278   H     0.23150   0.57007   0.38938   0.00000  Uiso   1.00
H279   H     0.29515   0.57541   0.37012   0.00000  Uiso   1.00
H280   H     0.26685   0.52366   0.37932   0.00000  Uiso   1.00
O281   O     0.13731   0.53620   0.09230   0.00000  Uiso   1.00
C282   C     0.09545   0.51119   0.10227   0.00000  Uiso   1.00
H283   H     0.06714   0.52478   0.13679   0.00000  Uiso   1.00
H284   H     0.10087   0.47809   0.11185   0.00000  Uiso   1.00
H285   H     0.08147   0.51152   0.06836   0.00000  Uiso   1.00
O286   O     0.07970   0.60773   0.47908   0.00000  Uiso   1.00
C287   C     0.10445   0.63853   0.44225   0.00000  Uiso   1.00
H288   H     0.10369   0.63142   0.40145   0.00000  Uiso   1.00
H289   H     0.14209   0.64219   0.44179   0.00000  Uiso   1.00
H290   H     0.08637   0.33567   0.45457   0.00000  Uiso   1.00
O291   O     0.20156   0.62379   0.32084   0.00000  Uiso   1.00
H292   H     0.21290   0.64387   0.34277   0.00000  Uiso   1.00
C293   C     0.50005   0.57998   0.25013   0.00000  Uiso   1.00
C294   C     0.49160   0.51830   0.48043   0.00000  Uiso   1.00
C295   C     0.48846   0.49500   0.43660   0.00000  Uiso   1.00
C296   C     0.51938   0.50221   0.01016   0.00000  Uiso   1.00
C297   C     0.55312   0.47019   0.48771   0.00000  Uiso   1.00
C298   C     0.55158   0.44881   0.44248   0.00000  Uiso   1.00
C299   C     0.51708   0.45900   0.41976   0.00000  Uiso   1.00
C300   C     0.51084   0.51335   0.06382   0.00000  Uiso   1.00
C301   C     0.58035   0.47258   0.06391   0.00000  Uiso   1.00
C302   C     0.45959   0.50983   0.40771   0.00000  Uiso   1.00
C303   C     0.51834   0.64567   0.28569   0.00000  Uiso   1.00
C304   C     0.47382   0.50014   0.35152   0.00000  Uiso   1.00
C305   C     0.51831   0.35559   0.28511   0.00000  Uiso   1.00
C306   C     0.49926   0.37612   0.25066   0.00000  Uiso   1.00
C307   C     0.47982   0.35489   0.21668   0.00000  Uiso   1.00
C308   C     0.47932   0.64504   0.21676   0.00000  Uiso   1.00
C309   C     0.49977   0.62425   0.25048   0.00000  Uiso   1.00
C310   C     0.65097   0.47101   0.22116   0.00000  Uiso   1.00
C311   C     0.36528   0.47058   0.22194   0.00000  Uiso   1.00
C312   C     0.34907   0.52875   0.27927   0.00000  Uiso   1.00
C313   C     0.63367   0.52811   0.28077   0.00000  Uiso   1.00
C314   C     0.49982   0.42010   0.25006   0.00000  Uiso   1.00
C315   C     0.52616   0.50080   0.14827   0.00000  Uiso   1.00
C316   C     0.58543   0.45776   0.01311   0.00000  Uiso   1.00
C317   C     0.54132   0.49790   0.09051   0.00000  Uiso   1.00
C318   C     0.43107   0.54531   0.42488   0.00000  Uiso   1.00
C319   C     0.43715   0.57032   0.46539   0.00000  Uiso   1.00
C320   C     0.46845   0.55756   0.49174   0.00000  Uiso   1.00
H321   H     0.60358   0.46046   0.08453   0.00000  Uiso   1.00
H322   H     0.53239   0.37324   0.31175   0.00000  Uiso   1.00
H323   H     0.46645   0.37186   0.18926   0.00000  Uiso   1.00
H324   H     0.63959   0.44798   0.19774   0.00000  Uiso   1.00
H325   H     0.38981   0.44701   0.19942   0.00000  Uiso   1.00
H326   H     0.36139   0.55205   0.30153   0.00000  Uiso   1.00
H327   H     0.57520   0.42268   0.42652   0.00000  Uiso   1.00
H328   H     0.61266   0.43465   0.49513   0.00000  Uiso   1.00
H329   H     0.40917   0.55679   0.40226   0.00000  Uiso   1.00
H330   H     0.47479   0.57904   0.02031   0.00000  Uiso   1.00
H331   H     0.51441   0.43958   0.38728   0.00000  Uiso   1.00
N332   N     0.38093   0.50001   0.25002   0.00000  Uiso   1.00
N333   N     0.61906   0.49998   0.25001   0.00000  Uiso   1.00
O334   O     0.46179   0.56108   0.25001   0.00000  Uiso   1.00
O335   O     0.53823   0.56107   0.25001   0.00000  Uiso   1.00
O336   O     0.44280   0.50000   0.32681   0.00000  Uiso   1.00
O337   O     0.51924   0.49999   0.32681   0.00000  Uiso   1.00
O338   O     0.46177   0.43893   0.25000   0.00000  Uiso   1.00
O339   O     0.53821   0.43892   0.25000   0.00000  Uiso   1.00
O340   O     0.48076   0.50001   0.17319   0.00000  Uiso   1.00
O341   O     0.55720   0.50000   0.17319   0.00000  Uiso   1.00
Zn342  Zn    0.44896   0.50001   0.25000   0.00000  Uiso   1.00
Zn343  Zn    0.55104   0.49999   0.25000   0.00000  Uiso   1.00
O344   O     0.46397   0.62287   0.18024   0.00000  Uiso   1.00
C345   C     0.41406   0.62765   0.19284   0.00000  Uiso   1.00
H346   H     0.39448   0.62051   0.23552   0.00000  Uiso   1.00
H347   H     0.40132   0.60511   0.16846   0.00000  Uiso   1.00
H348   H     0.40513   0.65959   0.18279   0.00000  Uiso   1.00
O349   O     0.60089   0.55689   0.31066   0.00000  Uiso   1.00
C350   C     0.59915   0.55608   0.36446   0.00000  Uiso   1.00
H351   H     0.56484   0.57007   0.38938   0.00000  Uiso   1.00
H352   H     0.62848   0.57541   0.37012   0.00000  Uiso   1.00
H353   H     0.60018   0.52366   0.37932   0.00000  Uiso   1.00
O354   O     0.47064   0.53620   0.09230   0.00000  Uiso   1.00
C355   C     0.42878   0.51119   0.10227   0.00000  Uiso   1.00
H356   H     0.40047   0.52478   0.13679   0.00000  Uiso   1.00
H357   H     0.43421   0.47809   0.11185   0.00000  Uiso   1.00
H358   H     0.41480   0.51152   0.06836   0.00000  Uiso   1.00
O359   O     0.41304   0.60773   0.47908   0.00000  Uiso   1.00
C360   C     0.43779   0.63853   0.44225   0.00000  Uiso   1.00
H361   H     0.43702   0.63142   0.40145   0.00000  Uiso   1.00
H362   H     0.47542   0.64219   0.44179   0.00000  Uiso   1.00
H363   H     0.41970   0.33567   0.45457   0.00000  Uiso   1.00
O364   O     0.53489   0.62379   0.32084   0.00000  Uiso   1.00
H365   H     0.54624   0.64387   0.34277   0.00000  Uiso   1.00
C366   C     0.83338   0.57998   0.25013   0.00000  Uiso   1.00
C367   C     0.82493   0.51830   0.48043   0.00000  Uiso   1.00
C368   C     0.82179   0.49500   0.43660   0.00000  Uiso   1.00
C369   C     0.85271   0.50221   0.01016   0.00000  Uiso   1.00
C370   C     0.88645   0.47019   0.48771   0.00000  Uiso   1.00
C371   C     0.88492   0.44881   0.44248   0.00000  Uiso   1.00
C372   C     0.85042   0.45900   0.41976   0.00000  Uiso   1.00
C373   C     0.84417   0.51335   0.06382   0.00000  Uiso   1.00
C374   C     0.91368   0.47258   0.06391   0.00000  Uiso   1.00
C375   C     0.79293   0.50983   0.40771   0.00000  Uiso   1.00
C376   C     0.85167   0.64567   0.28569   0.00000  Uiso   1.00
C377   C     0.80715   0.50014   0.35152   0.00000  Uiso   1.00
C378   C     0.85164   0.35559   0.28511   0.00000  Uiso   1.00
C379   C     0.83259   0.37612   0.25066   0.00000  Uiso   1.00
C380   C     0.81315   0.35489   0.21668   0.00000  Uiso   1.00
C381   C     0.81265   0.64504   0.21676   0.00000  Uiso   1.00
C382   C     0.83310   0.62425   0.25048   0.00000  Uiso   1.00
C383   C     0.98431   0.47101   0.22116   0.00000  Uiso   1.00
C384   C     0.69861   0.47058   0.22194   0.00000  Uiso   1.00
C385   C     0.68241   0.52875   0.27927   0.00000  Uiso   1.00
C386   C     0.96700   0.52811   0.28077   0.00000  Uiso   1.00
C387   C     0.83315   0.42010   0.25006   0.00000  Uiso   1.00
C388   C     0.85949   0.50080   0.14827   0.00000  Uiso   1.00
C389   C     0.91876   0.45776   0.01311   0.00000  Uiso   1.00
C390   C     0.87465   0.49790   0.09051   0.00000  Uiso   1.00
C391   C     0.76441   0.54531   0.42488   0.00000  Uiso   1.00
C392   C     0.77048   0.57032   0.46539   0.00000  Uiso   1.00
C393   C     0.80178   0.55756   0.49174   0.00000  Uiso   1.00
H394   H     0.93691   0.46046   0.08453   0.00000  Uiso   1.00
H395   H     0.86572   0.37324   0.31175   0.00000  Uiso   1.00
H396   H     0.79978   0.37186   0.18926   0.00000  Uiso   1.00
H397   H     0.97293   0.44798   0.19774   0.00000  Uiso   1.00
H398   H     0.72314   0.44701   0.19942   0.00000  Uiso   1.00
H399   H     0.69472   0.55205   0.30153   0.00000  Uiso   1.00
H400   H     0.90853   0.42268   0.42652   0.00000  Uiso   1.00
H401   H     0.94600   0.43465   0.49513   0.00000  Uiso   1.00
H402   H     0.74250   0.55679   0.40226   0.00000  Uiso   1.00
H403   H     0.80813   0.57904   0.02031   0.00000  Uiso   1.00
H404   H     0.84775   0.43958   0.38728   0.00000  Uiso   1.00
N405   N     0.71426   0.50001   0.25002   0.00000  Uiso   1.00
N406   N     0.95239   0.49998   0.25001   0.00000  Uiso   1.00
O407   O     0.79512   0.56108   0.25001   0.00000  Uiso   1.00
O408   O     0.87157   0.56107   0.25001   0.00000  Uiso   1.00
O409   O     0.77613   0.50000   0.32681   0.00000  Uiso   1.00
O410   O     0.85258   0.49999   0.32681   0.00000  Uiso   1.00
O411   O     0.79510   0.43893   0.25000   0.00000  Uiso   1.00
O412   O     0.87154   0.43892   0.25000   0.00000  Uiso   1.00
O413   O     0.81409   0.50001   0.17319   0.00000  Uiso   1.00
O414   O     0.89053   0.50000   0.17319   0.00000  Uiso   1.00
Zn415  Zn    0.78229   0.50001   0.25000   0.00000  Uiso   1.00
Zn416  Zn    0.88438   0.49999   0.25000   0.00000  Uiso   1.00
O417   O     0.79731   0.62287   0.18024   0.00000  Uiso   1.00
C418   C     0.74740   0.62765   0.19284   0.00000  Uiso   1.00
H419   H     0.72781   0.62051   0.23552   0.00000  Uiso   1.00
H420   H     0.73465   0.60511   0.16846   0.00000  Uiso   1.00
H421   H     0.73847   0.65959   0.18279   0.00000  Uiso   1.00
O422   O     0.93422   0.55689   0.31066   0.00000  Uiso   1.00
C423   C     0.93248   0.55608   0.36446   0.00000  Uiso   1.00
H424   H     0.89817   0.57007   0.38938   0.00000  Uiso   1.00
H425   H     0.96182   0.57541   0.37012   0.00000  Uiso   1.00
H426   H     0.93351   0.52366   0.37932   0.00000  Uiso   1.00
O427   O     0.80397   0.53620   0.09230   0.00000  Uiso   1.00
C428   C     0.76211   0.51119   0.10227   0.00000  Uiso   1.00
H429   H     0.73381   0.52478   0.13679   0.00000  Uiso   1.00
H430   H     0.76754   0.47809   0.11185   0.00000  Uiso   1.00
H431   H     0.74814   0.51152   0.06836   0.00000  Uiso   1.00
O432   O     0.74637   0.60773   0.47908   0.00000  Uiso   1.00
C433   C     0.77112   0.63853   0.44225   0.00000  Uiso   1.00
H434   H     0.77035   0.63142   0.40145   0.00000  Uiso   1.00
H435   H     0.80875   0.64219   0.44179   0.00000  Uiso   1.00
H436   H     0.75303   0.33567   0.45457   0.00000  Uiso   1.00
O437   O     0.86822   0.62379   0.32084   0.00000  Uiso   1.00
H438   H     0.87957   0.64387   0.34277   0.00000  Uiso   1.00
C439   C     0.16672   0.91332   0.25013   0.00000  Uiso   1.00
C440   C     0.15827   0.85164   0.48043   0.00000  Uiso   1.00
C441   C     0.15512   0.82833   0.43660   0.00000  Uiso   1.00
C442   C     0.18604   0.83554   0.01016   0.00000  Uiso   1.00
C443   C     0.21978   0.80352   0.48771   0.00000  Uiso   1.00
C444   C     0.21825   0.78214   0.44248   0.00000  Uiso   1.00
C445   C     0.18375   0.79234   0.41976   0.00000  Uiso   1.00
C446   C     0.17750   0.84669   0.06382   0.00000  Uiso   1.00
C447   C     0.24701   0.80592   0.06391   0.00000  Uiso   1.00
C448   C     0.12626   0.84317   0.40771   0.00000  Uiso   1.00
C449   C     0.18501   0.97900   0.28569   0.00000  Uiso   1.00
C450   C     0.14048   0.83347   0.35152   0.00000  Uiso   1.00
C451   C     0.18498   0.68893   0.28511   0.00000  Uiso   1.00
C452   C     0.16593   0.70946   0.25066   0.00000  Uiso   1.00
C453   C     0.14649   0.68823   0.21668   0.00000  Uiso   1.00
C454   C     0.14599   0.97837   0.21676   0.00000  Uiso   1.00
C455   C     0.16643   0.95758   0.25048   0.00000  Uiso   1.00
C456   C     0.31764   0.80435   0.22116   0.00000  Uiso   1.00
C457   C     0.03195   0.80391   0.22194   0.00000  Uiso   1.00
C458   C     0.01574   0.86208   0.27927   0.00000  Uiso   1.00
C459   C     0.30033   0.86144   0.28077   0.00000  Uiso   1.00
C460   C     0.16648   0.75344   0.25006   0.00000  Uiso   1.00
C461   C     0.19282   0.83413   0.14827   0.00000  Uiso   1.00
C462   C     0.25209   0.79110   0.01311   0.00000  Uiso   1.00
C463   C     0.20799   0.83123   0.09051   0.00000  Uiso   1.00
C464   C     0.09774   0.87865   0.42488   0.00000  Uiso   1.00
C465   C     0.10381   0.90365   0.46539   0.00000  Uiso   1.00
C466   C     0.13512   0.89090   0.49174   0.00000  Uiso   1.00
H467   H     0.27025   0.79379   0.08453   0.00000  Uiso   1.00
H468   H     0.19906   0.70658   0.31175   0.00000  Uiso   1.00
H469   H     0.13312   0.70520   0.18926   0.00000  Uiso   1.00
H470   H     0.30626   0.78132   0.19774   0.00000  Uiso   1.00
H471   H     0.05647   0.78034   0.19942   0.00000  Uiso   1.00
H472   H     0.02806   0.88539   0.30153   0.00000  Uiso   1.00
H473   H     0.24187   0.75601   0.42652   0.00000  Uiso   1.00
H474   H     0.27933   0.76798   0.49513   0.00000  Uiso   1.00
H475   H     0.07583   0.89013   0.40226   0.00000  Uiso   1.00
H476   H     0.14146   0.91237   0.02031   0.00000  Uiso   1.00
H477   H     0.18108   0.77291   0.38728   0.00000  Uiso   1.00
N478   N     0.04760   0.83334   0.25002   0.00000  Uiso   1.00
N479   N     0.28573   0.83331   0.25001   0.00000  Uiso   1.00
O480   O     0.12846   0.89442   0.25001   0.00000  Uiso   1.00
O481   O     0.20490   0.89441   0.25001   0.00000  Uiso   1.00
O482   O     0.10947   0.83333   0.32681   0.00000  Uiso   1.00
O483   O     0.18591   0.83332   0.32681   0.00000  Uiso   1.00
O484   O     0.12843   0.77226   0.25000   0.00000  Uiso   1.00
O485   O     0.20488   0.77225   0.25000   0.00000  Uiso   1.00
O486   O     0.14742   0.83335   0.17319   0.00000  Uiso   1.00
O487   O     0.22387   0.83334   0.17319   0.00000  Uiso   1.00
Zn488  Zn    0.11562   0.83334   0.25000   0.00000  Uiso   1.00
Zn489  Zn    0.21771   0.83333   0.25000   0.00000  Uiso   1.00
O490   O     0.13064   0.95621   0.18024   0.00000  Uiso   1.00
C491   C     0.08073   0.96099   0.19284   0.00000  Uiso   1.00
H492   H     0.06114   0.95384   0.23552   0.00000  Uiso   1.00
H493   H     0.06798   0.93844   0.16846   0.00000  Uiso   1.00
H494   H     0.07180   0.99292   0.18279   0.00000  Uiso   1.00
O495   O     0.26756   0.89022   0.31066   0.00000  Uiso   1.00
C496   C     0.26581   0.88941   0.36446   0.00000  Uiso   1.00
H497   H     0.23150   0.90340   0.38938   0.00000  Uiso   1.00
H498   H     0.29515   0.90874   0.37012   0.00000  Uiso   1.00
H499   H     0.26685   0.85699   0.37932   0.00000  Uiso   1.00
O500   O     0.13731   0.86954   0.09230   0.00000  Uiso   1.00
C501   C     0.09545   0.84452   0.10227   0.00000  Uiso   1.00
H502   H     0.06714   0.85812   0.13679   0.00000  Uiso   1.00
H503   H     0.10087   0.81142   0.11185   0.00000  Uiso   1.00
H504   H     0.08147   0.84485   0.06836   0.00000  Uiso   1.00
O505   O     0.07970   0.94106   0.47908   0.00000  Uiso   1.00
C506   C     0.10445   0.97186   0.44225   0.00000  Uiso   1.00
H507   H     0.10369   0.96475   0.40145   0.00000  Uiso   1.00
H508   H     0.14209   0.97553   0.44179   0.00000  Uiso   1.00
H509   H     0.08637   0.66900   0.45457   0.00000  Uiso   1.00
O510   O     0.20156   0.95713   0.32084   0.00000  Uiso   1.00
H511   H     0.21290   0.97720   0.34277   0.00000  Uiso   1.00
C512   C     0.50005   0.91332   0.25013   0.00000  Uiso   1.00
C513   C     0.49160   0.85164   0.48043   0.00000  Uiso   1.00
C514   C     0.48846   0.82833   0.43660   0.00000  Uiso   1.00
C515   C     0.51938   0.83554   0.01016   0.00000  Uiso   1.00
C516   C     0.55312   0.80352   0.48771   0.00000  Uiso   1.00
C517   C     0.55158   0.78214   0.44248   0.00000  Uiso   1.00
C518   C     0.51708   0.79234   0.41976   0.00000  Uiso   1.00
C519   C     0.51084   0.84669   0.06382   0.00000  Uiso   1.00
C520   C     0.58035   0.80592   0.06391   0.00000  Uiso   1.00
C521   C     0.45959   0.84317   0.40771   0.00000  Uiso   1.00
C522   C     0.51834   0.97900   0.28569   0.00000  Uiso   1.00
C523   C     0.47382   0.83347   0.35152   0.00000  Uiso   1.00
C524   C     0.51831   0.68893   0.28511   0.00000  Uiso   1.00
C525   C     0.49926   0.70946   0.25066   0.00000  Uiso   1.00
C526   C     0.47982   0.68823   0.21668   0.00000  Uiso   1.00
C527   C     0.47932   0.97837   0.21676   0.00000  Uiso   1.00
C528   C     0.49977   0.95758   0.25048   0.00000  Uiso   1.00
C529   C     0.65097   0.80435   0.22116   0.00000  Uiso   1.00
C530   C     0.36528   0.80391   0.22194   0.00000  Uiso   1.00
C531   C     0.34907   0.86208   0.27927   0.00000  Uiso   1.00
C532   C     0.63367   0.86144   0.28077   0.00000  Uiso   1.00
C533   C     0.49982   0.75344   0.25006   0.00000  Uiso   1.00
C534   C     0.52616   0.83413   0.14827   0.00000  Uiso   1.00
C535   C     0.58543   0.79110   0.01311   0.00000  Uiso   1.00
C536   C     0.54132   0.83123   0.09051   0.00000  Uiso   1.00
C537   C     0.43107   0.87865   0.42488   0.00000  Uiso   1.00
C538   C     0.43715   0.90365   0.46539   0.00000  Uiso   1.00
C539   C     0.46845   0.89090   0.49174   0.00000  Uiso   1.00
H540   H     0.60358   0.79379   0.08453   0.00000  Uiso   1.00
H541   H     0.53239   0.70658   0.31175   0.00000  Uiso   1.00
H542   H     0.46645   0.70520   0.18926   0.00000  Uiso   1.00
H543   H     0.63959   0.78132   0.19774   0.00000  Uiso   1.00
H544   H     0.38981   0.78034   0.19942   0.00000  Uiso   1.00
H545   H     0.36139   0.88539   0.30153   0.00000  Uiso   1.00
H546   H     0.57520   0.75601   0.42652   0.00000  Uiso   1.00
H547   H     0.61266   0.76798   0.49513   0.00000  Uiso   1.00
H548   H     0.40917   0.89013   0.40226   0.00000  Uiso   1.00
H549   H     0.47479   0.91237   0.02031   0.00000  Uiso   1.00
H550   H     0.51441   0.77291   0.38728   0.00000  Uiso   1.00
N551   N     0.38093   0.83334   0.25002   0.00000  Uiso   1.00
N552   N     0.61906   0.83331   0.25001   0.00000  Uiso   1.00
O553   O     0.46179   0.89442   0.25001   0.00000  Uiso   1.00
O554   O     0.53823   0.89441   0.25001   0.00000  Uiso   1.00
O555   O     0.44280   0.83333   0.32681   0.00000  Uiso   1.00
O556   O     0.51924   0.83332   0.32681   0.00000  Uiso   1.00
O557   O     0.46177   0.77226   0.25000   0.00000  Uiso   1.00
O558   O     0.53821   0.77225   0.25000   0.00000  Uiso   1.00
O559   O     0.48076   0.83335   0.17319   0.00000  Uiso   1.00
O560   O     0.55720   0.83334   0.17319   0.00000  Uiso   1.00
Zn561  Zn    0.44896   0.83334   0.25000   0.00000  Uiso   1.00
Zn562  Zn    0.55104   0.83333   0.25000   0.00000  Uiso   1.00
O563   O     0.46397   0.95621   0.18024   0.00000  Uiso   1.00
C564   C     0.41406   0.96099   0.19284   0.00000  Uiso   1.00
H565   H     0.39448   0.95384   0.23552   0.00000  Uiso   1.00
H566   H     0.40132   0.93844   0.16846   0.00000  Uiso   1.00
H567   H     0.40513   0.99292   0.18279   0.00000  Uiso   1.00
O568   O     0.60089   0.89022   0.31066   0.00000  Uiso   1.00
C569   C     0.59915   0.88941   0.36446   0.00000  Uiso   1.00
H570   H     0.56484   0.90340   0.38938   0.00000  Uiso   1.00
H571   H     0.62848   0.90874   0.37012   0.00000  Uiso   1.00
H572   H     0.60018   0.85699   0.37932   0.00000  Uiso   1.00
O573   O     0.47064   0.86954   0.09230   0.00000  Uiso   1.00
C574   C     0.42878   0.84452   0.10227   0.00000  Uiso   1.00
H575   H     0.40047   0.85812   0.13679   0.00000  Uiso   1.00
H576   H     0.43421   0.81142   0.11185   0.00000  Uiso   1.00
H577   H     0.41480   0.84485   0.06836   0.00000  Uiso   1.00
O578   O     0.41304   0.94106   0.47908   0.00000  Uiso   1.00
C579   C     0.43779   0.97186   0.44225   0.00000  Uiso   1.00
H580   H     0.43702   0.96475   0.40145   0.00000  Uiso   1.00
H581   H     0.47542   0.97553   0.44179   0.00000  Uiso   1.00
H582   H     0.41970   0.66900   0.45457   0.00000  Uiso   1.00
O583   O     0.53489   0.95713   0.32084   0.00000  Uiso   1.00
H584   H     0.54624   0.97720   0.34277   0.00000  Uiso   1.00
C585   C     0.83338   0.91332   0.25013   0.00000  Uiso   1.00
C586   C     0.82493   0.85164   0.48043   0.00000  Uiso   1.00
C587   C     0.82179   0.82833   0.43660   0.00000  Uiso   1.00
C588   C     0.85271   0.83554   0.01016   0.00000  Uiso   1.00
C589   C     0.88645   0.80352   0.48771   0.00000  Uiso   1.00
C590   C     0.88492   0.78214   0.44248   0.00000  Uiso   1.00
C591   C     0.85042   0.79234   0.41976   0.00000  Uiso   1.00
C592   C     0.84417   0.84669   0.06382   0.00000  Uiso   1.00
C593   C     0.91368   0.80592   0.06391   0.00000  Uiso   1.00
C594   C     0.79293   0.84317   0.40771   0.00000  Uiso   1.00
C595   C     0.85167   0.97900   0.28569   0.00000  Uiso   1.00
C596   C     0.80715   0.83347   0.35152   0.00000  Uiso   1.00
C597   C     0.85164   0.68893   0.28511   0.00000  Uiso   1.00
C598   C     0.83259   0.70946   0.25066   0.00000  Uiso   1.00
C599   C     0.81315   0.68823   0.21668   0.00000  Uiso   1.00
C600   C     0.81265   0.97837   0.21676   0.00000  Uiso   1.00
C601   C     0.83310   0.95758   0.25048   0.00000  Uiso   1.00
C602   C     0.98431   0.80435   0.22116   0.00000  Uiso   1.00
C603   C     0.69861   0.80391   0.22194   0.00000  Uiso   1.00
C604   C     0.68241   0.86208   0.27927   0.00000  Uiso   1.00
C605   C     0.96700   0.86144   0.28077   0.00000  Uiso   1.00
C606   C     0.83315   0.75344   0.25006   0.00000  Uiso   1.00
C607   C     0.85949   0.83413   0.14827   0.00000  Uiso   1.00
C608   C     0.91876   0.79110   0.01311   0.00000  Uiso   1.00
C609   C     0.87465   0.83123   0.09051   0.00000  Uiso   1.00
C610   C     0.76441   0.87865   0.42488   0.00000  Uiso   1.00
C611   C     0.77048   0.90365   0.46539   0.00000  Uiso   1.00
C612   C     0.80178   0.89090   0.49174   0.00000  Uiso   1.00
H613   H     0.93691   0.79379   0.08453   0.00000  Uiso   1.00
H614   H     0.86572   0.70658   0.31175   0.00000  Uiso   1.00
H615   H     0.79978   0.70520   0.18926   0.00000  Uiso   1.00
H616   H     0.97293   0.78132   0.19774   0.00000  Uiso   1.00
H617   H     0.72314   0.78034   0.19942   0.00000  Uiso   1.00
H618   H     0.69472   0.88539   0.30153   0.00000  Uiso   1.00
H619   H     0.90853   0.75601   0.42652   0.00000  Uiso   1.00
H620   H     0.94600   0.76798   0.49513   0.00000  Uiso   1.00
H621   H     0.74250   0.89013   0.40226   0.00000  Uiso   1.00
H622   H     0.80813   0.91237   0.02031   0.00000  Uiso   1.00
H623   H     0.84775   0.77291   0.38728   0.00000  Uiso   1.00
N624   N     0.71426   0.83334   0.25002   0.00000  Uiso   1.00
N625   N     0.95239   0.83331   0.25001   0.00000  Uiso   1.00
O626   O     0.79512   0.89442   0.25001   0.00000  Uiso   1.00
O627   O     0.87157   0.89441   0.25001   0.00000  Uiso   1.00
O628   O     0.77613   0.83333   0.32681   0.00000  Uiso   1.00
O629   O     0.85258   0.83332   0.32681   0.00000  Uiso   1.00
O630   O     0.79510   0.77226   0.25000   0.00000  Uiso   1.00
O631   O     0.87154   0.77225   0.25000   0.00000  Uiso   1.00
O632   O     0.81409   0.83335   0.17319   0.00000  Uiso   1.00
O633   O     0.89053   0.83334   0.17319   0.00000  Uiso   1.00
Zn634  Zn    0.78229   0.83334   0.25000   0.00000  Uiso   1.00
Zn635  Zn    0.88438   0.83333   0.25000   0.00000  Uiso   1.00
O636   O     0.79731   0.95621   0.18024   0.00000  Uiso   1.00
C637   C     0.74740   0.96099   0.19284   0.00000  Uiso   1.00
H638   H     0.72781   0.95384   0.23552   0.00000  Uiso   1.00
H639   H     0.73465   0.93844   0.16846   0.00000  Uiso   1.00
H640   H     0.73847   0.99292   0.18279   0.00000  Uiso   1.00
O641   O     0.93422   0.89022   0.31066   0.00000  Uiso   1.00
C642   C     0.93248   0.88941   0.36446   0.00000  Uiso   1.00
H643   H     0.89817   0.90340   0.38938   0.00000  Uiso   1.00
H644   H     0.96182   0.90874   0.37012   0.00000  Uiso   1.00
H645   H     0.93351   0.85699   0.37932   0.00000  Uiso   1.00
O646   O     0.80397   0.86954   0.09230   0.00000  Uiso   1.00
C647   C     0.76211   0.84452   0.10227   0.00000  Uiso   1.00
H648   H     0.73381   0.85812   0.13679   0.00000  Uiso   1.00
H649   H     0.76754   0.81142   0.11185   0.00000  Uiso   1.00
H650   H     0.74814   0.84485   0.06836   0.00000  Uiso   1.00
O651   O     0.74637   0.94106   0.47908   0.00000  Uiso   1.00
C652   C     0.77112   0.97186   0.44225   0.00000  Uiso   1.00
H653   H     0.77035   0.96475   0.40145   0.00000  Uiso   1.00
H654   H     0.80875   0.97553   0.44179   0.00000  Uiso   1.00
H655   H     0.75303   0.66900   0.45457   0.00000  Uiso   1.00
O656   O     0.86822   0.95713   0.32084   0.00000  Uiso   1.00
H657   H     0.87957   0.97720   0.34277   0.00000  Uiso   1.00
C658   C     0.16672   0.24665   0.75013   0.00000  Uiso   1.00
C659   C     0.15827   0.18497   0.98043   0.00000  Uiso   1.00
C660   C     0.15512   0.16167   0.93660   0.00000  Uiso   1.00
C661   C     0.18604   0.16887   0.51016   0.00000  Uiso   1.00
C662   C     0.21978   0.13685   0.98771   0.00000  Uiso   1.00
C663   C     0.21825   0.11547   0.94248   0.00000  Uiso   1.00
C664   C     0.18375   0.12567   0.91976   0.00000  Uiso   1.00
C665   C     0.17750   0.18002   0.56382   0.00000  Uiso   1.00
C666   C     0.24701   0.13925   0.56391   0.00000  Uiso   1.00
C667   C     0.12626   0.17650   0.90771   0.00000  Uiso   1.00
C668   C     0.18501   0.31234   0.78569   0.00000  Uiso   1.00
C669   C     0.14048   0.16681   0.85152   0.00000  Uiso   1.00
C670   C     0.18498   0.02226   0.78511   0.00000  Uiso   1.00
C671   C     0.16593   0.04279   0.75066   0.00000  Uiso   1.00
C672   C     0.14649   0.02156   0.71668   0.00000  Uiso   1.00
C673   C     0.14599   0.31170   0.71676   0.00000  Uiso   1.00
C674   C     0.16643   0.29092   0.75048   0.00000  Uiso   1.00
C675   C     0.31764   0.13768   0.72116   0.00000  Uiso   1.00
C676   C     0.03195   0.13725   0.72194   0.00000  Uiso   1.00
C677   C     0.01574   0.19542   0.77927   0.00000  Uiso   1.00
C678   C     0.30033   0.19478   0.78077   0.00000  Uiso   1.00
C679   C     0.16648   0.08677   0.75006   0.00000  Uiso   1.00
C680   C     0.19282   0.16746   0.64827   0.00000  Uiso   1.00
C681   C     0.25209   0.12443   0.51311   0.00000  Uiso   1.00
C682   C     0.20799   0.16457   0.59051   0.00000  Uiso   1.00
C683   C     0.09774   0.21198   0.92488   0.00000  Uiso   1.00
C684   C     0.10381   0.23698   0.96539   0.00000  Uiso   1.00
C685   C     0.13512   0.22423   0.99174   0.00000  Uiso   1.00
H686   H     0.27025   0.12713   0.58453   0.00000  Uiso   1.00
H687   H     0.19906   0.03991   0.81175   0.00000  Uiso   1.00
H688   H     0.13312   0.03853   0.68926   0.00000  Uiso   1.00
H689   H     0.30626   0.11465   0.69774   0.00000  Uiso   1.00
H690   H     0.05647   0.11368   0.69942   0.00000  Uiso   1.00
H691   H     0.02806   0.21872   0.80153   0.00000  Uiso   1.00
H692   H     0.24187   0.08935   0.92652   0.00000  Uiso   1.00
H693   H     0.27933   0.10132   0.99513   0.00000  Uiso   1.00
H694   H     0.07583   0.22346   0.90226   0.00000  Uiso   1.00
H695   H     0.14146   0.24571   0.52031   0.00000  Uiso   1.00
H696   H     0.18108   0.10624   0.88728   0.00000  Uiso   1.00
N697   N     0.04760   0.16668   0.75002   0.00000  Uiso   1.00
N698   N     0.28573   0.16665   0.75001   0.00000  Uiso   1.00
O699   O     0.12846   0.22775   0.75001   0.00000  Uiso   1.00
O700   O     0.20490   0.22774   0.75001   0.00000  Uiso   1.00
O701   O     0.10947   0.16666   0.82681   0.00000  Uiso   1.00
O702   O     0.18591   0.16665   0.82681   0.00000  Uiso   1.00
O703   O     0.12843   0.10559   0.75000   0.00000  Uiso   1.00
O704   O     0.20488   0.10558   0.75000   0.00000  Uiso   1.00
O705   O     0.14742   0.16668   0.67319   0.00000  Uiso   1.00
O706   O     0.22387   0.16667   0.67319   0.00000  Uiso   1.00
Zn707  Zn    0.11562   0.16667   0.75000   0.00000  Uiso   1.00
Zn708  Zn    0.21771   0.16666   0.75000   0.00000  Uiso   1.00
O709   O     0.13064   0.28954   0.68024   0.00000  Uiso   1.00
C710   C     0.08073   0.29432   0.69284   0.00000  Uiso   1.00
H711   H     0.06114   0.28717   0.73552   0.00000  Uiso   1.00
H712   H     0.06798   0.27178   0.66846   0.00000  Uiso   1.00
H713   H     0.07180   0.32625   0.68279   0.00000  Uiso   1.00
O714   O     0.26756   0.22355   0.81066   0.00000  Uiso   1.00
C715   C     0.26581   0.22274   0.86446   0.00000  Uiso   1.00
H716   H     0.23150   0.23674   0.88938   0.00000  Uiso   1.00
H717   H     0.29515   0.24207   0.87012   0.00000  Uiso   1.00
H718   H     0.26685   0.19032   0.87932   0.00000  Uiso   1.00
O719   O     0.13731   0.20287   0.59230   0.00000  Uiso   1.00
C720   C     0.09545   0.17785   0.60227   0.00000  Uiso   1.00
H721   H     0.06714   0.19145   0.63679   0.00000  Uiso   1.00
H722   H     0.10087   0.14475   0.61185   0.00000  Uiso   1.00
H723   H     0.08147   0.17819   0.56836   0.00000  Uiso   1.00
O724   O     0.07970   0.27440   0.97908   0.00000  Uiso   1.00
C725   C     0.10445   0.30520   0.94225   0.00000  Uiso   1.00
H726   H     0.10369   0.29809   0.90145   0.00000  Uiso   1.00
H727   H     0.14209   0.30886   0.94179   0.00000  Uiso   1.00
H728   H     0.08637   0.00233   0.95457   0.00000  Uiso   1.00
O729   O     0.20156   0.29046   0.82084   0.00000  Uiso   1.00
H730   H     0.21290   0.31054   0.84277   0.00000  Uiso   1.00
C731   C     0.50005   0.24665   0.75013   0.00000  Uiso   1.00
C732   C     0.49160   0.18497   0.98043   0.00000  Uiso   1.00
C733   C     0.48846   0.16167   0.93660   0.00000  Uiso   1.00
C734   C     0.51938   0.16887   0.51016   0.00000  Uiso   1.00
C735   C     0.55312   0.13685   0.98771   0.00000  Uiso   1.00
C736   C     0.55158   0.11547   0.94248   0.00000  Uiso   1.00
C737   C     0.51708   0.12567   0.91976   0.00000  Uiso   1.00
C738   C     0.51084   0.18002   0.56382   0.00000  Uiso   1.00
C739   C     0.58035   0.13925   0.56391   0.00000  Uiso   1.00
C740   C     0.45959   0.17650   0.90771   0.00000  Uiso   1.00
C741   C     0.51834   0.31234   0.78569   0.00000  Uiso   1.00
C742   C     0.47382   0.16681   0.85152   0.00000  Uiso   1.00
C743   C     0.51831   0.02226   0.78511   0.00000  Uiso   1.00
C744   C     0.49926   0.04279   0.75066   0.00000  Uiso   1.00
C745   C     0.47982   0.02156   0.71668   0.00000  Uiso   1.00
C746   C     0.47932   0.31170   0.71676   0.00000  Uiso   1.00
C747   C     0.49977   0.29092   0.75048   0.00000  Uiso   1.00
C748   C     0.65097   0.13768   0.72116   0.00000  Uiso   1.00
C749   C     0.36528   0.13725   0.72194   0.00000  Uiso   1.00
C750   C     0.34907   0.19542   0.77927   0.00000  Uiso   1.00
C751   C     0.63367   0.19478   0.78077   0.00000  Uiso   1.00
C752   C     0.49982   0.08677   0.75006   0.00000  Uiso   1.00
C753   C     0.52616   0.16746   0.64827   0.00000  Uiso   1.00
C754   C     0.58543   0.12443   0.51311   0.00000  Uiso   1.00
C755   C     0.54132   0.16457   0.59051   0.00000  Uiso   1.00
C756   C     0.43107   0.21198   0.92488   0.00000  Uiso   1.00
C757   C     0.43715   0.23698   0.96539   0.00000  Uiso   1.00
C758   C     0.46845   0.22423   0.99174   0.00000  Uiso   1.00
H759   H     0.60358   0.12713   0.58453   0.00000  Uiso   1.00
H760   H     0.53239   0.03991   0.81175   0.00000  Uiso   1.00
H761   H     0.46645   0.03853   0.68926   0.00000  Uiso   1.00
H762   H     0.63959   0.11465   0.69774   0.00000  Uiso   1.00
H763   H     0.38981   0.11368   0.69942   0.00000  Uiso   1.00
H764   H     0.36139   0.21872   0.80153   0.00000  Uiso   1.00
H765   H     0.57520   0.08935   0.92652   0.00000  Uiso   1.00
H766   H     0.61266   0.10132   0.99513   0.00000  Uiso   1.00
H767   H     0.40917   0.22346   0.90226   0.00000  Uiso   1.00
H768   H     0.47479   0.24571   0.52031   0.00000  Uiso   1.00
H769   H     0.51441   0.10624   0.88728   0.00000  Uiso   1.00
N770   N     0.38093   0.16668   0.75002   0.00000  Uiso   1.00
N771   N     0.61906   0.16665   0.75001   0.00000  Uiso   1.00
O772   O     0.46179   0.22775   0.75001   0.00000  Uiso   1.00
O773   O     0.53823   0.22774   0.75001   0.00000  Uiso   1.00
O774   O     0.44280   0.16666   0.82681   0.00000  Uiso   1.00
O775   O     0.51924   0.16665   0.82681   0.00000  Uiso   1.00
O776   O     0.46177   0.10559   0.75000   0.00000  Uiso   1.00
O777   O     0.53821   0.10558   0.75000   0.00000  Uiso   1.00
O778   O     0.48076   0.16668   0.67319   0.00000  Uiso   1.00
O779   O     0.55720   0.16667   0.67319   0.00000  Uiso   1.00
Zn780  Zn    0.44896   0.16667   0.75000   0.00000  Uiso   1.00
Zn781  Zn    0.55104   0.16666   0.75000   0.00000  Uiso   1.00
O782   O     0.46397   0.28954   0.68024   0.00000  Uiso   1.00
C783   C     0.41406   0.29432   0.69284   0.00000  Uiso   1.00
H784   H     0.39448   0.28717   0.73552   0.00000  Uiso   1.00
H785   H     0.40132   0.27178   0.66846   0.00000  Uiso   1.00
H786   H     0.40513   0.32625   0.68279   0.00000  Uiso   1.00
O787   O     0.60089   0.22355   0.81066   0.00000  Uiso   1.00
C788   C     0.59915   0.22274   0.86446   0.00000  Uiso   1.00
H789   H     0.56484   0.23674   0.88938   0.00000  Uiso   1.00
H790   H     0.62848   0.24207   0.87012   0.00000  Uiso   1.00
H791   H     0.60018   0.19032   0.87932   0.00000  Uiso   1.00
O792   O     0.47064   0.20287   0.59230   0.00000  Uiso   1.00
C793   C     0.42878   0.17785   0.60227   0.00000  Uiso   1.00
H794   H     0.40047   0.19145   0.63679   0.00000  Uiso   1.00
H795   H     0.43421   0.14475   0.61185   0.00000  Uiso   1.00
H796   H     0.41480   0.17819   0.56836   0.00000  Uiso   1.00
O797   O     0.41304   0.27440   0.97908   0.00000  Uiso   1.00
C798   C     0.43779   0.30520   0.94225   0.00000  Uiso   1.00
H799   H     0.43702   0.29809   0.90145   0.00000  Uiso   1.00
H800   H     0.47542   0.30886   0.94179   0.00000  Uiso   1.00
H801   H     0.41970   0.00233   0.95457   0.00000  Uiso   1.00
O802   O     0.53489   0.29046   0.82084   0.00000  Uiso   1.00
H803   H     0.54624   0.31054   0.84277   0.00000  Uiso   1.00
C804   C     0.83338   0.24665   0.75013   0.00000  Uiso   1.00
C805   C     0.82493   0.18497   0.98043   0.00000  Uiso   1.00
C806   C     0.82179   0.16167   0.93660   0.00000  Uiso   1.00
C807   C     0.85271   0.16887   0.51016   0.00000  Uiso   1.00
C808   C     0.88645   0.13685   0.98771   0.00000  Uiso   1.00
C809   C     0.88492   0.11547   0.94248   0.00000  Uiso   1.00
C810   C     0.85042   0.12567   0.91976   0.00000  Uiso   1.00
C811   C     0.84417   0.18002   0.56382   0.00000  Uiso   1.00
C812   C     0.91368   0.13925   0.56391   0.00000  Uiso   1.00
C813   C     0.79293   0.17650   0.90771   0.00000  Uiso   1.00
C814   C     0.85167   0.31234   0.78569   0.00000  Uiso   1.00
C815   C     0.80715   0.16681   0.85152   0.00000  Uiso   1.00
C816   C     0.85164   0.02226   0.78511   0.00000  Uiso   1.00
C817   C     0.83259   0.04279   0.75066   0.00000  Uiso   1.00
C818   C     0.81315   0.02156   0.71668   0.00000  Uiso   1.00
C819   C     0.81265   0.31170   0.71676   0.00000  Uiso   1.00
C820   C     0.83310   0.29092   0.75048   0.00000  Uiso   1.00
C821   C     0.98431   0.13768   0.72116   0.00000  Uiso   1.00
C822   C     0.69861   0.13725   0.72194   0.00000  Uiso   1.00
C823   C     0.68241   0.19542   0.77927   0.00000  Uiso   1.00
C824   C     0.96700   0.19478   0.78077   0.00000  Uiso   1.00
C825   C     0.83315   0.08677   0.75006   0.00000  Uiso   1.00
C826   C     0.85949   0.16746   0.64827   0.00000  Uiso   1.00
C827   C     0.91876   0.12443   0.51311   0.00000  Uiso   1.00
C828   C     0.87465   0.16457   0.59051   0.00000  Uiso   1.00
C829   C     0.76441   0.21198   0.92488   0.00000  Uiso   1.00
C830   C     0.77048   0.23698   0.96539   0.00000  Uiso   1.00
C831   C     0.80178   0.22423   0.99174   0.00000  Uiso   1.00
H832   H     0.93691   0.12713   0.58453   0.00000  Uiso   1.00
H833   H     0.86572   0.03991   0.81175   0.00000  Uiso   1.00
H834   H     0.79978   0.03853   0.68926   0.00000  Uiso   1.00
H835   H     0.97293   0.11465   0.69774   0.00000  Uiso   1.00
H836   H     0.72314   0.11368   0.69942   0.00000  Uiso   1.00
H837   H     0.69472   0.21872   0.80153   0.00000  Uiso   1.00
H838   H     0.90853   0.08935   0.92652   0.00000  Uiso   1.00
H839   H     0.94600   0.10132   0.99513   0.00000  Uiso   1.00
H840   H     0.74250   0.22346   0.90226   0.00000  Uiso   1.00
H841   H     0.80813   0.24571   0.52031   0.00000  Uiso   1.00
H842   H     0.84775   0.10624   0.88728   0.00000  Uiso   1.00
N843   N     0.71426   0.16668   0.75002   0.00000  Uiso   1.00
N844   N     0.95239   0.16665   0.75001   0.00000  Uiso   1.00
O845   O     0.79512   0.22775   0.75001   0.00000  Uiso   1.00
O846   O     0.87157   0.22774   0.75001   0.00000  Uiso   1.00
O847   O     0.77613   0.16666   0.82681   0.00000  Uiso   1.00
O848   O     0.85258   0.16665   0.82681   0.00000  Uiso   1.00
O849   O     0.79510   0.10559   0.75000   0.00000  Uiso   1.00
O850   O     0.87154   0.10558   0.75000   0.00000  Uiso   1.00
O851   O     0.81409   0.16668   0.67319   0.00000  Uiso   1.00
O852   O     0.89053   0.16667   0.67319   0.00000  Uiso   1.00
Zn853  Zn    0.78229   0.16667   0.75000   0.00000  Uiso   1.00
Zn854  Zn    0.88438   0.16666   0.75000   0.00000  Uiso   1.00
O855   O     0.79731   0.28954   0.68024   0.00000  Uiso   1.00
C856   C     0.74740   0.29432   0.69284   0.00000  Uiso   1.00
H857   H     0.72781   0.28717   0.73552   0.00000  Uiso   1.00
H858   H     0.73465   0.27178   0.66846   0.00000  Uiso   1.00
H859   H     0.73847   0.32625   0.68279   0.00000  Uiso   1.00
O860   O     0.93422   0.22355   0.81066   0.00000  Uiso   1.00
C861   C     0.93248   0.22274   0.86446   0.00000  Uiso   1.00
H862   H     0.89817   0.23674   0.88938   0.00000  Uiso   1.00
H863   H     0.96182   0.24207   0.87012   0.00000  Uiso   1.00
H864   H     0.93351   0.19032   0.87932   0.00000  Uiso   1.00
O865   O     0.80397   0.20287   0.59230   0.00000  Uiso   1.00
C866   C     0.76211   0.17785   0.60227   0.00000  Uiso   1.00
H867   H     0.73381   0.19145   0.63679   0.00000  Uiso   1.00
H868   H     0.76754   0.14475   0.61185   0.00000  Uiso   1.00
H869   H     0.74814   0.17819   0.56836   0.00000  Uiso   1.00
O870   O     0.74637   0.27440   0.97908   0.00000  Uiso   1.00
C871   C     0.77112   0.30520   0.94225   0.00000  Uiso   1.00
H872   H     0.77035   0.29809   0.90145   0.00000  Uiso   1.00
H873   H     0.80875   0.30886   0.94179   0.00000  Uiso   1.00
H874   H     0.75303   0.00233   0.95457   0.00000  Uiso   1.00
O875   O     0.86822   0.29046   0.82084   0.00000  Uiso   1.00
H876   H     0.87957   0.31054   0.84277   0.00000  Uiso   1.00
C877   C     0.16672   0.57998   0.75013   0.00000  Uiso   1.00
C878   C     0.15827   0.51830   0.98043   0.00000  Uiso   1.00
C879   C     0.15512   0.49500   0.93660   0.00000  Uiso   1.00
C880   C     0.18604   0.50221   0.51016   0.00000  Uiso   1.00
C881   C     0.21978   0.47019   0.98771   0.00000  Uiso   1.00
C882   C     0.21825   0.44881   0.94248   0.00000  Uiso   1.00
C883   C     0.18375   0.45900   0.91976   0.00000  Uiso   1.00
C884   C     0.17750   0.51335   0.56382   0.00000  Uiso   1.00
C885   C     0.24701   0.47258   0.56391   0.00000  Uiso   1.00
C886   C     0.12626   0.50983   0.90771   0.00000  Uiso   1.00
C887   C     0.18501   0.64567   0.78569   0.00000  Uiso   1.00
C888   C     0.14048   0.50014   0.85152   0.00000  Uiso   1.00
C889   C     0.18498   0.35559   0.78511   0.00000  Uiso   1.00
C890   C     0.16593   0.37612   0.75066   0.00000  Uiso   1.00
C891   C     0.14649   0.35489   0.71668   0.00000  Uiso   1.00
C892   C     0.14599   0.64504   0.71676   0.00000  Uiso   1.00
C893   C     0.16643   0.62425   0.75048   0.00000  Uiso   1.00
C894   C     0.31764   0.47101   0.72116   0.00000  Uiso   1.00
C895   C     0.03195   0.47058   0.72194   0.00000  Uiso   1.00
C896   C     0.01574   0.52875   0.77927   0.00000  Uiso   1.00
C897   C     0.30033   0.52811   0.78077   0.00000  Uiso   1.00
C898   C     0.16648   0.42010   0.75006   0.00000  Uiso   1.00
C899   C     0.19282   0.50080   0.64827   0.00000  Uiso   1.00
C900   C     0.25209   0.45776   0.51311   0.00000  Uiso   1.00
C901   C     0.20799   0.49790   0.59051   0.00000  Uiso   1.00
C902   C     0.09774   0.54531   0.92488   0.00000  Uiso   1.00
C903   C     0.10381   0.57032   0.96539   0.00000  Uiso   1.00
C904   C     0.13512   0.55756   0.99174   0.00000  Uiso   1.00
H905   H     0.27025   0.46046   0.58453   0.00000  Uiso   1.00
H906   H     0.19906   0.37324   0.81175   0.00000  Uiso   1.00
H907   H     0.13312   0.37186   0.68926   0.00000  Uiso   1.00
H908   H     0.30626   0.44798   0.69774   0.00000  Uiso   1.00
H909   H     0.05647   0.44701   0.69942   0.00000  Uiso   1.00
H910   H     0.02806   0.55205   0.80153   0.00000  Uiso   1.00
H911   H     0.24187   0.42268   0.92652   0.00000  Uiso   1.00
H912   H     0.27933   0.43465   0.99513   0.00000  Uiso   1.00
H913   H     0.07583   0.55679   0.90226   0.00000  Uiso   1.00
H914   H     0.14146   0.57904   0.52031   0.00000  Uiso   1.00
H915   H     0.18108   0.43958   0.88728   0.00000  Uiso   1.00
N916   N     0.04760   0.50001   0.75002   0.00000  Uiso   1.00
N917   N     0.28573   0.49998   0.75001   0.00000  Uiso   1.00
O918   O     0.12846   0.56108   0.75001   0.00000  Uiso   1.00
O919   O     0.20490   0.56107   0.75001   0.00000  Uiso   1.00
O920   O     0.10947   0.50000   0.82681   0.00000  Uiso   1.00
O921   O     0.18591   0.49999   0.82681   0.00000  Uiso   1.00
O922   O     0.12843   0.43893   0.75000   0.00000  Uiso   1.00
O923   O     0.20488   0.43892   0.75000   0.00000  Uiso   1.00
O924   O     0.14742   0.50001   0.67319   0.00000  Uiso   1.00
O925   O     0.22387   0.50000   0.67319   0.00000  Uiso   1.00
Zn926  Zn    0.11562   0.50001   0.75000   0.00000  Uiso   1.00
Zn927  Zn    0.21771   0.49999   0.75000   0.00000  Uiso   1.00
O928   O     0.13064   0.62287   0.68024   0.00000  Uiso   1.00
C929   C     0.08073   0.62765   0.69284   0.00000  Uiso   1.00
H930   H     0.06114   0.62051   0.73552   0.00000  Uiso   1.00
H931   H     0.06798   0.60511   0.66846   0.00000  Uiso   1.00
H932   H     0.07180   0.65959   0.68279   0.00000  Uiso   1.00
O933   O     0.26756   0.55689   0.81066   0.00000  Uiso   1.00
C934   C     0.26581   0.55608   0.86446   0.00000  Uiso   1.00
H935   H     0.23150   0.57007   0.88938   0.00000  Uiso   1.00
H936   H     0.29515   0.57541   0.87012   0.00000  Uiso   1.00
H937   H     0.26685   0.52366   0.87932   0.00000  Uiso   1.00
O938   O     0.13731   0.53620   0.59230   0.00000  Uiso   1.00
C939   C     0.09545   0.51119   0.60227   0.00000  Uiso   1.00
H940   H     0.06714   0.52478   0.63679   0.00000  Uiso   1.00
H941   H     0.10087   0.47809   0.61185   0.00000  Uiso   1.00
H942   H     0.08147   0.51152   0.56836   0.00000  Uiso   1.00
O943   O     0.07970   0.60773   0.97908   0.00000  Uiso   1.00
C944   C     0.10445   0.63853   0.94225   0.00000  Uiso   1.00
H945   H     0.10369   0.63142   0.90145   0.00000  Uiso   1.00
H946   H     0.14209   0.64219   0.94179   0.00000  Uiso   1.00
H947   H     0.08637   0.33567   0.95457   0.00000  Uiso   1.00
O948   O     0.20156   0.62379   0.82084   0.00000  Uiso   1.00
H949   H     0.21290   0.64387   0.84277   0.00000  Uiso   1.00
C950   C     0.50005   0.57998   0.75013   0.00000  Uiso   1.00
C951   C     0.49160   0.51830   0.98043   0.00000  Uiso   1.00
C952   C     0.48846   0.49500   0.93660   0.00000  Uiso   1.00
C953   C     0.51938   0.50221   0.51016   0.00000  Uiso   1.00
C954   C     0.55312   0.47019   0.98771   0.00000  Uiso   1.00
C955   C     0.55158   0.44881   0.94248   0.00000  Uiso   1.00
C956   C     0.51708   0.45900   0.91976   0.00000  Uiso   1.00
C957   C     0.51084   0.51335   0.56382   0.00000  Uiso   1.00
C958   C     0.58035   0.47258   0.56391   0.00000  Uiso   1.00
C959   C     0.45959   0.50983   0.90771   0.00000  Uiso   1.00
C960   C     0.51834   0.64567   0.78569   0.00000  Uiso   1.00
C961   C     0.47382   0.50014   0.85152   0.00000  Uiso   1.00
C962   C     0.51831   0.35559   0.78511   0.00000  Uiso   1.00
C963   C     0.49926   0.37612   0.75066   0.00000  Uiso   1.00
C964   C     0.47982   0.35489   0.71668   0.00000  Uiso   1.00
C965   C     0.47932   0.64504   0.71676   0.00000  Uiso   1.00
C966   C     0.49977   0.62425   0.75048   0.00000  Uiso   1.00
C967   C     0.65097   0.47101   0.72116   0.00000  Uiso   1.00
C968   C     0.36528   0.47058   0.72194   0.00000  Uiso   1.00
C969   C     0.34907   0.52875   0.77927   0.00000  Uiso   1.00
C970   C     0.63367   0.52811   0.78077   0.00000  Uiso   1.00
C971   C     0.49982   0.42010   0.75006   0.00000  Uiso   1.00
C972   C     0.52616   0.50080   0.64827   0.00000  Uiso   1.00
C973   C     0.58543   0.45776   0.51311   0.00000  Uiso   1.00
C974   C     0.54132   0.49790   0.59051   0.00000  Uiso   1.00
C975   C     0.43107   0.54531   0.92488   0.00000  Uiso   1.00
C976   C     0.43715   0.57032   0.96539   0.00000  Uiso   1.00
C977   C     0.46845   0.55756   0.99174   0.00000  Uiso   1.00
H978   H     0.60358   0.46046   0.58453   0.00000  Uiso   1.00
H979   H     0.53239   0.37324   0.81175   0.00000  Uiso   1.00
H980   H     0.46645   0.37186   0.68926   0.00000  Uiso   1.00
H981   H     0.63959   0.44798   0.69774   0.00000  Uiso   1.00
H982   H     0.38981   0.44701   0.69942   0.00000  Uiso   1.00
H983   H     0.36139   0.55205   0.80153   0.00000  Uiso   1.00
H984   H     0.57520   0.42268   0.92652   0.00000  Uiso   1.00
H985   H     0.61266   0.43465   0.99513   0.00000  Uiso   1.00
H986   H     0.40917   0.55679   0.90226   0.00000  Uiso   1.00
H987   H     0.47479   0.57904   0.52031   0.00000  Uiso   1.00
H988   H     0.51441   0.43958   0.88728   0.00000  Uiso   1.00
N989   N     0.38093   0.50001   0.75002   0.00000  Uiso   1.00
N990   N     0.61906   0.49998   0.75001   0.00000  Uiso   1.00
O991   O     0.46179   0.56108   0.75001   0.00000  Uiso   1.00
O992   O     0.53823   0.56107   0.75001   0.00000  Uiso   1.00
O993   O     0.44280   0.50000   0.82681   0.00000  Uiso   1.00
O994   O     0.51924   0.49999   0.82681   0.00000  Uiso   1.00
O995   O     0.46177   0.43893   0.75000   0.00000  Uiso   1.00
O996   O     0.53821   0.43892   0.75000   0.00000  Uiso   1.00
O997   O     0.48076   0.50001   0.67319   0.00000  Uiso   1.00
O998   O     0.55720   0.50000   0.67319   0.00000  Uiso   1.00
Zn999  Zn    0.44896   0.50001   0.75000   0.00000  Uiso   1.00
Zn1000 Zn    0.55104   0.49999   0.75000   0.00000  Uiso   1.00
O1001  O     0.46397   0.62287   0.68024   0.00000  Uiso   1.00
C1002  C     0.41406   0.62765   0.69284   0.00000  Uiso   1.00
H1003  H     0.39448   0.62051   0.73552   0.00000  Uiso   1.00
H1004  H     0.40132   0.60511   0.66846   0.00000  Uiso   1.00
H1005  H     0.40513   0.65959   0.68279   0.00000  Uiso   1.00
O1006  O     0.60089   0.55689   0.81066   0.00000  Uiso   1.00
C1007  C     0.59915   0.55608   0.86446   0.00000  Uiso   1.00
H1008  H     0.56484   0.57007   0.88938   0.00000  Uiso   1.00
H1009  H     0.62848   0.57541   0.87012   0.00000  Uiso   1.00
H1010  H     0.60018   0.52366   0.87932   0.00000  Uiso   1.00
O1011  O     0.47064   0.53620   0.59230   0.00000  Uiso   1.00
C1012  C     0.42878   0.51119   0.60227   0.00000  Uiso   1.00
H1013  H     0.40047   0.52478   0.63679   0.00000  Uiso   1.00
H1014  H     0.43421   0.47809   0.61185   0.00000  Uiso   1.00
H1015  H     0.41480   0.51152   0.56836   0.00000  Uiso   1.00
O1016  O     0.41304   0.60773   0.97908   0.00000  Uiso   1.00
C1017  C     0.43779   0.63853   0.94225   0.00000  Uiso   1.00
H1018  H     0.43702   0.63142   0.90145   0.00000  Uiso   1.00
H1019  H     0.47542   0.64219   0.94179   0.00000  Uiso   1.00
H1020  H     0.41970   0.33567   0.95457   0.00000  Uiso   1.00
O1021  O     0.53489   0.62379   0.82084   0.00000  Uiso   1.00
H1022  H     0.54624   0.64387   0.84277   0.00000  Uiso   1.00
C1023  C     0.83338   0.57998   0.75013   0.00000  Uiso   1.00
C1024  C     0.82493   0.51830   0.98043   0.00000  Uiso   1.00
C1025  C     0.82179   0.49500   0.93660   0.00000  Uiso   1.00
C1026  C     0.85271   0.50221   0.51016   0.00000  Uiso   1.00
C1027  C     0.88645   0.47019   0.98771   0.00000  Uiso   1.00
C1028  C     0.88492   0.44881   0.94248   0.00000  Uiso   1.00
C1029  C     0.85042   0.45900   0.91976   0.00000  Uiso   1.00
C1030  C     0.84417   0.51335   0.56382   0.00000  Uiso   1.00
C1031  C     0.91368   0.47258   0.56391   0.00000  Uiso   1.00
C1032  C     0.79293   0.50983   0.90771   0.00000  Uiso   1.00
C1033  C     0.85167   0.64567   0.78569   0.00000  Uiso   1.00
C1034  C     0.80715   0.50014   0.85152   0.00000  Uiso   1.00
C1035  C     0.85164   0.35559   0.78511   0.00000  Uiso   1.00
C1036  C     0.83259   0.37612   0.75066   0.00000  Uiso   1.00
C1037  C     0.81315   0.35489   0.71668   0.00000  Uiso   1.00
C1038  C     0.81265   0.64504   0.71676   0.00000  Uiso   1.00
C1039  C     0.83310   0.62425   0.75048   0.00000  Uiso   1.00
C1040  C     0.98431   0.47101   0.72116   0.00000  Uiso   1.00
C1041  C     0.69861   0.47058   0.72194   0.00000  Uiso   1.00
C1042  C     0.68241   0.52875   0.77927   0.00000  Uiso   1.00
C1043  C     0.96700   0.52811   0.78077   0.00000  Uiso   1.00
C1044  C     0.83315   0.42010   0.75006   0.00000  Uiso   1.00
C1045  C     0.85949   0.50080   0.64827   0.00000  Uiso   1.00
C1046  C     0.91876   0.45776   0.51311   0.00000  Uiso   1.00
C1047  C     0.87465   0.49790   0.59051   0.00000  Uiso   1.00
C1048  C     0.76441   0.54531   0.92488   0.00000  Uiso   1.00
C1049  C     0.77048   0.57032   0.96539   0.00000  Uiso   1.00
C1050  C     0.80178   0.55756   0.99174   0.00000  Uiso   1.00
H1051  H     0.93691   0.46046   0.58453   0.00000  Uiso   1.00
H1052  H     0.86572   0.37324   0.81175   0.00000  Uiso   1.00
H1053  H     0.79978   0.37186   0.68926   0.00000  Uiso   1.00
H1054  H     0.97293   0.44798   0.69774   0.00000  Uiso   1.00
H1055  H     0.72314   0.44701   0.69942   0.00000  Uiso   1.00
H1056  H     0.69472   0.55205   0.80153   0.00000  Uiso   1.00
H1057  H     0.90853   0.42268   0.92652   0.00000  Uiso   1.00
H1058  H     0.94600   0.43465   0.99513   0.00000  Uiso   1.00
H1059  H     0.74250   0.55679   0.90226   0.00000  Uiso   1.00
H1060  H     0.80813   0.57904   0.52031   0.00000  Uiso   1.00
H1061  H     0.84775   0.43958   0.88728   0.00000  Uiso   1.00
N1062  N     0.71426   0.50001   0.75002   0.00000  Uiso   1.00
N1063  N     0.95239   0.49998   0.75001   0.00000  Uiso   1.00
O1064  O     0.79512   0.56108   0.75001   0.00000  Uiso   1.00
O1065  O     0.87157   0.56107   0.75001   0.00000  Uiso   1.00
O1066  O     0.77613   0.50000   0.82681   0.00000  Uiso   1.00
O1067  O     0.85258   0.49999   0.82681   0.00000  Uiso   1.00
O1068  O     0.79510   0.43893   0.75000   0.00000  Uiso   1.00
O1069  O     0.87154   0.43892   0.75000   0.00000  Uiso   1.00
O1070  O     0.81409   0.50001   0.67319   0.00000  Uiso   1.00
O1071  O     0.89053   0.50000   0.67319   0.00000  Uiso   1.00
Zn1072 Zn    0.78229   0.50001   0.75000   0.00000  Uiso   1.00
Zn1073 Zn    0.88438   0.49999   0.75000   0.00000  Uiso   1.00
O1074  O     0.79731   0.62287   0.68024   0.00000  Uiso   1.00
C1075  C     0.74740   0.62765   0.69284   0.00000  Uiso   1.00
H1076  H     0.72781   0.62051   0.73552   0.00000  Uiso   1.00
H1077  H     0.73465   0.60511   0.66846   0.00000  Uiso   1.00
H1078  H     0.73847   0.65959   0.68279   0.00000  Uiso   1.00
O1079  O     0.93422   0.55689   0.81066   0.00000  Uiso   1.00
C1080  C     0.93248   0.55608   0.86446   0.00000  Uiso   1.00
H1081  H     0.89817   0.57007   0.88938   0.00000  Uiso   1.00
H1082  H     0.96182   0.57541   0.87012   0.00000  Uiso   1.00
H1083  H     0.93351   0.52366   0.87932   0.00000  Uiso   1.00
O1084  O     0.80397   0.53620   0.59230   0.00000  Uiso   1.00
C1085  C     0.76211   0.51119   0.60227   0.00000  Uiso   1.00
H1086  H     0.73381   0.52478   0.63679   0.00000  Uiso   1.00
H1087  H     0.76754   0.47809   0.61185   0.00000  Uiso   1.00
H1088  H     0.74814   0.51152   0.56836   0.00000  Uiso   1.00
O1089  O     0.74637   0.60773   0.97908   0.00000  Uiso   1.00
C1090  C     0.77112   0.63853   0.94225   0.00000  Uiso   1.00
H1091  H     0.77035   0.63142   0.90145   0.00000  Uiso   1.00
H1092  H     0.80875   0.64219   0.94179   0.00000  Uiso   1.00
H1093  H     0.75303   0.33567   0.95457   0.00000  Uiso   1.00
O1094  O     0.86822   0.62379   0.82084   0.00000  Uiso   1.00
H1095  H     0.87957   0.64387   0.84277   0.00000  Uiso   1.00
C1096  C     0.16672   0.91332   0.75013   0.00000  Uiso   1.00
C1097  C     0.15827   0.85164   0.98043   0.00000  Uiso   1.00
C1098  C     0.15512   0.82833   0.93660   0.00000  Uiso   1.00
C1099  C     0.18604   0.83554   0.51016   0.00000  Uiso   1.00
C1100  C     0.21978   0.80352   0.98771   0.00000  Uiso   1.00
C1101  C     0.21825   0.78214   0.94248   0.00000  Uiso   1.00
C1102  C     0.18375   0.79234   0.91976   0.00000  Uiso   1.00
C1103  C     0.17750   0.84669   0.56382   0.00000  Uiso   1.00
C1104  C     0.24701   0.80592   0.56391   0.00000  Uiso   1.00
C1105  C     0.12626   0.84317   0.90771   0.00000  Uiso   1.00
C1106  C     0.18501   0.97900   0.78569   0.00000  Uiso   1.00
C1107  C     0.14048   0.83347   0.85152   0.00000  Uiso   1.00
C1108  C     0.18498   0.68893   0.78511   0.00000  Uiso   1.00
C1109  C     0.16593   0.70946   0.75066   0.00000  Uiso   1.00
C1110  C     0.14649   0.68823   0.71668   0.00000  Uiso   1.00
C1111  C     0.14599   0.97837   0.71676   0.00000  Uiso   1.00
C1112  C     0.16643   0.95758   0.75048   0.00000  Uiso   1.00
C1113  C     0.31764   0.80435   0.72116   0.00000  Uiso   1.00
C1114  C     0.03195   0.80391   0.72194   0.00000  Uiso   1.00
C1115  C     0.01574   0.86208   0.77927   0.00000  Uiso   1.00
C1116  C     0.30033   0.86144   0.78077   0.00000  Uiso   1.00
C1117  C     0.16648   0.75344   0.75006   0.00000  Uiso   1.00
C1118  C     0.19282   0.83413   0.64827   0.00000  Uiso   1.00
C1119  C     0.25209   0.79110   0.51311   0.00000  Uiso   1.00
C1120  C     0.20799   0.83123   0.59051   0.00000  Uiso   1.00
C1121  C     0.09774   0.87865   0.92488   0.00000  Uiso   1.00
C1122  C     0.10381   0.90365   0.96539   0.00000  Uiso   1.00
C1123  C     0.13512   0.89090   0.99174   0.00000  Uiso   1.00
H1124  H     0.27025   0.79379   0.58453   0.00000  Uiso   1.00
H1125  H     0.19906   0.70658   0.81175   0.00000  Uiso   1.00
H1126  H     0.13312   0.70520   0.68926   0.00000  Uiso   1.00
H1127  H     0.30626   0.78132   0.69774   0.00000  Uiso   1.00
H1128  H     0.05647   0.78034   0.69942   0.00000  Uiso   1.00
H1129  H     0.02806   0.88539   0.80153   0.00000  Uiso   1.00
H1130  H     0.24187   0.75601   0.92652   0.00000  Uiso   1.00
H1131  H     0.27933   0.76798   0.99513   0.00000  Uiso   1.00
H1132  H     0.07583   0.89013   0.90226   0.00000  Uiso   1.00
H1133  H     0.14146   0.91237   0.52031   0.00000  Uiso   1.00
H1134  H     0.18108   0.77291   0.88728   0.00000  Uiso   1.00
N1135  N     0.04760   0.83334   0.75002   0.00000  Uiso   1.00
N1136  N     0.28573   0.83331   0.75001   0.00000  Uiso   1.00
O1137  O     0.12846   0.89442   0.75001   0.00000  Uiso   1.00
O1138  O     0.20490   0.89441   0.75001   0.00000  Uiso   1.00
O1139  O     0.10947   0.83333   0.82681   0.00000  Uiso   1.00
O1140  O     0.18591   0.83332   0.82681   0.00000  Uiso   1.00
O1141  O     0.12843   0.77226   0.75000   0.00000  Uiso   1.00
O1142  O     0.20488   0.77225   0.75000   0.00000  Uiso   1.00
O1143  O     0.14742   0.83335   0.67319   0.00000  Uiso   1.00
O1144  O     0.22387   0.83334   0.67319   0.00000  Uiso   1.00
Zn1145 Zn    0.11562   0.83334   0.75000   0.00000  Uiso   1.00
Zn1146 Zn    0.21771   0.83333   0.75000   0.00000  Uiso   1.00
O1147  O     0.13064   0.95621   0.68024   0.00000  Uiso   1.00
C1148  C     0.08073   0.96099   0.69284   0.00000  Uiso   1.00
H1149  H     0.06114   0.95384   0.73552   0.00000  Uiso   1.00
H1150  H     0.06798   0.93844   0.66846   0.00000  Uiso   1.00
H1151  H     0.07180   0.99292   0.68279   0.00000  Uiso   1.00
O1152  O     0.26756   0.89022   0.81066   0.00000  Uiso   1.00
C1153  C     0.26581   0.88941   0.86446   0.00000  Uiso   1.00
H1154  H     0.23150   0.90340   0.88938   0.00000  Uiso   1.00
H1155  H     0.29515   0.90874   0.87012   0.00000  Uiso   1.00
H1156  H     0.26685   0.85699   0.87932   0.00000  Uiso   1.00
O1157  O     0.13731   0.86954   0.59230   0.00000  Uiso   1.00
C1158  C     0.09545   0.84452   0.60227   0.00000  Uiso   1.00
H1159  H     0.06714   0.85812   0.63679   0.00000  Uiso   1.00
H1160  H     0.10087   0.81142   0.61185   0.00000  Uiso   1.00
H1161  H     0.08147   0.84485   0.56836   0.00000  Uiso   1.00
O1162  O     0.07970   0.94106   0.97908   0.00000  Uiso   1.00
C1163  C     0.10445   0.97186   0.94225   0.00000  Uiso   1.00
H1164  H     0.10369   0.96475   0.90145   0.00000  Uiso   1.00
H1165  H     0.14209   0.97553   0.94179   0.00000  Uiso   1.00
H1166  H     0.08637   0.66900   0.95457   0.00000  Uiso   1.00
O1167  O     0.20156   0.95713   0.82084   0.00000  Uiso   1.00
H1168  H     0.21290   0.97720   0.84277   0.00000  Uiso   1.00
C1169  C     0.50005   0.91332   0.75013   0.00000  Uiso   1.00
C1170  C     0.49160   0.85164   0.98043   0.00000  Uiso   1.00
C1171  C     0.48846   0.82833   0.93660   0.00000  Uiso   1.00
C1172  C     0.51938   0.83554   0.51016   0.00000  Uiso   1.00
C1173  C     0.55312   0.80352   0.98771   0.00000  Uiso   1.00
C1174  C     0.55158   0.78214   0.94248   0.00000  Uiso   1.00
C1175  C     0.51708   0.79234   0.91976   0.00000  Uiso   1.00
C1176  C     0.51084   0.84669   0.56382   0.00000  Uiso   1.00
C1177  C     0.58035   0.80592   0.56391   0.00000  Uiso   1.00
C1178  C     0.45959   0.84317   0.90771   0.00000  Uiso   1.00
C1179  C     0.51834   0.97900   0.78569   0.00000  Uiso   1.00
C1180  C     0.47382   0.83347   0.85152   0.00000  Uiso   1.00
C1181  C     0.51831   0.68893   0.78511   0.00000  Uiso   1.00
C1182  C     0.49926   0.70946   0.75066   0.00000  Uiso   1.00
C1183  C     0.47982   0.68823   0.71668   0.00000  Uiso   1.00
C1184  C     0.47932   0.97837   0.71676   0.00000  Uiso   1.00
C1185  C     0.49977   0.95758   0.75048   0.00000  Uiso   1.00
C1186  C     0.65097   0.80435   0.72116   0.00000  Uiso   1.00
C1187  C     0.36528   0.80391   0.72194   0.00000  Uiso   1.00
C1188  C     0.34907   0.86208   0.77927   0.00000  Uiso   1.00
C1189  C     0.63367   0.86144   0.78077   0.00000  Uiso   1.00
C1190  C     0.49982   0.75344   0.75006   0.00000  Uiso   1.00
C1191  C     0.52616   0.83413   0.64827   0.00000  Uiso   1.00
C1192  C     0.58543   0.79110   0.51311   0.00000  Uiso   1.00
C1193  C     0.54132   0.83123   0.59051   0.00000  Uiso   1.00
C1194  C     0.43107   0.87865   0.92488   0.00000  Uiso   1.00
C1195  C     0.43715   0.90365   0.96539   0.00000  Uiso   1.00
C1196  C     0.46845   0.89090   0.99174   0.00000  Uiso   1.00
H1197  H     0.60358   0.79379   0.58453   0.00000  Uiso   1.00
H1198  H     0.53239   0.70658   0.81175   0.00000  Uiso   1.00
H1199  H     0.46645   0.70520   0.68926   0.00000  Uiso   1.00
H1200  H     0.63959   0.78132   0.69774   0.00000  Uiso   1.00
H1201  H     0.38981   0.78034   0.69942   0.00000  Uiso   1.00
H1202  H     0.36139   0.88539   0.80153   0.00000  Uiso   1.00
H1203  H     0.57520   0.75601   0.92652   0.00000  Uiso   1.00
H1204  H     0.61266   0.76798   0.99513   0.00000  Uiso   1.00
H1205  H     0.40917   0.89013   0.90226   0.00000  Uiso   1.00
H1206  H     0.47479   0.91237   0.52031   0.00000  Uiso   1.00
H1207  H     0.51441   0.77291   0.88728   0.00000  Uiso   1.00
N1208  N     0.38093   0.83334   0.75002   0.00000  Uiso   1.00
N1209  N     0.61906   0.83331   0.75001   0.00000  Uiso   1.00
O1210  O     0.46179   0.89442   0.75001   0.00000  Uiso   1.00
O1211  O     0.53823   0.89441   0.75001   0.00000  Uiso   1.00
O1212  O     0.44280   0.83333   0.82681   0.00000  Uiso   1.00
O1213  O     0.51924   0.83332   0.82681   0.00000  Uiso   1.00
O1214  O     0.46177   0.77226   0.75000   0.00000  Uiso   1.00
O1215  O     0.53821   0.77225   0.75000   0.00000  Uiso   1.00
O1216  O     0.48076   0.83335   0.67319   0.00000  Uiso   1.00
O1217  O     0.55720   0.83334   0.67319   0.00000  Uiso   1.00
Zn1218 Zn    0.44896   0.83334   0.75000   0.00000  Uiso   1.00
Zn1219 Zn    0.55104   0.83333   0.75000   0.00000  Uiso   1.00
O1220  O     0.46397   0.95621   0.68024   0.00000  Uiso   1.00
C1221  C     0.41406   0.96099   0.69284   0.00000  Uiso   1.00
H1222  H     0.39448   0.95384   0.73552   0.00000  Uiso   1.00
H1223  H     0.40132   0.93844   0.66846   0.00000  Uiso   1.00
H1224  H     0.40513   0.99292   0.68279   0.00000  Uiso   1.00
O1225  O     0.60089   0.89022   0.81066   0.00000  Uiso   1.00
C1226  C     0.59915   0.88941   0.86446   0.00000  Uiso   1.00
H1227  H     0.56484   0.90340   0.88938   0.00000  Uiso   1.00
H1228  H     0.62848   0.90874   0.87012   0.00000  Uiso   1.00
H1229  H     0.60018   0.85699   0.87932   0.00000  Uiso   1.00
O1230  O     0.47064   0.86954   0.59230   0.00000  Uiso   1.00
C1231  C     0.42878   0.84452   0.60227   0.00000  Uiso   1.00
H1232  H     0.40047   0.85812   0.63679   0.00000  Uiso   1.00
H1233  H     0.43421   0.81142   0.61185   0.00000  Uiso   1.00
H1234  H     0.41480   0.84485   0.56836   0.00000  Uiso   1.00
O1235  O     0.41304   0.94106   0.97908   0.00000  Uiso   1.00
C1236  C     0.43779   0.97186   0.94225   0.00000  Uiso   1.00
H1237  H     0.43702   0.96475   0.90145   0.00000  Uiso   1.00
H1238  H     0.47542   0.97553   0.94179   0.00000  Uiso   1.00
H1239  H     0.41970   0.66900   0.95457   0.00000  Uiso   1.00
O1240  O     0.53489   0.95713   0.82084   0.00000  Uiso   1.00
H1241  H     0.54624   0.97720   0.84277   0.00000  Uiso   1.00
C1242  C     0.83338   0.91332   0.75013   0.00000  Uiso   1.00
C1243  C     0.82493   0.85164   0.98043   0.00000  Uiso   1.00
C1244  C     0.82179   0.82833   0.93660   0.00000  Uiso   1.00
C1245  C     0.85271   0.83554   0.51016   0.00000  Uiso   1.00
C1246  C     0.88645   0.80352   0.98771   0.00000  Uiso   1.00
C1247  C     0.88492   0.78214   0.94248   0.00000  Uiso   1.00
C1248  C     0.85042   0.79234   0.91976   0.00000  Uiso   1.00
C1249  C     0.84417   0.84669   0.56382   0.00000  Uiso   1.00
C1250  C     0.91368   0.80592   0.56391   0.00000  Uiso   1.00
C1251  C     0.79293   0.84317   0.90771   0.00000  Uiso   1.00
C1252  C     0.85167   0.97900   0.78569   0.00000  Uiso   1.00
C1253  C     0.80715   0.83347   0.85152   0.00000  Uiso   1.00
C1254  C     0.85164   0.68893   0.78511   0.00000  Uiso   1.00
C1255  C     0.83259   0.70946   0.75066   0.00000  Uiso   1.00
C1256  C     0.81315   0.68823   0.71668   0.00000  Uiso   1.00
C1257  C     0.81265   0.97837   0.71676   0.00000  Uiso   1.00
C1258  C     0.83310   0.95758   0.75048   0.00000  Uiso   1.00
C1259  C     0.98431   0.80435   0.72116   0.00000  Uiso   1.00
C1260  C     0.69861   0.80391   0.72194   0.00000  Uiso   1.00
C1261  C     0.68241   0.86208   0.77927   0.00000  Uiso   1.00
C1262  C     0.96700   0.86144   0.78077   0.00000  Uiso   1.00
C1263  C     0.83315   0.75344   0.75006   0.00000  Uiso   1.00
C1264  C     0.85949   0.83413   0.64827   0.00000  Uiso   1.00
C1265  C     0.91876   0.79110   0.51311   0.00000  Uiso   1.00
C1266  C     0.87465   0.83123   0.59051   0.00000  Uiso   1.00
C1267  C     0.76441   0.87865   0.92488   0.00000  Uiso   1.00
C1268  C     0.77048   0.90365   0.96539   0.00000  Uiso   1.00
C1269  C     0.80178   0.89090   0.99174   0.00000  Uiso   1.00
H1270  H     0.93691   0.79379   0.58453   0.00000  Uiso   1.00
H1271  H     0.86572   0.70658   0.81175   0.00000  Uiso   1.00
H1272  H     0.79978   0.70520   0.68926   0.00000  Uiso   1.00
H1273  H     0.97293   0.78132   0.69774   0.00000  Uiso   1.00
H1274  H     0.72314   0.78034   0.69942   0.00000  Uiso   1.00
H1275  H     0.69472   0.88539   0.80153   0.00000  Uiso   1.00
H1276  H     0.90853   0.75601   0.92652   0.00000  Uiso   1.00
H1277  H     0.94600   0.76798   0.99513   0.00000  Uiso   1.00
H1278  H     0.74250   0.89013   0.90226   0.00000  Uiso   1.00
H1279  H     0.80813   0.91237   0.52031   0.00000  Uiso   1.00
H1280  H     0.84775   0.77291   0.88728   0.00000  Uiso   1.00
N1281  N     0.71426   0.83334   0.75002   0.00000  Uiso   1.00
N1282  N     0.95239   0.83331   0.75001   0.00000  Uiso   1.00
O1283  O     0.79512   0.89442   0.75001   0.00000  Uiso   1.00
O1284  O     0.87157   0.89441   0.75001   0.00000  Uiso   1.00
O1285  O     0.77613   0.83333   0.82681   0.00000  Uiso   1.00
O1286  O     0.85258   0.83332   0.82681   0.00000  Uiso   1.00
O1287  O     0.79510   0.77226   0.75000   0.00000  Uiso   1.00
O1288  O     0.87154   0.77225   0.75000   0.00000  Uiso   1.00
O1289  O     0.81409   0.83335   0.67319   0.00000  Uiso   1.00
O1290  O     0.89053   0.83334   0.67319   0.00000  Uiso   1.00
Zn1291 Zn    0.78229   0.83334   0.75000   0.00000  Uiso   1.00
Zn1292 Zn    0.88438   0.83333   0.75000   0.00000  Uiso   1.00
O1293  O     0.79731   0.95621   0.68024   0.00000  Uiso   1.00
C1294  C     0.74740   0.96099   0.69284   0.00000  Uiso   1.00
H1295  H     0.72781   0.95384   0.73552   0.00000  Uiso   1.00
H1296  H     0.73465   0.93844   0.66846   0.00000  Uiso   1.00
H1297  H     0.73847   0.99292   0.68279   0.00000  Uiso   1.00
O1298  O     0.93422   0.89022   0.81066   0.00000  Uiso   1.00
C1299  C     0.93248   0.88941   0.86446   0.00000  Uiso   1.00
H1300  H     0.89817   0.90340   0.88938   0.00000  Uiso   1.00
H1301  H     0.96182   0.90874   0.87012   0.00000  Uiso   1.00
H1302  H     0.93351   0.85699   0.87932   0.00000  Uiso   1.00
O1303  O     0.80397   0.86954   0.59230   0.00000  Uiso   1.00
C1304  C     0.76211   0.84452   0.60227   0.00000  Uiso   1.00
H1305  H     0.73381   0.85812   0.63679   0.00000  Uiso   1.00
H1306  H     0.76754   0.81142   0.61185   0.00000  Uiso   1.00
H1307  H     0.74814   0.84485   0.56836   0.00000  Uiso   1.00
O1308  O     0.74637   0.94106   0.97908   0.00000  Uiso   1.00
C1309  C     0.77112   0.97186   0.94225   0.00000  Uiso   1.00
H1310  H     0.77035   0.96475   0.90145   0.00000  Uiso   1.00
H1311  H     0.80875   0.97553   0.94179   0.00000  Uiso   1.00
H1312  H     0.75303   0.66900   0.95457   0.00000  Uiso   1.00
O1313  O     0.86822   0.95713   0.82084   0.00000  Uiso   1.00
H1314  H     0.87957   0.97720   0.84277   0.00000  Uiso   1.00
loop_
_geom_bond_atom_site_label_1
_geom_bond_atom_site_label_2
_geom_bond_distance
_geom_bond_site_symmetry_2
_ccdc_geom_bond_type
C1     O43     1.283   .     A
C1     C17     1.414   .     S
C1     O42     1.279   .     A
C2     C3      1.406   .     A
C2     C28     1.416   .     A
C2     C661    1.413   .     S
C3     C10     1.407   .     A
C3     C7      1.414   .     A
C4     C8      1.407   .     A
C4     C659    1.413   1_554 S
C4     C662    1.420   1_554 S
C5     C6      1.392   .     A
C5     C661    1.420   .     S
C5     C681    1.398   .     S
C6     C7      1.386   .     A
C6     H35     1.084   .     S
C7     H39     1.083   .     S
C8     C25     1.409   .     A
C8     O62     1.391   .     S
C9     C24     1.388   .     A
C9     H29     1.084   .     S
C9     C25     1.399   .     A
C10    C26     1.400   .     A
C10    C12     1.444   .     S
C11    O72     1.382   .     S
C11    C17     1.403   .     A
C11    C232    1.382   .     S
C12    O45     1.287   .     A
C12    O44     1.290   .     A
C13    C14     1.390   .     A
C13    H30     1.085   .     S
C13    C449    1.382   1_545 S
C14    C15     1.390   .     A
C14    C22     1.405   .     S
C15    H31     1.084   .     S
C15    C454    1.380   1_545 S
C16    O52     1.387   .     S
C16    C17     1.405   .     A
C16    C234    1.380   .     S
C18    H32     1.082   .     S
C18    N41     1.366   .     A
C18    C92     1.416   .     S
C19    N40     1.366   .     A
C19    H33     1.081   .     S
C19    C164    1.416   1_455 S
C20    H34     1.081   .     S
C20    N40     1.364   .     A
C20    C167    1.429   1_455 S
C21    O57     1.384   .     S
C21    N41     1.371   .     A
C21    C93     1.429   .     S
C22    O47     1.280   .     A
C22    O46     1.280   .     A
C23    O49     1.296   .     A
C23    C25     1.452   .     S
C23    O48     1.288   .     A
C24    C662    1.398   1_554 S
C24    H693    1.084   1_554 S
C26    C27     1.394   .     A
C26    H37     1.084   .     S
C27    O67     1.381   .     S
C27    C28     1.394   .     A
C28    H695    1.080   .     S
H36    C681    1.084   .     S
H38    C685    1.080   1_554 S
N40    Zn50    2.011   .     S
N41    Zn51    2.011   .     S
O42    Zn50    1.985   .     S
O43    Zn51    1.991   .     S
O44    Zn50    1.987   .     S
O45    Zn51    1.946   .     S
O46    Zn50    1.991   .     S
O47    Zn51    1.985   .     S
O48    Zn50    1.946   .     S
O49    Zn51    1.987   .     S
O52    C53     1.411   .     S
C53    H55     1.109   .     S
C53    H56     1.111   .     S
C53    H54     1.114   .     S
O57    C58     1.412   .     S
C58    H61     1.114   .     S
C58    H60     1.110   .     S
C58    H59     1.109   .     S
O62    C63     1.419   .     S
C63    H65     1.114   .     S
C63    H66     1.107   .     S
C63    H64     1.108   .     S
O67    C68     1.411   .     S
C68    H69     1.113   .     S
C68    H70     1.114   .     S
C68    H290    1.109   .     S
H71    C506    1.109   1_545 S
O72    H73     0.992   .     S
C74    O116    1.283   .     A
C74    C90     1.414   .     S
C74    O115    1.279   .     A
C75    C76     1.406   .     A
C75    C101    1.416   .     A
C75    C734    1.413   .     S
C76    C83     1.407   .     A
C76    C80     1.414   .     A
C77    C81     1.407   .     A
C77    C732    1.413   1_554 S
C77    C735    1.420   1_554 S
C78    C79     1.392   .     A
C78    C734    1.420   .     S
C78    C754    1.398   .     S
C79    C80     1.386   .     A
C79    H108    1.084   .     S
C80    H112    1.083   .     S
C81    C98     1.409   .     A
C81    O135    1.391   .     S
C82    C97     1.388   .     A
C82    H102    1.084   .     S
C82    C98     1.399   .     A
C83    C99     1.400   .     A
C83    C85     1.444   .     S
C84    O145    1.382   .     S
C84    C90     1.403   .     A
C84    C305    1.382   .     S
C85    O118    1.287   .     A
C85    O117    1.290   .     A
C86    C87     1.390   .     A
C86    H103    1.085   .     S
C86    C522    1.382   1_545 S
C87    C88     1.390   .     A
C87    C95     1.405   .     S
C88    H104    1.084   .     S
C88    C527    1.380   1_545 S
C89    O125    1.387   .     S
C89    C90     1.405   .     A
C89    C307    1.380   .     S
C91    H105    1.082   .     S
C91    N114    1.366   .     A
C91    C165    1.416   .     S
C92    N113    1.366   .     A
C92    H106    1.081   .     S
C93    H107    1.081   .     S
C93    N113    1.364   .     A
C94    O130    1.384   .     S
C94    N114    1.371   .     A
C94    C166    1.429   .     S
C95    O120    1.280   .     A
C95    O119    1.280   .     A
C96    O122    1.296   .     A
C96    C98     1.452   .     S
C96    O121    1.288   .     A
C97    C735    1.398   1_554 S
C97    H766    1.084   1_554 S
C99    C100    1.394   .     A
C99    H110    1.084   .     S
C100   O140    1.381   .     S
C100   C101    1.394   .     A
C101   H768    1.080   .     S
H109   C754    1.084   .     S
H111   C758    1.080   1_554 S
N113   Zn123   2.011   .     S
N114   Zn124   2.011   .     S
O115   Zn123   1.985   .     S
O116   Zn124   1.991   .     S
O117   Zn123   1.987   .     S
O118   Zn124   1.946   .     S
O119   Zn123   1.991   .     S
O120   Zn124   1.985   .     S
O121   Zn123   1.946   .     S
O122   Zn124   1.987   .     S
O125   C126    1.411   .     S
C126   H128    1.109   .     S
C126   H129    1.111   .     S
C126   H127    1.114   .     S
O130   C131    1.412   .     S
C131   H134    1.114   .     S
C131   H133    1.110   .     S
C131   H132    1.109   .     S
O135   C136    1.419   .     S
C136   H138    1.114   .     S
C136   H139    1.107   .     S
C136   H137    1.108   .     S
O140   C141    1.411   .     S
C141   H142    1.113   .     S
C141   H143    1.114   .     S
C141   H363    1.109   .     S
H144   C579    1.109   1_545 S
O145   H146    0.992   .     S
C147   O189    1.283   .     A
C147   C163    1.414   .     S
C147   O188    1.279   .     A
C148   C149    1.406   .     A
C148   C174    1.416   .     A
C148   C807    1.413   .     S
C149   C156    1.407   .     A
C149   C153    1.414   .     A
C150   C154    1.407   .     A
C150   C805    1.413   1_554 S
C150   C808    1.420   1_554 S
C151   C152    1.392   .     A
C151   C807    1.420   .     S
C151   C827    1.398   .     S
C152   C153    1.386   .     A
C152   H181    1.084   .     S
C153   H185    1.083   .     S
C154   C171    1.409   .     A
C154   O208    1.391   .     S
C155   C170    1.388   .     A
C155   H175    1.084   .     S
C155   C171    1.399   .     A
C156   C172    1.400   .     A
C156   C158    1.444   .     S
C157   O218    1.382   .     S
C157   C163    1.403   .     A
C157   C378    1.382   .     S
C158   O191    1.287   .     A
C158   O190    1.290   .     A
C159   C160    1.390   .     A
C159   H176    1.085   .     S
C159   C595    1.382   1_545 S
C160   C161    1.390   .     A
C160   C168    1.405   .     S
C161   H177    1.084   .     S
C161   C600    1.380   1_545 S
C162   O198    1.387   .     S
C162   C163    1.405   .     A
C162   C380    1.380   .     S
C164   H178    1.082   .     S
C164   N187    1.366   .     A
C164   C19     1.416   1_655 S
C165   N186    1.366   .     A
C165   H179    1.081   .     S
C166   H180    1.081   .     S
C166   N186    1.364   .     A
C167   O203    1.384   .     S
C167   N187    1.371   .     A
C167   C20     1.429   1_655 S
C168   O193    1.280   .     A
C168   O192    1.280   .     A
C169   O195    1.296   .     A
C169   C171    1.452   .     S
C169   O194    1.288   .     A
C170   C808    1.398   1_554 S
C170   H839    1.084   1_554 S
C172   C173    1.394   .     A
C172   H183    1.084   .     S
C173   O213    1.381   .     S
C173   C174    1.394   .     A
C174   H841    1.080   .     S
H182   C827    1.084   .     S
H184   C831    1.080   1_554 S
N186   Zn196   2.011   .     S
N187   Zn197   2.011   .     S
O188   Zn196   1.985   .     S
O189   Zn197   1.991   .     S
O190   Zn196   1.987   .     S
O191   Zn197   1.946   .     S
O192   Zn196   1.991   .     S
O193   Zn197   1.985   .     S
O194   Zn196   1.946   .     S
O195   Zn197   1.987   .     S
O198   C199    1.411   .     S
C199   H201    1.109   .     S
C199   H202    1.111   .     S
C199   H200    1.114   .     S
O203   C204    1.412   .     S
C204   H207    1.114   .     S
C204   H206    1.110   .     S
C204   H205    1.109   .     S
O208   C209    1.419   .     S
C209   H211    1.114   .     S
C209   H212    1.107   .     S
C209   H210    1.108   .     S
O213   C214    1.411   .     S
C214   H215    1.113   .     S
C214   H216    1.114   .     S
C214   H436    1.109   .     S
H217   C652    1.109   1_545 S
O218   H219    0.992   .     S
C220   O262    1.283   .     A
C220   C236    1.414   .     S
C220   O261    1.279   .     A
C221   C222    1.406   .     A
C221   C247    1.416   .     A
C221   C880    1.413   .     S
C222   C229    1.407   .     A
C222   C226    1.414   .     A
C223   C227    1.407   .     A
C223   C878    1.413   1_554 S
C223   C881    1.420   1_554 S
C224   C225    1.392   .     A
C224   C880    1.420   .     S
C224   C900    1.398   .     S
C225   C226    1.386   .     A
C225   H254    1.084   .     S
C226   H258    1.083   .     S
C227   C244    1.409   .     A
C227   O281    1.391   .     S
C228   C243    1.388   .     A
C228   H248    1.084   .     S
C228   C244    1.399   .     A
C229   C245    1.400   .     A
C229   C231    1.444   .     S
C230   O291    1.382   .     S
C230   C236    1.403   .     A
C230   C451    1.382   .     S
C231   O264    1.287   .     A
C231   O263    1.290   .     A
C232   C233    1.390   .     A
C232   H249    1.085   .     S
C233   C234    1.390   .     A
C233   C241    1.405   .     S
C234   H250    1.084   .     S
C235   O271    1.387   .     S
C235   C236    1.405   .     A
C235   C453    1.380   .     S
C237   H251    1.082   .     S
C237   N260    1.366   .     A
C237   C311    1.416   .     S
C238   N259    1.366   .     A
C238   H252    1.081   .     S
C238   C383    1.416   1_455 S
C239   H253    1.081   .     S
C239   N259    1.364   .     A
C239   C386    1.429   1_455 S
C240   O276    1.384   .     S
C240   N260    1.371   .     A
C240   C312    1.429   .     S
C241   O266    1.280   .     A
C241   O265    1.280   .     A
C242   O268    1.296   .     A
C242   C244    1.452   .     S
C242   O267    1.288   .     A
C243   C881    1.398   1_554 S
C243   H912    1.084   1_554 S
C245   C246    1.394   .     A
C245   H256    1.084   .     S
C246   O286    1.381   .     S
C246   C247    1.394   .     A
C247   H914    1.080   .     S
H255   C900    1.084   .     S
H257   C904    1.080   1_554 S
N259   Zn269   2.011   .     S
N260   Zn270   2.011   .     S
O261   Zn269   1.985   .     S
O262   Zn270   1.991   .     S
O263   Zn269   1.987   .     S
O264   Zn270   1.946   .     S
O265   Zn269   1.991   .     S
O266   Zn270   1.985   .     S
O267   Zn269   1.946   .     S
O268   Zn270   1.987   .     S
O271   C272    1.411   .     S
C272   H274    1.109   .     S
C272   H275    1.111   .     S
C272   H273    1.114   .     S
O276   C277    1.412   .     S
C277   H280    1.114   .     S
C277   H279    1.110   .     S
C277   H278    1.109   .     S
O281   C282    1.419   .     S
C282   H284    1.114   .     S
C282   H285    1.107   .     S
C282   H283    1.108   .     S
O286   C287    1.411   .     S
C287   H288    1.113   .     S
C287   H289    1.114   .     S
C287   H509    1.109   .     S
O291   H292    0.992   .     S
C293   O335    1.283   .     A
C293   C309    1.414   .     S
C293   O334    1.279   .     A
C294   C295    1.406   .     A
C294   C320    1.416   .     A
C294   C953    1.413   .     S
C295   C302    1.407   .     A
C295   C299    1.414   .     A
C296   C300    1.407   .     A
C296   C951    1.413   1_554 S
C296   C954    1.420   1_554 S
C297   C298    1.392   .     A
C297   C953    1.420   .     S
C297   C973    1.398   .     S
C298   C299    1.386   .     A
C298   H327    1.084   .     S
C299   H331    1.083   .     S
C300   C317    1.409   .     A
C300   O354    1.391   .     S
C301   C316    1.388   .     A
C301   H321    1.084   .     S
C301   C317    1.399   .     A
C302   C318    1.400   .     A
C302   C304    1.444   .     S
C303   O364    1.382   .     S
C303   C309    1.403   .     A
C303   C524    1.382   .     S
C304   O337    1.287   .     A
C304   O336    1.290   .     A
C305   C306    1.390   .     A
C305   H322    1.085   .     S
C306   C307    1.390   .     A
C306   C314    1.405   .     S
C307   H323    1.084   .     S
C308   O344    1.387   .     S
C308   C309    1.405   .     A
C308   C526    1.380   .     S
C310   H324    1.082   .     S
C310   N333    1.366   .     A
C310   C384    1.416   .     S
C311   N332    1.366   .     A
C311   H325    1.081   .     S
C312   H326    1.081   .     S
C312   N332    1.364   .     A
C313   O349    1.384   .     S
C313   N333    1.371   .     A
C313   C385    1.429   .     S
C314   O339    1.280   .     A
C314   O338    1.280   .     A
C315   O341    1.296   .     A
C315   C317    1.452   .     S
C315   O340    1.288   .     A
C316   C954    1.398   1_554 S
C316   H985    1.084   1_554 S
C318   C319    1.394   .     A
C318   H329    1.084   .     S
C319   O359    1.381   .     S
C319   C320    1.394   .     A
C320   H987    1.080   .     S
H328   C973    1.084   .     S
H330   C977    1.080   1_554 S
N332   Zn342   2.011   .     S
N333   Zn343   2.011   .     S
O334   Zn342   1.985   .     S
O335   Zn343   1.991   .     S
O336   Zn342   1.987   .     S
O337   Zn343   1.946   .     S
O338   Zn342   1.991   .     S
O339   Zn343   1.985   .     S
O340   Zn342   1.946   .     S
O341   Zn343   1.987   .     S
O344   C345    1.411   .     S
C345   H347    1.109   .     S
C345   H348    1.111   .     S
C345   H346    1.114   .     S
O349   C350    1.412   .     S
C350   H353    1.114   .     S
C350   H352    1.110   .     S
C350   H351    1.109   .     S
O354   C355    1.419   .     S
C355   H357    1.114   .     S
C355   H358    1.107   .     S
C355   H356    1.108   .     S
O359   C360    1.411   .     S
C360   H361    1.113   .     S
C360   H362    1.114   .     S
C360   H582    1.109   .     S
O364   H365    0.992   .     S
C366   O408    1.283   .     A
C366   C382    1.414   .     S
C366   O407    1.279   .     A
C367   C368    1.406   .     A
C367   C393    1.416   .     A
C367   C1026   1.413   .     S
C368   C375    1.407   .     A
C368   C372    1.414   .     A
C369   C373    1.407   .     A
C369   C1024   1.413   1_554 S
C369   C1027   1.420   1_554 S
C370   C371    1.392   .     A
C370   C1026   1.420   .     S
C370   C1046   1.398   .     S
C371   C372    1.386   .     A
C371   H400    1.084   .     S
C372   H404    1.083   .     S
C373   C390    1.409   .     A
C373   O427    1.391   .     S
C374   C389    1.388   .     A
C374   H394    1.084   .     S
C374   C390    1.399   .     A
C375   C391    1.400   .     A
C375   C377    1.444   .     S
C376   O437    1.382   .     S
C376   C382    1.403   .     A
C376   C597    1.382   .     S
C377   O410    1.287   .     A
C377   O409    1.290   .     A
C378   C379    1.390   .     A
C378   H395    1.085   .     S
C379   C380    1.390   .     A
C379   C387    1.405   .     S
C380   H396    1.084   .     S
C381   O417    1.387   .     S
C381   C382    1.405   .     A
C381   C599    1.380   .     S
C383   H397    1.082   .     S
C383   N406    1.366   .     A
C383   C238    1.416   1_655 S
C384   N405    1.366   .     A
C384   H398    1.081   .     S
C385   H399    1.081   .     S
C385   N405    1.364   .     A
C386   O422    1.384   .     S
C386   N406    1.371   .     A
C386   C239    1.429   1_655 S
C387   O412    1.280   .     A
C387   O411    1.280   .     A
C388   O414    1.296   .     A
C388   C390    1.452   .     S
C388   O413    1.288   .     A
C389   C1027   1.398   1_554 S
C389   H1058   1.084   1_554 S
C391   C392    1.394   .     A
C391   H402    1.084   .     S
C392   O432    1.381   .     S
C392   C393    1.394   .     A
C393   H1060   1.080   .     S
H401   C1046   1.084   .     S
H403   C1050   1.080   1_554 S
N405   Zn415   2.011   .     S
N406   Zn416   2.011   .     S
O407   Zn415   1.985   .     S
O408   Zn416   1.991   .     S
O409   Zn415   1.987   .     S
O410   Zn416   1.946   .     S
O411   Zn415   1.991   .     S
O412   Zn416   1.985   .     S
O413   Zn415   1.946   .     S
O414   Zn416   1.987   .     S
O417   C418    1.411   .     S
C418   H420    1.109   .     S
C418   H421    1.111   .     S
C418   H419    1.114   .     S
O422   C423    1.412   .     S
C423   H426    1.114   .     S
C423   H425    1.110   .     S
C423   H424    1.109   .     S
O427   C428    1.419   .     S
C428   H430    1.114   .     S
C428   H431    1.107   .     S
C428   H429    1.108   .     S
O432   C433    1.411   .     S
C433   H434    1.113   .     S
C433   H435    1.114   .     S
C433   H655    1.109   .     S
O437   H438    0.992   .     S
C439   O481    1.283   .     A
C439   C455    1.414   .     S
C439   O480    1.279   .     A
C440   C441    1.406   .     A
C440   C466    1.416   .     A
C440   C1099   1.413   .     S
C441   C448    1.407   .     A
C441   C445    1.414   .     A
C442   C446    1.407   .     A
C442   C1097   1.413   1_554 S
C442   C1100   1.420   1_554 S
C443   C444    1.392   .     A
C443   C1099   1.420   .     S
C443   C1119   1.398   .     S
C444   C445    1.386   .     A
C444   H473    1.084   .     S
C445   H477    1.083   .     S
C446   C463    1.409   .     A
C446   O500    1.391   .     S
C447   C462    1.388   .     A
C447   H467    1.084   .     S
C447   C463    1.399   .     A
C448   C464    1.400   .     A
C448   C450    1.444   .     S
C449   O510    1.382   .     S
C449   C455    1.403   .     A
C449   C13     1.382   1_565 S
C450   O483    1.287   .     A
C450   O482    1.290   .     A
C451   C452    1.390   .     A
C451   H468    1.085   .     S
C452   C453    1.390   .     A
C452   C460    1.405   .     S
C453   H469    1.084   .     S
C454   O490    1.387   .     S
C454   C455    1.405   .     A
C454   C15     1.380   1_565 S
C456   H470    1.082   .     S
C456   N479    1.366   .     A
C456   C530    1.416   .     S
C457   N478    1.366   .     A
C457   H471    1.081   .     S
C457   C602    1.416   1_455 S
C458   H472    1.081   .     S
C458   N478    1.364   .     A
C458   C605    1.429   1_455 S
C459   O495    1.384   .     S
C459   N479    1.371   .     A
C459   C531    1.429   .     S
C460   O485    1.280   .     A
C460   O484    1.280   .     A
C461   O487    1.296   .     A
C461   C463    1.452   .     S
C461   O486    1.288   .     A
C462   C1100   1.398   1_554 S
C462   H1131   1.084   1_554 S
C464   C465    1.394   .     A
C464   H475    1.084   .     S
C465   O505    1.381   .     S
C465   C466    1.394   .     A
C466   H1133   1.080   .     S
H474   C1119   1.084   .     S
H476   C1123   1.080   1_554 S
N478   Zn488   2.011   .     S
N479   Zn489   2.011   .     S
O480   Zn488   1.985   .     S
O481   Zn489   1.991   .     S
O482   Zn488   1.987   .     S
O483   Zn489   1.946   .     S
O484   Zn488   1.991   .     S
O485   Zn489   1.985   .     S
O486   Zn488   1.946   .     S
O487   Zn489   1.987   .     S
O490   C491    1.411   .     S
C491   H493    1.109   .     S
C491   H494    1.111   .     S
C491   H492    1.114   .     S
O495   C496    1.412   .     S
C496   H499    1.114   .     S
C496   H498    1.110   .     S
C496   H497    1.109   .     S
O500   C501    1.419   .     S
C501   H503    1.114   .     S
C501   H504    1.107   .     S
C501   H502    1.108   .     S
O505   C506    1.411   .     S
C506   H507    1.113   .     S
C506   H508    1.114   .     S
C506   H71     1.109   1_565 S
O510   H511    0.992   .     S
C512   O554    1.283   .     A
C512   C528    1.414   .     S
C512   O553    1.279   .     A
C513   C514    1.406   .     A
C513   C539    1.416   .     A
C513   C1172   1.413   .     S
C514   C521    1.407   .     A
C514   C518    1.414   .     A
C515   C519    1.407   .     A
C515   C1170   1.413   1_554 S
C515   C1173   1.420   1_554 S
C516   C517    1.392   .     A
C516   C1172   1.420   .     S
C516   C1192   1.398   .     S
C517   C518    1.386   .     A
C517   H546    1.084   .     S
C518   H550    1.083   .     S
C519   C536    1.409   .     A
C519   O573    1.391   .     S
C520   C535    1.388   .     A
C520   H540    1.084   .     S
C520   C536    1.399   .     A
C521   C537    1.400   .     A
C521   C523    1.444   .     S
C522   O583    1.382   .     S
C522   C528    1.403   .     A
C522   C86     1.382   1_565 S
C523   O556    1.287   .     A
C523   O555    1.290   .     A
C524   C525    1.390   .     A
C524   H541    1.085   .     S
C525   C526    1.390   .     A
C525   C533    1.405   .     S
C526   H542    1.084   .     S
C527   O563    1.387   .     S
C527   C528    1.405   .     A
C527   C88     1.380   1_565 S
C529   H543    1.082   .     S
C529   N552    1.366   .     A
C529   C603    1.416   .     S
C530   N551    1.366   .     A
C530   H544    1.081   .     S
C531   H545    1.081   .     S
C531   N551    1.364   .     A
C532   O568    1.384   .     S
C532   N552    1.371   .     A
C532   C604    1.429   .     S
C533   O558    1.280   .     A
C533   O557    1.280   .     A
C534   O560    1.296   .     A
C534   C536    1.452   .     S
C534   O559    1.288   .     A
C535   C1173   1.398   1_554 S
C535   H1204   1.084   1_554 S
C537   C538    1.394   .     A
C537   H548    1.084   .     S
C538   O578    1.381   .     S
C538   C539    1.394   .     A
C539   H1206   1.080   .     S
H547   C1192   1.084   .     S
H549   C1196   1.080   1_554 S
N551   Zn561   2.011   .     S
N552   Zn562   2.011   .     S
O553   Zn561   1.985   .     S
O554   Zn562   1.991   .     S
O555   Zn561   1.987   .     S
O556   Zn562   1.946   .     S
O557   Zn561   1.991   .     S
O558   Zn562   1.985   .     S
O559   Zn561   1.946   .     S
O560   Zn562   1.987   .     S
O563   C564    1.411   .     S
C564   H566    1.109   .     S
C564   H567    1.111   .     S
C564   H565    1.114   .     S
O568   C569    1.412   .     S
C569   H572    1.114   .     S
C569   H571    1.110   .     S
C569   H570    1.109   .     S
O573   C574    1.419   .     S
C574   H576    1.114   .     S
C574   H577    1.107   .     S
C574   H575    1.108   .     S
O578   C579    1.411   .     S
C579   H580    1.113   .     S
C579   H581    1.114   .     S
C579   H144    1.109   1_565 S
O583   H584    0.992   .     S
C585   O627    1.283   .     A
C585   C601    1.414   .     S
C585   O626    1.279   .     A
C586   C587    1.406   .     A
C586   C612    1.416   .     A
C586   C1245   1.413   .     S
C587   C594    1.407   .     A
C587   C591    1.414   .     A
C588   C592    1.407   .     A
C588   C1243   1.413   1_554 S
C588   C1246   1.420   1_554 S
C589   C590    1.392   .     A
C589   C1245   1.420   .     S
C589   C1265   1.398   .     S
C590   C591    1.386   .     A
C590   H619    1.084   .     S
C591   H623    1.083   .     S
C592   C609    1.409   .     A
C592   O646    1.391   .     S
C593   C608    1.388   .     A
C593   H613    1.084   .     S
C593   C609    1.399   .     A
C594   C610    1.400   .     A
C594   C596    1.444   .     S
C595   O656    1.382   .     S
C595   C601    1.403   .     A
C595   C159    1.382   1_565 S
C596   O629    1.287   .     A
C596   O628    1.290   .     A
C597   C598    1.390   .     A
C597   H614    1.085   .     S
C598   C599    1.390   .     A
C598   C606    1.405   .     S
C599   H615    1.084   .     S
C600   O636    1.387   .     S
C600   C601    1.405   .     A
C600   C161    1.380   1_565 S
C602   H616    1.082   .     S
C602   N625    1.366   .     A
C602   C457    1.416   1_655 S
C603   N624    1.366   .     A
C603   H617    1.081   .     S
C604   H618    1.081   .     S
C604   N624    1.364   .     A
C605   O641    1.384   .     S
C605   N625    1.371   .     A
C605   C458    1.429   1_655 S
C606   O631    1.280   .     A
C606   O630    1.280   .     A
C607   O633    1.296   .     A
C607   C609    1.452   .     S
C607   O632    1.288   .     A
C608   C1246   1.398   1_554 S
C608   H1277   1.084   1_554 S
C610   C611    1.394   .     A
C610   H621    1.084   .     S
C611   O651    1.381   .     S
C611   C612    1.394   .     A
C612   H1279   1.080   .     S
H620   C1265   1.084   .     S
H622   C1269   1.080   1_554 S
N624   Zn634   2.011   .     S
N625   Zn635   2.011   .     S
O626   Zn634   1.985   .     S
O627   Zn635   1.991   .     S
O628   Zn634   1.987   .     S
O629   Zn635   1.946   .     S
O630   Zn634   1.991   .     S
O631   Zn635   1.985   .     S
O632   Zn634   1.946   .     S
O633   Zn635   1.987   .     S
O636   C637    1.411   .     S
C637   H639    1.109   .     S
C637   H640    1.111   .     S
C637   H638    1.114   .     S
O641   C642    1.412   .     S
C642   H645    1.114   .     S
C642   H644    1.110   .     S
C642   H643    1.109   .     S
O646   C647    1.419   .     S
C647   H649    1.114   .     S
C647   H650    1.107   .     S
C647   H648    1.108   .     S
O651   C652    1.411   .     S
C652   H653    1.113   .     S
C652   H654    1.114   .     S
C652   H217    1.109   1_565 S
O656   H657    0.992   .     S
C658   O700    1.283   .     A
C658   C674    1.414   .     S
C658   O699    1.279   .     A
C659   C660    1.406   .     A
C659   C685    1.416   .     A
C659   C4      1.413   1_556 S
C660   C667    1.407   .     A
C660   C664    1.414   .     A
C661   C665    1.407   .     A
C662   C663    1.392   .     A
C662   C4      1.420   1_556 S
C662   C24     1.398   1_556 S
C663   C664    1.386   .     A
C663   H692    1.084   .     S
C664   H696    1.083   .     S
C665   C682    1.409   .     A
C665   O719    1.391   .     S
C666   C681    1.388   .     A
C666   H686    1.084   .     S
C666   C682    1.399   .     A
C667   C683    1.400   .     A
C667   C669    1.444   .     S
C668   O729    1.382   .     S
C668   C674    1.403   .     A
C668   C889    1.382   .     S
C669   O702    1.287   .     A
C669   O701    1.290   .     A
C670   C671    1.390   .     A
C670   H687    1.085   .     S
C670   C1106   1.382   1_545 S
C671   C672    1.390   .     A
C671   C679    1.405   .     S
C672   H688    1.084   .     S
C672   C1111   1.380   1_545 S
C673   O709    1.387   .     S
C673   C674    1.405   .     A
C673   C891    1.380   .     S
C675   H689    1.082   .     S
C675   N698    1.366   .     A
C675   C749    1.416   .     S
C676   N697    1.366   .     A
C676   H690    1.081   .     S
C676   C821    1.416   1_455 S
C677   H691    1.081   .     S
C677   N697    1.364   .     A
C677   C824    1.429   1_455 S
C678   O714    1.384   .     S
C678   N698    1.371   .     A
C678   C750    1.429   .     S
C679   O704    1.280   .     A
C679   O703    1.280   .     A
C680   O706    1.296   .     A
C680   C682    1.452   .     S
C680   O705    1.288   .     A
C683   C684    1.394   .     A
C683   H694    1.084   .     S
C684   O724    1.381   .     S
C684   C685    1.394   .     A
C685   H38     1.080   1_556 S
H693   C24     1.084   1_556 S
N697   Zn707   2.011   .     S
N698   Zn708   2.011   .     S
O699   Zn707   1.985   .     S
O700   Zn708   1.991   .     S
O701   Zn707   1.987   .     S
O702   Zn708   1.946   .     S
O703   Zn707   1.991   .     S
O704   Zn708   1.985   .     S
O705   Zn707   1.946   .     S
O706   Zn708   1.987   .     S
O709   C710    1.411   .     S
C710   H712    1.109   .     S
C710   H713    1.111   .     S
C710   H711    1.114   .     S
O714   C715    1.412   .     S
C715   H718    1.114   .     S
C715   H717    1.110   .     S
C715   H716    1.109   .     S
O719   C720    1.419   .     S
C720   H722    1.114   .     S
C720   H723    1.107   .     S
C720   H721    1.108   .     S
O724   C725    1.411   .     S
C725   H726    1.113   .     S
C725   H727    1.114   .     S
C725   H947    1.109   .     S
H728   C1163   1.109   1_545 S
O729   H730    0.992   .     S
C731   O773    1.283   .     A
C731   C747    1.414   .     S
C731   O772    1.279   .     A
C732   C733    1.406   .     A
C732   C758    1.416   .     A
C732   C77     1.413   1_556 S
C733   C740    1.407   .     A
C733   C737    1.414   .     A
C734   C738    1.407   .     A
C735   C736    1.392   .     A
C735   C77     1.420   1_556 S
C735   C97     1.398   1_556 S
C736   C737    1.386   .     A
C736   H765    1.084   .     S
C737   H769    1.083   .     S
C738   C755    1.409   .     A
C738   O792    1.391   .     S
C739   C754    1.388   .     A
C739   H759    1.084   .     S
C739   C755    1.399   .     A
C740   C756    1.400   .     A
C740   C742    1.444   .     S
C741   O802    1.382   .     S
C741   C747    1.403   .     A
C741   C962    1.382   .     S
C742   O775    1.287   .     A
C742   O774    1.290   .     A
C743   C744    1.390   .     A
C743   H760    1.085   .     S
C743   C1179   1.382   1_545 S
C744   C745    1.390   .     A
C744   C752    1.405   .     S
C745   H761    1.084   .     S
C745   C1184   1.380   1_545 S
C746   O782    1.387   .     S
C746   C747    1.405   .     A
C746   C964    1.380   .     S
C748   H762    1.082   .     S
C748   N771    1.366   .     A
C748   C822    1.416   .     S
C749   N770    1.366   .     A
C749   H763    1.081   .     S
C750   H764    1.081   .     S
C750   N770    1.364   .     A
C751   O787    1.384   .     S
C751   N771    1.371   .     A
C751   C823    1.429   .     S
C752   O777    1.280   .     A
C752   O776    1.280   .     A
C753   O779    1.296   .     A
C753   C755    1.452   .     S
C753   O778    1.288   .     A
C756   C757    1.394   .     A
C756   H767    1.084   .     S
C757   O797    1.381   .     S
C757   C758    1.394   .     A
C758   H111    1.080   1_556 S
H766   C97     1.084   1_556 S
N770   Zn780   2.011   .     S
N771   Zn781   2.011   .     S
O772   Zn780   1.985   .     S
O773   Zn781   1.991   .     S
O774   Zn780   1.987   .     S
O775   Zn781   1.946   .     S
O776   Zn780   1.991   .     S
O777   Zn781   1.985   .     S
O778   Zn780   1.946   .     S
O779   Zn781   1.987   .     S
O782   C783    1.411   .     S
C783   H785    1.109   .     S
C783   H786    1.111   .     S
C783   H784    1.114   .     S
O787   C788    1.412   .     S
C788   H791    1.114   .     S
C788   H790    1.110   .     S
C788   H789    1.109   .     S
O792   C793    1.419   .     S
C793   H795    1.114   .     S
C793   H796    1.107   .     S
C793   H794    1.108   .     S
O797   C798    1.411   .     S
C798   H799    1.113   .     S
C798   H800    1.114   .     S
C798   H1020   1.109   .     S
H801   C1236   1.109   1_545 S
O802   H803    0.992   .     S
C804   O846    1.283   .     A
C804   C820    1.414   .     S
C804   O845    1.279   .     A
C805   C806    1.406   .     A
C805   C831    1.416   .     A
C805   C150    1.413   1_556 S
C806   C813    1.407   .     A
C806   C810    1.414   .     A
C807   C811    1.407   .     A
C808   C809    1.392   .     A
C808   C150    1.420   1_556 S
C808   C170    1.398   1_556 S
C809   C810    1.386   .     A
C809   H838    1.084   .     S
C810   H842    1.083   .     S
C811   C828    1.409   .     A
C811   O865    1.391   .     S
C812   C827    1.388   .     A
C812   H832    1.084   .     S
C812   C828    1.399   .     A
C813   C829    1.400   .     A
C813   C815    1.444   .     S
C814   O875    1.382   .     S
C814   C820    1.403   .     A
C814   C1035   1.382   .     S
C815   O848    1.287   .     A
C815   O847    1.290   .     A
C816   C817    1.390   .     A
C816   H833    1.085   .     S
C816   C1252   1.382   1_545 S
C817   C818    1.390   .     A
C817   C825    1.405   .     S
C818   H834    1.084   .     S
C818   C1257   1.380   1_545 S
C819   O855    1.387   .     S
C819   C820    1.405   .     A
C819   C1037   1.380   .     S
C821   H835    1.082   .     S
C821   N844    1.366   .     A
C821   C676    1.416   1_655 S
C822   N843    1.366   .     A
C822   H836    1.081   .     S
C823   H837    1.081   .     S
C823   N843    1.364   .     A
C824   O860    1.384   .     S
C824   N844    1.371   .     A
C824   C677    1.429   1_655 S
C825   O850    1.280   .     A
C825   O849    1.280   .     A
C826   O852    1.296   .     A
C826   C828    1.452   .     S
C826   O851    1.288   .     A
C829   C830    1.394   .     A
C829   H840    1.084   .     S
C830   O870    1.381   .     S
C830   C831    1.394   .     A
C831   H184    1.080   1_556 S
H839   C170    1.084   1_556 S
N843   Zn853   2.011   .     S
N844   Zn854   2.011   .     S
O845   Zn853   1.985   .     S
O846   Zn854   1.991   .     S
O847   Zn853   1.987   .     S
O848   Zn854   1.946   .     S
O849   Zn853   1.991   .     S
O850   Zn854   1.985   .     S
O851   Zn853   1.946   .     S
O852   Zn854   1.987   .     S
O855   C856    1.411   .     S
C856   H858    1.109   .     S
C856   H859    1.111   .     S
C856   H857    1.114   .     S
O860   C861    1.412   .     S
C861   H864    1.114   .     S
C861   H863    1.110   .     S
C861   H862    1.109   .     S
O865   C866    1.419   .     S
C866   H868    1.114   .     S
C866   H869    1.107   .     S
C866   H867    1.108   .     S
O870   C871    1.411   .     S
C871   H872    1.113   .     S
C871   H873    1.114   .     S
C871   H1093   1.109   .     S
H874   C1309   1.109   1_545 S
O875   H876    0.992   .     S
C877   O919    1.283   .     A
C877   C893    1.414   .     S
C877   O918    1.279   .     A
C878   C879    1.406   .     A
C878   C904    1.416   .     A
C878   C223    1.413   1_556 S
C879   C886    1.407   .     A
C879   C883    1.414   .     A
C880   C884    1.407   .     A
C881   C882    1.392   .     A
C881   C223    1.420   1_556 S
C881   C243    1.398   1_556 S
C882   C883    1.386   .     A
C882   H911    1.084   .     S
C883   H915    1.083   .     S
C884   C901    1.409   .     A
C884   O938    1.391   .     S
C885   C900    1.388   .     A
C885   H905    1.084   .     S
C885   C901    1.399   .     A
C886   C902    1.400   .     A
C886   C888    1.444   .     S
C887   O948    1.382   .     S
C887   C893    1.403   .     A
C887   C1108   1.382   .     S
C888   O921    1.287   .     A
C888   O920    1.290   .     A
C889   C890    1.390   .     A
C889   H906    1.085   .     S
C890   C891    1.390   .     A
C890   C898    1.405   .     S
C891   H907    1.084   .     S
C892   O928    1.387   .     S
C892   C893    1.405   .     A
C892   C1110   1.380   .     S
C894   H908    1.082   .     S
C894   N917    1.366   .     A
C894   C968    1.416   .     S
C895   N916    1.366   .     A
C895   H909    1.081   .     S
C895   C1040   1.416   1_455 S
C896   H910    1.081   .     S
C896   N916    1.364   .     A
C896   C1043   1.429   1_455 S
C897   O933    1.384   .     S
C897   N917    1.371   .     A
C897   C969    1.429   .     S
C898   O923    1.280   .     A
C898   O922    1.280   .     A
C899   O925    1.296   .     A
C899   C901    1.452   .     S
C899   O924    1.288   .     A
C902   C903    1.394   .     A
C902   H913    1.084   .     S
C903   O943    1.381   .     S
C903   C904    1.394   .     A
C904   H257    1.080   1_556 S
H912   C243    1.084   1_556 S
N916   Zn926   2.011   .     S
N917   Zn927   2.011   .     S
O918   Zn926   1.985   .     S
O919   Zn927   1.991   .     S
O920   Zn926   1.987   .     S
O921   Zn927   1.946   .     S
O922   Zn926   1.991   .     S
O923   Zn927   1.985   .     S
O924   Zn926   1.946   .     S
O925   Zn927   1.987   .     S
O928   C929    1.411   .     S
C929   H931    1.109   .     S
C929   H932    1.111   .     S
C929   H930    1.114   .     S
O933   C934    1.412   .     S
C934   H937    1.114   .     S
C934   H936    1.110   .     S
C934   H935    1.109   .     S
O938   C939    1.419   .     S
C939   H941    1.114   .     S
C939   H942    1.107   .     S
C939   H940    1.108   .     S
O943   C944    1.411   .     S
C944   H945    1.113   .     S
C944   H946    1.114   .     S
C944   H1166   1.109   .     S
O948   H949    0.992   .     S
C950   O992    1.283   .     A
C950   C966    1.414   .     S
C950   O991    1.279   .     A
C951   C952    1.406   .     A
C951   C977    1.416   .     A
C951   C296    1.413   1_556 S
C952   C959    1.407   .     A
C952   C956    1.414   .     A
C953   C957    1.407   .     A
C954   C955    1.392   .     A
C954   C296    1.420   1_556 S
C954   C316    1.398   1_556 S
C955   C956    1.386   .     A
C955   H984    1.084   .     S
C956   H988    1.083   .     S
C957   C974    1.409   .     A
C957   O1011   1.391   .     S
C958   C973    1.388   .     A
C958   H978    1.084   .     S
C958   C974    1.399   .     A
C959   C975    1.400   .     A
C959   C961    1.444   .     S
C960   O1021   1.382   .     S
C960   C966    1.403   .     A
C960   C1181   1.382   .     S
C961   O994    1.287   .     A
C961   O993    1.290   .     A
C962   C963    1.390   .     A
C962   H979    1.085   .     S
C963   C964    1.390   .     A
C963   C971    1.405   .     S
C964   H980    1.084   .     S
C965   O1001   1.387   .     S
C965   C966    1.405   .     A
C965   C1183   1.380   .     S
C967   H981    1.082   .     S
C967   N990    1.366   .     A
C967   C1041   1.416   .     S
C968   N989    1.366   .     A
C968   H982    1.081   .     S
C969   H983    1.081   .     S
C969   N989    1.364   .     A
C970   O1006   1.384   .     S
C970   N990    1.371   .     A
C970   C1042   1.429   .     S
C971   O996    1.280   .     A
C971   O995    1.280   .     A
C972   O998    1.296   .     A
C972   C974    1.452   .     S
C972   O997    1.288   .     A
C975   C976    1.394   .     A
C975   H986    1.084   .     S
C976   O1016   1.381   .     S
C976   C977    1.394   .     A
C977   H330    1.080   1_556 S
H985   C316    1.084   1_556 S
N989   Zn999   2.011   .     S
N990   Zn1000  2.011   .     S
O991   Zn999   1.985   .     S
O992   Zn1000  1.991   .     S
O993   Zn999   1.987   .     S
O994   Zn1000  1.946   .     S
O995   Zn999   1.991   .     S
O996   Zn1000  1.985   .     S
O997   Zn999   1.946   .     S
O998   Zn1000  1.987   .     S
O1001  C1002   1.411   .     S
C1002  H1004   1.109   .     S
C1002  H1005   1.111   .     S
C1002  H1003   1.114   .     S
O1006  C1007   1.412   .     S
C1007  H1010   1.114   .     S
C1007  H1009   1.110   .     S
C1007  H1008   1.109   .     S
O1011  C1012   1.419   .     S
C1012  H1014   1.114   .     S
C1012  H1015   1.107   .     S
C1012  H1013   1.108   .     S
O1016  C1017   1.411   .     S
C1017  H1018   1.113   .     S
C1017  H1019   1.114   .     S
C1017  H1239   1.109   .     S
O1021  H1022   0.992   .     S
C1023  O1065   1.283   .     A
C1023  C1039   1.414   .     S
C1023  O1064   1.279   .     A
C1024  C1025   1.406   .     A
C1024  C1050   1.416   .     A
C1024  C369    1.413   1_556 S
C1025  C1032   1.407   .     A
C1025  C1029   1.414   .     A
C1026  C1030   1.407   .     A
C1027  C1028   1.392   .     A
C1027  C369    1.420   1_556 S
C1027  C389    1.398   1_556 S
C1028  C1029   1.386   .     A
C1028  H1057   1.084   .     S
C1029  H1061   1.083   .     S
C1030  C1047   1.409   .     A
C1030  O1084   1.391   .     S
C1031  C1046   1.388   .     A
C1031  H1051   1.084   .     S
C1031  C1047   1.399   .     A
C1032  C1048   1.400   .     A
C1032  C1034   1.444   .     S
C1033  O1094   1.382   .     S
C1033  C1039   1.403   .     A
C1033  C1254   1.382   .     S
C1034  O1067   1.287   .     A
C1034  O1066   1.290   .     A
C1035  C1036   1.390   .     A
C1035  H1052   1.085   .     S
C1036  C1037   1.390   .     A
C1036  C1044   1.405   .     S
C1037  H1053   1.084   .     S
C1038  O1074   1.387   .     S
C1038  C1039   1.405   .     A
C1038  C1256   1.380   .     S
C1040  H1054   1.082   .     S
C1040  N1063   1.366   .     A
C1040  C895    1.416   1_655 S
C1041  N1062   1.366   .     A
C1041  H1055   1.081   .     S
C1042  H1056   1.081   .     S
C1042  N1062   1.364   .     A
C1043  O1079   1.384   .     S
C1043  N1063   1.371   .     A
C1043  C896    1.429   1_655 S
C1044  O1069   1.280   .     A
C1044  O1068   1.280   .     A
C1045  O1071   1.296   .     A
C1045  C1047   1.452   .     S
C1045  O1070   1.288   .     A
C1048  C1049   1.394   .     A
C1048  H1059   1.084   .     S
C1049  O1089   1.381   .     S
C1049  C1050   1.394   .     A
C1050  H403    1.080   1_556 S
H1058  C389    1.084   1_556 S
N1062  Zn1072  2.011   .     S
N1063  Zn1073  2.011   .     S
O1064  Zn1072  1.985   .     S
O1065  Zn1073  1.991   .     S
O1066  Zn1072  1.987   .     S
O1067  Zn1073  1.946   .     S
O1068  Zn1072  1.991   .     S
O1069  Zn1073  1.985   .     S
O1070  Zn1072  1.946   .     S
O1071  Zn1073  1.987   .     S
O1074  C1075   1.411   .     S
C1075  H1077   1.109   .     S
C1075  H1078   1.111   .     S
C1075  H1076   1.114   .     S
O1079  C1080   1.412   .     S
C1080  H1083   1.114   .     S
C1080  H1082   1.110   .     S
C1080  H1081   1.109   .     S
O1084  C1085   1.419   .     S
C1085  H1087   1.114   .     S
C1085  H1088   1.107   .     S
C1085  H1086   1.108   .     S
O1089  C1090   1.411   .     S
C1090  H1091   1.113   .     S
C1090  H1092   1.114   .     S
C1090  H1312   1.109   .     S
O1094  H1095   0.992   .     S
C1096  O1138   1.283   .     A
C1096  C1112   1.414   .     S
C1096  O1137   1.279   .     A
C1097  C1098   1.406   .     A
C1097  C1123   1.416   .     A
C1097  C442    1.413   1_556 S
C1098  C1105   1.407   .     A
C1098  C1102   1.414   .     A
C1099  C1103   1.407   .     A
C1100  C1101   1.392   .     A
C1100  C442    1.420   1_556 S
C1100  C462    1.398   1_556 S
C1101  C1102   1.386   .     A
C1101  H1130   1.084   .     S
C1102  H1134   1.083   .     S
C1103  C1120   1.409   .     A
C1103  O1157   1.391   .     S
C1104  C1119   1.388   .     A
C1104  H1124   1.084   .     S
C1104  C1120   1.399   .     A
C1105  C1121   1.400   .     A
C1105  C1107   1.444   .     S
C1106  O1167   1.382   .     S
C1106  C1112   1.403   .     A
C1106  C670    1.382   1_565 S
C1107  O1140   1.287   .     A
C1107  O1139   1.290   .     A
C1108  C1109   1.390   .     A
C1108  H1125   1.085   .     S
C1109  C1110   1.390   .     A
C1109  C1117   1.405   .     S
C1110  H1126   1.084   .     S
C1111  O1147   1.387   .     S
C1111  C1112   1.405   .     A
C1111  C672    1.380   1_565 S
C1113  H1127   1.082   .     S
C1113  N1136   1.366   .     A
C1113  C1187   1.416   .     S
C1114  N1135   1.366   .     A
C1114  H1128   1.081   .     S
C1114  C1259   1.416   1_455 S
C1115  H1129   1.081   .     S
C1115  N1135   1.364   .     A
C1115  C1262   1.429   1_455 S
C1116  O1152   1.384   .     S
C1116  N1136   1.371   .     A
C1116  C1188   1.429   .     S
C1117  O1142   1.280   .     A
C1117  O1141   1.280   .     A
C1118  O1144   1.296   .     A
C1118  C1120   1.452   .     S
C1118  O1143   1.288   .     A
C1121  C1122   1.394   .     A
C1121  H1132   1.084   .     S
C1122  O1162   1.381   .     S
C1122  C1123   1.394   .     A
C1123  H476    1.080   1_556 S
H1131  C462    1.084   1_556 S
N1135  Zn1145  2.011   .     S
N1136  Zn1146  2.011   .     S
O1137  Zn1145  1.985   .     S
O1138  Zn1146  1.991   .     S
O1139  Zn1145  1.987   .     S
O1140  Zn1146  1.946   .     S
O1141  Zn1145  1.991   .     S
O1142  Zn1146  1.985   .     S
O1143  Zn1145  1.946   .     S
O1144  Zn1146  1.987   .     S
O1147  C1148   1.411   .     S
C1148  H1150   1.109   .     S
C1148  H1151   1.111   .     S
C1148  H1149   1.114   .     S
O1152  C1153   1.412   .     S
C1153  H1156   1.114   .     S
C1153  H1155   1.110   .     S
C1153  H1154   1.109   .     S
O1157  C1158   1.419   .     S
C1158  H1160   1.114   .     S
C1158  H1161   1.107   .     S
C1158  H1159   1.108   .     S
O1162  C1163   1.411   .     S
C1163  H1164   1.113   .     S
C1163  H1165   1.114   .     S
C1163  H728    1.109   1_565 S
O1167  H1168   0.992   .     S
C1169  O1211   1.283   .     A
C1169  C1185   1.414   .     S
C1169  O1210   1.279   .     A
C1170  C1171   1.406   .     A
C1170  C1196   1.416   .     A
C1170  C515    1.413   1_556 S
C1171  C1178   1.407   .     A
C1171  C1175   1.414   .     A
C1172  C1176   1.407   .     A
C1173  C1174   1.392   .     A
C1173  C515    1.420   1_556 S
C1173  C535    1.398   1_556 S
C1174  C1175   1.386   .     A
C1174  H1203   1.084   .     S
C1175  H1207   1.083   .     S
C1176  C1193   1.409   .     A
C1176  O1230   1.391   .     S
C1177  C1192   1.388   .     A
C1177  H1197   1.084   .     S
C1177  C1193   1.399   .     A
C1178  C1194   1.400   .     A
C1178  C1180   1.444   .     S
C1179  O1240   1.382   .     S
C1179  C1185   1.403   .     A
C1179  C743    1.382   1_565 S
C1180  O1213   1.287   .     A
C1180  O1212   1.290   .     A
C1181  C1182   1.390   .     A
C1181  H1198   1.085   .     S
C1182  C1183   1.390   .     A
C1182  C1190   1.405   .     S
C1183  H1199   1.084   .     S
C1184  O1220   1.387   .     S
C1184  C1185   1.405   .     A
C1184  C745    1.380   1_565 S
C1186  H1200   1.082   .     S
C1186  N1209   1.366   .     A
C1186  C1260   1.416   .     S
C1187  N1208   1.366   .     A
C1187  H1201   1.081   .     S
C1188  H1202   1.081   .     S
C1188  N1208   1.364   .     A
C1189  O1225   1.384   .     S
C1189  N1209   1.371   .     A
C1189  C1261   1.429   .     S
C1190  O1215   1.280   .     A
C1190  O1214   1.280   .     A
C1191  O1217   1.296   .     A
C1191  C1193   1.452   .     S
C1191  O1216   1.288   .     A
C1194  C1195   1.394   .     A
C1194  H1205   1.084   .     S
C1195  O1235   1.381   .     S
C1195  C1196   1.394   .     A
C1196  H549    1.080   1_556 S
H1204  C535    1.084   1_556 S
N1208  Zn1218  2.011   .     S
N1209  Zn1219  2.011   .     S
O1210  Zn1218  1.985   .     S
O1211  Zn1219  1.991   .     S
O1212  Zn1218  1.987   .     S
O1213  Zn1219  1.946   .     S
O1214  Zn1218  1.991   .     S
O1215  Zn1219  1.985   .     S
O1216  Zn1218  1.946   .     S
O1217  Zn1219  1.987   .     S
O1220  C1221   1.411   .     S
C1221  H1223   1.109   .     S
C1221  H1224   1.111   .     S
C1221  H1222   1.114   .     S
O1225  C1226   1.412   .     S
C1226  H1229   1.114   .     S
C1226  H1228   1.110   .     S
C1226  H1227   1.109   .     S
O1230  C1231   1.419   .     S
C1231  H1233   1.114   .     S
C1231  H1234   1.107   .     S
C1231  H1232   1.108   .     S
O1235  C1236   1.411   .     S
C1236  H1237   1.113   .     S
C1236  H1238   1.114   .     S
C1236  H801    1.109   1_565 S
O1240  H1241   0.992   .     S
C1242  O1284   1.283   .     A
C1242  C1258   1.414   .     S
C1242  O1283   1.279   .     A
C1243  C1244   1.406   .     A
C1243  C1269   1.416   .     A
C1243  C588    1.413   1_556 S
C1244  C1251   1.407   .     A
C1244  C1248   1.414   .     A
C1245  C1249   1.407   .     A
C1246  C1247   1.392   .     A
C1246  C588    1.420   1_556 S
C1246  C608    1.398   1_556 S
C1247  C1248   1.386   .     A
C1247  H1276   1.084   .     S
C1248  H1280   1.083   .     S
C1249  C1266   1.409   .     A
C1249  O1303   1.391   .     S
C1250  C1265   1.388   .     A
C1250  H1270   1.084   .     S
C1250  C1266   1.399   .     A
C1251  C1267   1.400   .     A
C1251  C1253   1.444   .     S
C1252  O1313   1.382   .     S
C1252  C1258   1.403   .     A
C1252  C816    1.382   1_565 S
C1253  O1286   1.287   .     A
C1253  O1285   1.290   .     A
C1254  C1255   1.390   .     A
C1254  H1271   1.085   .     S
C1255  C1256   1.390   .     A
C1255  C1263   1.405   .     S
C1256  H1272   1.084   .     S
C1257  O1293   1.387   .     S
C1257  C1258   1.405   .     A
C1257  C818    1.380   1_565 S
C1259  H1273   1.082   .     S
C1259  N1282   1.366   .     A
C1259  C1114   1.416   1_655 S
C1260  N1281   1.366   .     A
C1260  H1274   1.081   .     S
C1261  H1275   1.081   .     S
C1261  N1281   1.364   .     A
C1262  O1298   1.384   .     S
C1262  N1282   1.371   .     A
C1262  C1115   1.429   1_655 S
C1263  O1288   1.280   .     A
C1263  O1287   1.280   .     A
C1264  O1290   1.296   .     A
C1264  C1266   1.452   .     S
C1264  O1289   1.288   .     A
C1267  C1268   1.394   .     A
C1267  H1278   1.084   .     S
C1268  O1308   1.381   .     S
C1268  C1269   1.394   .     A
C1269  H622    1.080   1_556 S
H1277  C608    1.084   1_556 S
N1281  Zn1291  2.011   .     S
N1282  Zn1292  2.011   .     S
O1283  Zn1291  1.985   .     S
O1284  Zn1292  1.991   .     S
O1285  Zn1291  1.987   .     S
O1286  Zn1292  1.946   .     S
O1287  Zn1291  1.991   .     S
O1288  Zn1292  1.985   .     S
O1289  Zn1291  1.946   .     S
O1290  Zn1292  1.987   .     S
O1293  C1294   1.411   .     S
C1294  H1296   1.109   .     S
C1294  H1297   1.111   .     S
C1294  H1295   1.114   .     S
O1298  C1299   1.412   .     S
C1299  H1302   1.114   .     S
C1299  H1301   1.110   .     S
C1299  H1300   1.109   .     S
O1303  C1304   1.419   .     S
C1304  H1306   1.114   .     S
C1304  H1307   1.107   .     S
C1304  H1305   1.108   .     S
O1308  C1309   1.411   .     S
C1309  H1310   1.113   .     S
C1309  H1311   1.114   .     S
C1309  H874    1.109   1_565 S
O1313  H1314   0.992   .     S
