data_str_m2_o10_o17_pcu_sym.98
_audit_creation_date              2020-01-03
_audit_creation_method            'Materials Studio'
_symmetry_space_group_name_H-M    'P1'
_symmetry_Int_Tables_number       1
_symmetry_cell_setting            triclinic
loop_
_symmetry_equiv_pos_as_xyz
  x,y,z
_cell_length_a                    30.0282
_cell_length_b                    26.3148
_cell_length_c                    22.6523
_cell_angle_alpha                 102.7263
_cell_angle_beta                  95.7539
_cell_angle_gamma                 93.5608
loop_
_atom_site_label
_atom_site_type_symbol
_atom_site_fract_x
_atom_site_fract_y
_atom_site_fract_z
_atom_site_U_iso_or_equiv
_atom_site_adp_type
_atom_site_occupancy
C1     C     0.24833   0.06701   0.15159   0.00000  Uiso   1.00
C2     C     0.25172   0.26633   0.18174   0.00000  Uiso   1.00
C3     C     0.01273   0.07108   0.12172   0.00000  Uiso   1.00
C4     C     0.48682   0.26353   0.20852   0.00000  Uiso   1.00
C5     C     0.24208   0.01165   0.14412   0.00000  Uiso   1.00
C6     C     0.25807   0.32169   0.18915   0.00000  Uiso   1.00
C7     C     0.16466   0.16550   0.16641   0.00000  Uiso   1.00
C8     C     0.33528   0.16743   0.16680   0.00000  Uiso   1.00
C9     C     0.40946   0.21600   0.17958   0.00000  Uiso   1.00
C10    C     0.08959   0.11748   0.15039   0.00000  Uiso   1.00
C11    C     0.38359   0.16817   0.16684   0.00000  Uiso   1.00
C12    C     0.11628   0.16507   0.16597   0.00000  Uiso   1.00
C13    C     0.40291   0.12094   0.15465   0.00000  Uiso   1.00
C14    C     0.09731   0.21266   0.17849   0.00000  Uiso   1.00
C15    C     0.44831   0.12070   0.14567   0.00000  Uiso   1.00
C16    C     0.05156   0.21352   0.18610   0.00000  Uiso   1.00
C17    C     0.47639   0.16811   0.16566   0.00000  Uiso   1.00
C18    C     0.02329   0.16633   0.16582   0.00000  Uiso   1.00
C19    C     0.45732   0.21704   0.18461   0.00000  Uiso   1.00
C20    C     0.04209   0.11741   0.14618   0.00000  Uiso   1.00
C21    C     0.46603   0.07408   0.11789   0.00000  Uiso   1.00
C22    C     0.03367   0.26046   0.21281   0.00000  Uiso   1.00
Cu23   Cu    0.25500   0.17246   0.22813   0.00000  Uiso   1.00
Cu24   Cu    0.24499   0.16087   0.10521   0.00000  Uiso   1.00
N25    N     0.23744   0.15214   0.01284   0.00000  Uiso   1.00
N26    N     0.26255   0.18119   0.32049   0.00000  Uiso   1.00
O27    O     0.25325   0.09538   0.20659   0.00000  Uiso   1.00
O28    O     0.24674   0.23796   0.12674   0.00000  Uiso   1.00
O29    O     0.24480   0.08559   0.10279   0.00000  Uiso   1.00
O30    O     0.25520   0.24774   0.23055   0.00000  Uiso   1.00
O31    O     0.18935   0.17155   0.21857   0.00000  Uiso   1.00
O32    O     0.31064   0.16179   0.11476   0.00000  Uiso   1.00
O33    O     0.18090   0.16176   0.11477   0.00000  Uiso   1.00
O34    O     0.31910   0.17157   0.21857   0.00000  Uiso   1.00
N35    N     0.38502   0.26158   0.18681   0.00000  Uiso   1.00
H36    H     0.39476   0.28517   0.15808   0.00000  Uiso   1.00
H37    H     0.38701   0.28043   0.23275   0.00000  Uiso   1.00
N38    N     0.11135   0.06999   0.13723   0.00000  Uiso   1.00
H39    H     0.13333   0.06782   0.17514   0.00000  Uiso   1.00
H40    H     0.12970   0.06995   0.10035   0.00000  Uiso   1.00
N41    N     0.37777   0.07398   0.15907   0.00000  Uiso   1.00
H42    H     0.34825   0.06775   0.12879   0.00000  Uiso   1.00
H43    H     0.36938   0.07928   0.20349   0.00000  Uiso   1.00
N44    N     0.12317   0.25931   0.17467   0.00000  Uiso   1.00
H45    H     0.15240   0.26512   0.20544   0.00000  Uiso   1.00
H46    H     0.13199   0.25399   0.13046   0.00000  Uiso   1.00
I47    I     0.42217   0.01088   0.05868   0.00000  Uiso   1.00
I48    I     0.07754   0.32471   0.27065   0.00000  Uiso   1.00
I49    I     0.03436   0.32720   0.08976   0.00000  Uiso   1.00
I50    I     0.46595   0.00773   0.24044   0.00000  Uiso   1.00
N51    N     0.21522   0.31754   0.08864   0.00000  Uiso   1.00
H52    H     0.23505   0.29520   0.05954   0.00000  Uiso   1.00
H53    H     0.18869   0.29448   0.09834   0.00000  Uiso   1.00
N54    N     0.28512   0.01580   0.24447   0.00000  Uiso   1.00
H55    H     0.26539   0.03818   0.27371   0.00000  Uiso   1.00
H56    H     0.31157   0.03886   0.23455   0.00000  Uiso   1.00
I57    I     0.18556   0.09764   0.30032   0.00000  Uiso   1.00
I58    I     0.31466   0.23550   0.03339   0.00000  Uiso   1.00
C59    C     0.74833   0.06701   0.15159   0.00000  Uiso   1.00
C60    C     0.75172   0.26633   0.18174   0.00000  Uiso   1.00
C61    C     0.51273   0.07108   0.12172   0.00000  Uiso   1.00
C62    C     0.98682   0.26353   0.20852   0.00000  Uiso   1.00
C63    C     0.74208   0.01165   0.14412   0.00000  Uiso   1.00
C64    C     0.75807   0.32169   0.18915   0.00000  Uiso   1.00
C65    C     0.66466   0.16550   0.16641   0.00000  Uiso   1.00
C66    C     0.83528   0.16743   0.16680   0.00000  Uiso   1.00
C67    C     0.90946   0.21600   0.17958   0.00000  Uiso   1.00
C68    C     0.58959   0.11748   0.15039   0.00000  Uiso   1.00
C69    C     0.88359   0.16817   0.16684   0.00000  Uiso   1.00
C70    C     0.61628   0.16507   0.16597   0.00000  Uiso   1.00
C71    C     0.90291   0.12094   0.15465   0.00000  Uiso   1.00
C72    C     0.59731   0.21266   0.17849   0.00000  Uiso   1.00
C73    C     0.94831   0.12070   0.14567   0.00000  Uiso   1.00
C74    C     0.55156   0.21352   0.18610   0.00000  Uiso   1.00
C75    C     0.97639   0.16811   0.16566   0.00000  Uiso   1.00
C76    C     0.52329   0.16633   0.16582   0.00000  Uiso   1.00
C77    C     0.95732   0.21704   0.18461   0.00000  Uiso   1.00
C78    C     0.54209   0.11741   0.14618   0.00000  Uiso   1.00
C79    C     0.96603   0.07408   0.11789   0.00000  Uiso   1.00
C80    C     0.53367   0.26046   0.21281   0.00000  Uiso   1.00
Cu81   Cu    0.75500   0.17246   0.22813   0.00000  Uiso   1.00
Cu82   Cu    0.74499   0.16087   0.10521   0.00000  Uiso   1.00
N83    N     0.73744   0.15214   0.01284   0.00000  Uiso   1.00
N84    N     0.76255   0.18119   0.32049   0.00000  Uiso   1.00
O85    O     0.75325   0.09538   0.20659   0.00000  Uiso   1.00
O86    O     0.74674   0.23796   0.12674   0.00000  Uiso   1.00
O87    O     0.74480   0.08559   0.10279   0.00000  Uiso   1.00
O88    O     0.75520   0.24774   0.23055   0.00000  Uiso   1.00
O89    O     0.68935   0.17155   0.21857   0.00000  Uiso   1.00
O90    O     0.81064   0.16179   0.11476   0.00000  Uiso   1.00
O91    O     0.68090   0.16176   0.11477   0.00000  Uiso   1.00
O92    O     0.81910   0.17157   0.21857   0.00000  Uiso   1.00
N93    N     0.88502   0.26158   0.18681   0.00000  Uiso   1.00
H94    H     0.89476   0.28517   0.15808   0.00000  Uiso   1.00
H95    H     0.88701   0.28043   0.23275   0.00000  Uiso   1.00
N96    N     0.61135   0.06999   0.13723   0.00000  Uiso   1.00
H97    H     0.63333   0.06782   0.17514   0.00000  Uiso   1.00
H98    H     0.62970   0.06995   0.10035   0.00000  Uiso   1.00
N99    N     0.87777   0.07398   0.15907   0.00000  Uiso   1.00
H100   H     0.84825   0.06775   0.12879   0.00000  Uiso   1.00
H101   H     0.86938   0.07928   0.20349   0.00000  Uiso   1.00
N102   N     0.62317   0.25931   0.17467   0.00000  Uiso   1.00
H103   H     0.65240   0.26512   0.20544   0.00000  Uiso   1.00
H104   H     0.63199   0.25399   0.13046   0.00000  Uiso   1.00
I105   I     0.92217   0.01088   0.05868   0.00000  Uiso   1.00
I106   I     0.57754   0.32471   0.27065   0.00000  Uiso   1.00
I107   I     0.53436   0.32720   0.08976   0.00000  Uiso   1.00
I108   I     0.96595   0.00773   0.24044   0.00000  Uiso   1.00
N109   N     0.71522   0.31754   0.08864   0.00000  Uiso   1.00
H110   H     0.73505   0.29520   0.05954   0.00000  Uiso   1.00
H111   H     0.68869   0.29448   0.09834   0.00000  Uiso   1.00
N112   N     0.78512   0.01580   0.24447   0.00000  Uiso   1.00
H113   H     0.76539   0.03818   0.27371   0.00000  Uiso   1.00
H114   H     0.81157   0.03886   0.23455   0.00000  Uiso   1.00
I115   I     0.68556   0.09764   0.30032   0.00000  Uiso   1.00
I116   I     0.81466   0.23550   0.03339   0.00000  Uiso   1.00
C117   C     0.24833   0.40034   0.15159   0.00000  Uiso   1.00
C118   C     0.25172   0.59966   0.18174   0.00000  Uiso   1.00
C119   C     0.01273   0.40441   0.12172   0.00000  Uiso   1.00
C120   C     0.48682   0.59687   0.20852   0.00000  Uiso   1.00
C121   C     0.24208   0.34498   0.14412   0.00000  Uiso   1.00
C122   C     0.25807   0.65503   0.18915   0.00000  Uiso   1.00
C123   C     0.16466   0.49883   0.16641   0.00000  Uiso   1.00
C124   C     0.33528   0.50076   0.16680   0.00000  Uiso   1.00
C125   C     0.40946   0.54933   0.17958   0.00000  Uiso   1.00
C126   C     0.08959   0.45081   0.15039   0.00000  Uiso   1.00
C127   C     0.38359   0.50150   0.16684   0.00000  Uiso   1.00
C128   C     0.11628   0.49841   0.16597   0.00000  Uiso   1.00
C129   C     0.40291   0.45427   0.15465   0.00000  Uiso   1.00
C130   C     0.09731   0.54599   0.17849   0.00000  Uiso   1.00
C131   C     0.44831   0.45403   0.14567   0.00000  Uiso   1.00
C132   C     0.05156   0.54685   0.18610   0.00000  Uiso   1.00
C133   C     0.47639   0.50145   0.16566   0.00000  Uiso   1.00
C134   C     0.02329   0.49967   0.16582   0.00000  Uiso   1.00
C135   C     0.45732   0.55038   0.18461   0.00000  Uiso   1.00
C136   C     0.04209   0.45074   0.14618   0.00000  Uiso   1.00
C137   C     0.46603   0.40742   0.11789   0.00000  Uiso   1.00
C138   C     0.03367   0.59379   0.21281   0.00000  Uiso   1.00
Cu139  Cu    0.25500   0.50579   0.22813   0.00000  Uiso   1.00
Cu140  Cu    0.24499   0.49421   0.10521   0.00000  Uiso   1.00
N141   N     0.23744   0.48547   0.01284   0.00000  Uiso   1.00
N142   N     0.26255   0.51453   0.32049   0.00000  Uiso   1.00
O143   O     0.25325   0.42871   0.20659   0.00000  Uiso   1.00
O144   O     0.24674   0.57129   0.12674   0.00000  Uiso   1.00
O145   O     0.24480   0.41892   0.10279   0.00000  Uiso   1.00
O146   O     0.25520   0.58108   0.23055   0.00000  Uiso   1.00
O147   O     0.18935   0.50488   0.21857   0.00000  Uiso   1.00
O148   O     0.31064   0.49512   0.11476   0.00000  Uiso   1.00
O149   O     0.18090   0.49510   0.11477   0.00000  Uiso   1.00
O150   O     0.31910   0.50490   0.21857   0.00000  Uiso   1.00
N151   N     0.38502   0.59491   0.18681   0.00000  Uiso   1.00
H152   H     0.39476   0.61851   0.15808   0.00000  Uiso   1.00
H153   H     0.38701   0.61376   0.23275   0.00000  Uiso   1.00
N154   N     0.11135   0.40332   0.13723   0.00000  Uiso   1.00
H155   H     0.13333   0.40115   0.17514   0.00000  Uiso   1.00
H156   H     0.12970   0.40329   0.10035   0.00000  Uiso   1.00
N157   N     0.37777   0.40732   0.15907   0.00000  Uiso   1.00
H158   H     0.34825   0.40108   0.12879   0.00000  Uiso   1.00
H159   H     0.36938   0.41261   0.20349   0.00000  Uiso   1.00
N160   N     0.12317   0.59264   0.17467   0.00000  Uiso   1.00
H161   H     0.15240   0.59846   0.20544   0.00000  Uiso   1.00
H162   H     0.13199   0.58732   0.13046   0.00000  Uiso   1.00
I163   I     0.42217   0.34421   0.05868   0.00000  Uiso   1.00
I164   I     0.07754   0.65804   0.27065   0.00000  Uiso   1.00
I165   I     0.03436   0.66053   0.08976   0.00000  Uiso   1.00
I166   I     0.46595   0.34107   0.24044   0.00000  Uiso   1.00
N167   N     0.21522   0.65087   0.08864   0.00000  Uiso   1.00
H168   H     0.23505   0.62853   0.05954   0.00000  Uiso   1.00
H169   H     0.18869   0.62781   0.09834   0.00000  Uiso   1.00
N170   N     0.28512   0.34914   0.24447   0.00000  Uiso   1.00
H171   H     0.26539   0.37151   0.27371   0.00000  Uiso   1.00
H172   H     0.31157   0.37220   0.23455   0.00000  Uiso   1.00
I173   I     0.18556   0.43097   0.30032   0.00000  Uiso   1.00
I174   I     0.31466   0.56883   0.03339   0.00000  Uiso   1.00
C175   C     0.74833   0.40034   0.15159   0.00000  Uiso   1.00
C176   C     0.75172   0.59966   0.18174   0.00000  Uiso   1.00
C177   C     0.51273   0.40441   0.12172   0.00000  Uiso   1.00
C178   C     0.98682   0.59687   0.20852   0.00000  Uiso   1.00
C179   C     0.74208   0.34498   0.14412   0.00000  Uiso   1.00
C180   C     0.75807   0.65503   0.18915   0.00000  Uiso   1.00
C181   C     0.66466   0.49883   0.16641   0.00000  Uiso   1.00
C182   C     0.83528   0.50076   0.16680   0.00000  Uiso   1.00
C183   C     0.90946   0.54933   0.17958   0.00000  Uiso   1.00
C184   C     0.58959   0.45081   0.15039   0.00000  Uiso   1.00
C185   C     0.88359   0.50150   0.16684   0.00000  Uiso   1.00
C186   C     0.61628   0.49841   0.16597   0.00000  Uiso   1.00
C187   C     0.90291   0.45427   0.15465   0.00000  Uiso   1.00
C188   C     0.59731   0.54599   0.17849   0.00000  Uiso   1.00
C189   C     0.94831   0.45403   0.14567   0.00000  Uiso   1.00
C190   C     0.55156   0.54685   0.18610   0.00000  Uiso   1.00
C191   C     0.97639   0.50145   0.16566   0.00000  Uiso   1.00
C192   C     0.52329   0.49967   0.16582   0.00000  Uiso   1.00
C193   C     0.95732   0.55038   0.18461   0.00000  Uiso   1.00
C194   C     0.54209   0.45074   0.14618   0.00000  Uiso   1.00
C195   C     0.96603   0.40742   0.11789   0.00000  Uiso   1.00
C196   C     0.53367   0.59379   0.21281   0.00000  Uiso   1.00
Cu197  Cu    0.75500   0.50579   0.22813   0.00000  Uiso   1.00
Cu198  Cu    0.74499   0.49421   0.10521   0.00000  Uiso   1.00
N199   N     0.73744   0.48547   0.01284   0.00000  Uiso   1.00
N200   N     0.76255   0.51453   0.32049   0.00000  Uiso   1.00
O201   O     0.75325   0.42871   0.20659   0.00000  Uiso   1.00
O202   O     0.74674   0.57129   0.12674   0.00000  Uiso   1.00
O203   O     0.74480   0.41892   0.10279   0.00000  Uiso   1.00
O204   O     0.75520   0.58108   0.23055   0.00000  Uiso   1.00
O205   O     0.68935   0.50488   0.21857   0.00000  Uiso   1.00
O206   O     0.81064   0.49512   0.11476   0.00000  Uiso   1.00
O207   O     0.68090   0.49510   0.11477   0.00000  Uiso   1.00
O208   O     0.81910   0.50490   0.21857   0.00000  Uiso   1.00
N209   N     0.88502   0.59491   0.18681   0.00000  Uiso   1.00
H210   H     0.89476   0.61851   0.15808   0.00000  Uiso   1.00
H211   H     0.88701   0.61376   0.23275   0.00000  Uiso   1.00
N212   N     0.61135   0.40332   0.13723   0.00000  Uiso   1.00
H213   H     0.63333   0.40115   0.17514   0.00000  Uiso   1.00
H214   H     0.62970   0.40329   0.10035   0.00000  Uiso   1.00
N215   N     0.87777   0.40732   0.15907   0.00000  Uiso   1.00
H216   H     0.84825   0.40108   0.12879   0.00000  Uiso   1.00
H217   H     0.86938   0.41261   0.20349   0.00000  Uiso   1.00
N218   N     0.62317   0.59264   0.17467   0.00000  Uiso   1.00
H219   H     0.65240   0.59846   0.20544   0.00000  Uiso   1.00
H220   H     0.63199   0.58732   0.13046   0.00000  Uiso   1.00
I221   I     0.92217   0.34421   0.05868   0.00000  Uiso   1.00
I222   I     0.57754   0.65804   0.27065   0.00000  Uiso   1.00
I223   I     0.53436   0.66053   0.08976   0.00000  Uiso   1.00
I224   I     0.96595   0.34107   0.24044   0.00000  Uiso   1.00
N225   N     0.71522   0.65087   0.08864   0.00000  Uiso   1.00
H226   H     0.73505   0.62853   0.05954   0.00000  Uiso   1.00
H227   H     0.68869   0.62781   0.09834   0.00000  Uiso   1.00
N228   N     0.78512   0.34914   0.24447   0.00000  Uiso   1.00
H229   H     0.76539   0.37151   0.27371   0.00000  Uiso   1.00
H230   H     0.81157   0.37220   0.23455   0.00000  Uiso   1.00
I231   I     0.68556   0.43097   0.30032   0.00000  Uiso   1.00
I232   I     0.81466   0.56883   0.03339   0.00000  Uiso   1.00
C233   C     0.24833   0.73368   0.15159   0.00000  Uiso   1.00
C234   C     0.25172   0.93300   0.18174   0.00000  Uiso   1.00
C235   C     0.01273   0.73774   0.12172   0.00000  Uiso   1.00
C236   C     0.48682   0.93020   0.20852   0.00000  Uiso   1.00
C237   C     0.24208   0.67831   0.14412   0.00000  Uiso   1.00
C238   C     0.25807   0.98836   0.18915   0.00000  Uiso   1.00
C239   C     0.16466   0.83216   0.16641   0.00000  Uiso   1.00
C240   C     0.33528   0.83409   0.16680   0.00000  Uiso   1.00
C241   C     0.40946   0.88267   0.17958   0.00000  Uiso   1.00
C242   C     0.08959   0.78415   0.15039   0.00000  Uiso   1.00
C243   C     0.38359   0.83484   0.16684   0.00000  Uiso   1.00
C244   C     0.11628   0.83174   0.16597   0.00000  Uiso   1.00
C245   C     0.40291   0.78760   0.15465   0.00000  Uiso   1.00
C246   C     0.09731   0.87933   0.17849   0.00000  Uiso   1.00
C247   C     0.44831   0.78736   0.14567   0.00000  Uiso   1.00
C248   C     0.05156   0.88019   0.18610   0.00000  Uiso   1.00
C249   C     0.47639   0.83478   0.16566   0.00000  Uiso   1.00
C250   C     0.02329   0.83300   0.16582   0.00000  Uiso   1.00
C251   C     0.45732   0.88371   0.18461   0.00000  Uiso   1.00
C252   C     0.04209   0.78408   0.14618   0.00000  Uiso   1.00
C253   C     0.46603   0.74075   0.11789   0.00000  Uiso   1.00
C254   C     0.03367   0.92712   0.21281   0.00000  Uiso   1.00
Cu255  Cu    0.25500   0.83913   0.22813   0.00000  Uiso   1.00
Cu256  Cu    0.24499   0.82754   0.10521   0.00000  Uiso   1.00
N257   N     0.23744   0.81881   0.01284   0.00000  Uiso   1.00
N258   N     0.26255   0.84786   0.32049   0.00000  Uiso   1.00
O259   O     0.25325   0.76204   0.20659   0.00000  Uiso   1.00
O260   O     0.24674   0.90462   0.12674   0.00000  Uiso   1.00
O261   O     0.24480   0.75226   0.10279   0.00000  Uiso   1.00
O262   O     0.25520   0.91441   0.23055   0.00000  Uiso   1.00
O263   O     0.18935   0.83821   0.21857   0.00000  Uiso   1.00
O264   O     0.31064   0.82845   0.11476   0.00000  Uiso   1.00
O265   O     0.18090   0.82843   0.11477   0.00000  Uiso   1.00
O266   O     0.31910   0.83824   0.21857   0.00000  Uiso   1.00
N267   N     0.38502   0.92824   0.18681   0.00000  Uiso   1.00
H268   H     0.39476   0.95184   0.15808   0.00000  Uiso   1.00
H269   H     0.38701   0.94710   0.23275   0.00000  Uiso   1.00
N270   N     0.11135   0.73665   0.13723   0.00000  Uiso   1.00
H271   H     0.13333   0.73448   0.17514   0.00000  Uiso   1.00
H272   H     0.12970   0.73662   0.10035   0.00000  Uiso   1.00
N273   N     0.37777   0.74065   0.15907   0.00000  Uiso   1.00
H274   H     0.34825   0.73441   0.12879   0.00000  Uiso   1.00
H275   H     0.36938   0.74595   0.20349   0.00000  Uiso   1.00
N276   N     0.12317   0.92597   0.17467   0.00000  Uiso   1.00
H277   H     0.15240   0.93179   0.20544   0.00000  Uiso   1.00
H278   H     0.13199   0.92065   0.13046   0.00000  Uiso   1.00
I279   I     0.42217   0.67754   0.05868   0.00000  Uiso   1.00
I280   I     0.07754   0.99137   0.27065   0.00000  Uiso   1.00
I281   I     0.03436   0.99386   0.08976   0.00000  Uiso   1.00
I282   I     0.46595   0.67440   0.24044   0.00000  Uiso   1.00
N283   N     0.21522   0.98420   0.08864   0.00000  Uiso   1.00
H284   H     0.23505   0.96186   0.05954   0.00000  Uiso   1.00
H285   H     0.18869   0.96114   0.09834   0.00000  Uiso   1.00
N286   N     0.28512   0.68247   0.24447   0.00000  Uiso   1.00
H287   H     0.26539   0.70484   0.27371   0.00000  Uiso   1.00
H288   H     0.31157   0.70553   0.23455   0.00000  Uiso   1.00
I289   I     0.18556   0.76431   0.30032   0.00000  Uiso   1.00
I290   I     0.31466   0.90216   0.03339   0.00000  Uiso   1.00
C291   C     0.74833   0.73368   0.15159   0.00000  Uiso   1.00
C292   C     0.75172   0.93300   0.18174   0.00000  Uiso   1.00
C293   C     0.51273   0.73774   0.12172   0.00000  Uiso   1.00
C294   C     0.98682   0.93020   0.20852   0.00000  Uiso   1.00
C295   C     0.74208   0.67831   0.14412   0.00000  Uiso   1.00
C296   C     0.75807   0.98836   0.18915   0.00000  Uiso   1.00
C297   C     0.66466   0.83216   0.16641   0.00000  Uiso   1.00
C298   C     0.83528   0.83409   0.16680   0.00000  Uiso   1.00
C299   C     0.90946   0.88267   0.17958   0.00000  Uiso   1.00
C300   C     0.58959   0.78415   0.15039   0.00000  Uiso   1.00
C301   C     0.88359   0.83484   0.16684   0.00000  Uiso   1.00
C302   C     0.61628   0.83174   0.16597   0.00000  Uiso   1.00
C303   C     0.90291   0.78760   0.15465   0.00000  Uiso   1.00
C304   C     0.59731   0.87933   0.17849   0.00000  Uiso   1.00
C305   C     0.94831   0.78736   0.14567   0.00000  Uiso   1.00
C306   C     0.55156   0.88019   0.18610   0.00000  Uiso   1.00
C307   C     0.97639   0.83478   0.16566   0.00000  Uiso   1.00
C308   C     0.52329   0.83300   0.16582   0.00000  Uiso   1.00
C309   C     0.95732   0.88371   0.18461   0.00000  Uiso   1.00
C310   C     0.54209   0.78408   0.14618   0.00000  Uiso   1.00
C311   C     0.96603   0.74075   0.11789   0.00000  Uiso   1.00
C312   C     0.53367   0.92712   0.21281   0.00000  Uiso   1.00
Cu313  Cu    0.75500   0.83913   0.22813   0.00000  Uiso   1.00
Cu314  Cu    0.74499   0.82754   0.10521   0.00000  Uiso   1.00
N315   N     0.73744   0.81881   0.01284   0.00000  Uiso   1.00
N316   N     0.76255   0.84786   0.32049   0.00000  Uiso   1.00
O317   O     0.75325   0.76204   0.20659   0.00000  Uiso   1.00
O318   O     0.74674   0.90462   0.12674   0.00000  Uiso   1.00
O319   O     0.74480   0.75226   0.10279   0.00000  Uiso   1.00
O320   O     0.75520   0.91441   0.23055   0.00000  Uiso   1.00
O321   O     0.68935   0.83821   0.21857   0.00000  Uiso   1.00
O322   O     0.81064   0.82845   0.11476   0.00000  Uiso   1.00
O323   O     0.68090   0.82843   0.11477   0.00000  Uiso   1.00
O324   O     0.81910   0.83824   0.21857   0.00000  Uiso   1.00
N325   N     0.88502   0.92824   0.18681   0.00000  Uiso   1.00
H326   H     0.89476   0.95184   0.15808   0.00000  Uiso   1.00
H327   H     0.88701   0.94710   0.23275   0.00000  Uiso   1.00
N328   N     0.61135   0.73665   0.13723   0.00000  Uiso   1.00
H329   H     0.63333   0.73448   0.17514   0.00000  Uiso   1.00
H330   H     0.62970   0.73662   0.10035   0.00000  Uiso   1.00
N331   N     0.87777   0.74065   0.15907   0.00000  Uiso   1.00
H332   H     0.84825   0.73441   0.12879   0.00000  Uiso   1.00
H333   H     0.86938   0.74595   0.20349   0.00000  Uiso   1.00
N334   N     0.62317   0.92597   0.17467   0.00000  Uiso   1.00
H335   H     0.65240   0.93179   0.20544   0.00000  Uiso   1.00
H336   H     0.63199   0.92065   0.13046   0.00000  Uiso   1.00
I337   I     0.92217   0.67754   0.05868   0.00000  Uiso   1.00
I338   I     0.57754   0.99137   0.27065   0.00000  Uiso   1.00
I339   I     0.53436   0.99386   0.08976   0.00000  Uiso   1.00
I340   I     0.96595   0.67440   0.24044   0.00000  Uiso   1.00
N341   N     0.71522   0.98420   0.08864   0.00000  Uiso   1.00
H342   H     0.73505   0.96186   0.05954   0.00000  Uiso   1.00
H343   H     0.68869   0.96114   0.09834   0.00000  Uiso   1.00
N344   N     0.78512   0.68247   0.24447   0.00000  Uiso   1.00
H345   H     0.76539   0.70484   0.27371   0.00000  Uiso   1.00
H346   H     0.81157   0.70553   0.23455   0.00000  Uiso   1.00
I347   I     0.68556   0.76431   0.30032   0.00000  Uiso   1.00
I348   I     0.81466   0.90216   0.03339   0.00000  Uiso   1.00
C349   C     0.24833   0.06701   0.48492   0.00000  Uiso   1.00
C350   C     0.25172   0.26633   0.51507   0.00000  Uiso   1.00
C351   C     0.01273   0.07108   0.45506   0.00000  Uiso   1.00
C352   C     0.48682   0.26353   0.54185   0.00000  Uiso   1.00
C353   C     0.24208   0.01165   0.47745   0.00000  Uiso   1.00
C354   C     0.25807   0.32169   0.52248   0.00000  Uiso   1.00
C355   C     0.16466   0.16550   0.49975   0.00000  Uiso   1.00
C356   C     0.33528   0.16743   0.50013   0.00000  Uiso   1.00
C357   C     0.40946   0.21600   0.51291   0.00000  Uiso   1.00
C358   C     0.08959   0.11748   0.48372   0.00000  Uiso   1.00
C359   C     0.38359   0.16817   0.50017   0.00000  Uiso   1.00
C360   C     0.11628   0.16507   0.49930   0.00000  Uiso   1.00
C361   C     0.40291   0.12094   0.48798   0.00000  Uiso   1.00
C362   C     0.09731   0.21266   0.51183   0.00000  Uiso   1.00
C363   C     0.44831   0.12070   0.47900   0.00000  Uiso   1.00
C364   C     0.05156   0.21352   0.51944   0.00000  Uiso   1.00
C365   C     0.47639   0.16811   0.49900   0.00000  Uiso   1.00
C366   C     0.02329   0.16633   0.49915   0.00000  Uiso   1.00
C367   C     0.45732   0.21704   0.51794   0.00000  Uiso   1.00
C368   C     0.04209   0.11741   0.47952   0.00000  Uiso   1.00
C369   C     0.46603   0.07408   0.45122   0.00000  Uiso   1.00
C370   C     0.03367   0.26046   0.54614   0.00000  Uiso   1.00
Cu371  Cu    0.25500   0.17246   0.56146   0.00000  Uiso   1.00
Cu372  Cu    0.24499   0.16087   0.43854   0.00000  Uiso   1.00
N373   N     0.23744   0.15214   0.34617   0.00000  Uiso   1.00
N374   N     0.26255   0.18119   0.65383   0.00000  Uiso   1.00
O375   O     0.25325   0.09538   0.53992   0.00000  Uiso   1.00
O376   O     0.24674   0.23796   0.46008   0.00000  Uiso   1.00
O377   O     0.24480   0.08559   0.43612   0.00000  Uiso   1.00
O378   O     0.25520   0.24774   0.56388   0.00000  Uiso   1.00
O379   O     0.18935   0.17155   0.55191   0.00000  Uiso   1.00
O380   O     0.31064   0.16179   0.44809   0.00000  Uiso   1.00
O381   O     0.18090   0.16176   0.44810   0.00000  Uiso   1.00
O382   O     0.31910   0.17157   0.55190   0.00000  Uiso   1.00
N383   N     0.38502   0.26158   0.52014   0.00000  Uiso   1.00
H384   H     0.39476   0.28517   0.49141   0.00000  Uiso   1.00
H385   H     0.38701   0.28043   0.56608   0.00000  Uiso   1.00
N386   N     0.11135   0.06999   0.47057   0.00000  Uiso   1.00
H387   H     0.13333   0.06782   0.50848   0.00000  Uiso   1.00
H388   H     0.12970   0.06995   0.43369   0.00000  Uiso   1.00
N389   N     0.37777   0.07398   0.49240   0.00000  Uiso   1.00
H390   H     0.34825   0.06775   0.46213   0.00000  Uiso   1.00
H391   H     0.36938   0.07928   0.53683   0.00000  Uiso   1.00
N392   N     0.12317   0.25931   0.50800   0.00000  Uiso   1.00
H393   H     0.15240   0.26512   0.53878   0.00000  Uiso   1.00
H394   H     0.13199   0.25399   0.46379   0.00000  Uiso   1.00
I395   I     0.42217   0.01088   0.39201   0.00000  Uiso   1.00
I396   I     0.07754   0.32471   0.60398   0.00000  Uiso   1.00
I397   I     0.03436   0.32720   0.42309   0.00000  Uiso   1.00
I398   I     0.46595   0.00773   0.57377   0.00000  Uiso   1.00
N399   N     0.21522   0.31754   0.42197   0.00000  Uiso   1.00
H400   H     0.23505   0.29520   0.39288   0.00000  Uiso   1.00
H401   H     0.18869   0.29448   0.43167   0.00000  Uiso   1.00
N402   N     0.28512   0.01580   0.57780   0.00000  Uiso   1.00
H403   H     0.26539   0.03818   0.60704   0.00000  Uiso   1.00
H404   H     0.31157   0.03886   0.56788   0.00000  Uiso   1.00
I405   I     0.18556   0.09764   0.63366   0.00000  Uiso   1.00
I406   I     0.31466   0.23550   0.36672   0.00000  Uiso   1.00
C407   C     0.74833   0.06701   0.48492   0.00000  Uiso   1.00
C408   C     0.75172   0.26633   0.51507   0.00000  Uiso   1.00
C409   C     0.51273   0.07108   0.45506   0.00000  Uiso   1.00
C410   C     0.98682   0.26353   0.54185   0.00000  Uiso   1.00
C411   C     0.74208   0.01165   0.47745   0.00000  Uiso   1.00
C412   C     0.75807   0.32169   0.52248   0.00000  Uiso   1.00
C413   C     0.66466   0.16550   0.49975   0.00000  Uiso   1.00
C414   C     0.83528   0.16743   0.50013   0.00000  Uiso   1.00
C415   C     0.90946   0.21600   0.51291   0.00000  Uiso   1.00
C416   C     0.58959   0.11748   0.48372   0.00000  Uiso   1.00
C417   C     0.88359   0.16817   0.50017   0.00000  Uiso   1.00
C418   C     0.61628   0.16507   0.49930   0.00000  Uiso   1.00
C419   C     0.90291   0.12094   0.48798   0.00000  Uiso   1.00
C420   C     0.59731   0.21266   0.51183   0.00000  Uiso   1.00
C421   C     0.94831   0.12070   0.47900   0.00000  Uiso   1.00
C422   C     0.55156   0.21352   0.51944   0.00000  Uiso   1.00
C423   C     0.97639   0.16811   0.49900   0.00000  Uiso   1.00
C424   C     0.52329   0.16633   0.49915   0.00000  Uiso   1.00
C425   C     0.95732   0.21704   0.51794   0.00000  Uiso   1.00
C426   C     0.54209   0.11741   0.47952   0.00000  Uiso   1.00
C427   C     0.96603   0.07408   0.45122   0.00000  Uiso   1.00
C428   C     0.53367   0.26046   0.54614   0.00000  Uiso   1.00
Cu429  Cu    0.75500   0.17246   0.56146   0.00000  Uiso   1.00
Cu430  Cu    0.74499   0.16087   0.43854   0.00000  Uiso   1.00
N431   N     0.73744   0.15214   0.34617   0.00000  Uiso   1.00
N432   N     0.76255   0.18119   0.65383   0.00000  Uiso   1.00
O433   O     0.75325   0.09538   0.53992   0.00000  Uiso   1.00
O434   O     0.74674   0.23796   0.46008   0.00000  Uiso   1.00
O435   O     0.74480   0.08559   0.43612   0.00000  Uiso   1.00
O436   O     0.75520   0.24774   0.56388   0.00000  Uiso   1.00
O437   O     0.68935   0.17155   0.55191   0.00000  Uiso   1.00
O438   O     0.81064   0.16179   0.44809   0.00000  Uiso   1.00
O439   O     0.68090   0.16176   0.44810   0.00000  Uiso   1.00
O440   O     0.81910   0.17157   0.55190   0.00000  Uiso   1.00
N441   N     0.88502   0.26158   0.52014   0.00000  Uiso   1.00
H442   H     0.89476   0.28517   0.49141   0.00000  Uiso   1.00
H443   H     0.88701   0.28043   0.56608   0.00000  Uiso   1.00
N444   N     0.61135   0.06999   0.47057   0.00000  Uiso   1.00
H445   H     0.63333   0.06782   0.50848   0.00000  Uiso   1.00
H446   H     0.62970   0.06995   0.43369   0.00000  Uiso   1.00
N447   N     0.87777   0.07398   0.49240   0.00000  Uiso   1.00
H448   H     0.84825   0.06775   0.46213   0.00000  Uiso   1.00
H449   H     0.86938   0.07928   0.53683   0.00000  Uiso   1.00
N450   N     0.62317   0.25931   0.50800   0.00000  Uiso   1.00
H451   H     0.65240   0.26512   0.53878   0.00000  Uiso   1.00
H452   H     0.63199   0.25399   0.46379   0.00000  Uiso   1.00
I453   I     0.92217   0.01088   0.39201   0.00000  Uiso   1.00
I454   I     0.57754   0.32471   0.60398   0.00000  Uiso   1.00
I455   I     0.53436   0.32720   0.42309   0.00000  Uiso   1.00
I456   I     0.96595   0.00773   0.57377   0.00000  Uiso   1.00
N457   N     0.71522   0.31754   0.42197   0.00000  Uiso   1.00
H458   H     0.73505   0.29520   0.39288   0.00000  Uiso   1.00
H459   H     0.68869   0.29448   0.43167   0.00000  Uiso   1.00
N460   N     0.78512   0.01580   0.57780   0.00000  Uiso   1.00
H461   H     0.76539   0.03818   0.60704   0.00000  Uiso   1.00
H462   H     0.81157   0.03886   0.56788   0.00000  Uiso   1.00
I463   I     0.68556   0.09764   0.63366   0.00000  Uiso   1.00
I464   I     0.81466   0.23550   0.36672   0.00000  Uiso   1.00
C465   C     0.24833   0.40034   0.48492   0.00000  Uiso   1.00
C466   C     0.25172   0.59966   0.51507   0.00000  Uiso   1.00
C467   C     0.01273   0.40441   0.45506   0.00000  Uiso   1.00
C468   C     0.48682   0.59687   0.54185   0.00000  Uiso   1.00
C469   C     0.24208   0.34498   0.47745   0.00000  Uiso   1.00
C470   C     0.25807   0.65503   0.52248   0.00000  Uiso   1.00
C471   C     0.16466   0.49883   0.49975   0.00000  Uiso   1.00
C472   C     0.33528   0.50076   0.50013   0.00000  Uiso   1.00
C473   C     0.40946   0.54933   0.51291   0.00000  Uiso   1.00
C474   C     0.08959   0.45081   0.48372   0.00000  Uiso   1.00
C475   C     0.38359   0.50150   0.50017   0.00000  Uiso   1.00
C476   C     0.11628   0.49841   0.49930   0.00000  Uiso   1.00
C477   C     0.40291   0.45427   0.48798   0.00000  Uiso   1.00
C478   C     0.09731   0.54599   0.51183   0.00000  Uiso   1.00
C479   C     0.44831   0.45403   0.47900   0.00000  Uiso   1.00
C480   C     0.05156   0.54685   0.51944   0.00000  Uiso   1.00
C481   C     0.47639   0.50145   0.49900   0.00000  Uiso   1.00
C482   C     0.02329   0.49967   0.49915   0.00000  Uiso   1.00
C483   C     0.45732   0.55038   0.51794   0.00000  Uiso   1.00
C484   C     0.04209   0.45074   0.47952   0.00000  Uiso   1.00
C485   C     0.46603   0.40742   0.45122   0.00000  Uiso   1.00
C486   C     0.03367   0.59379   0.54614   0.00000  Uiso   1.00
Cu487  Cu    0.25500   0.50579   0.56146   0.00000  Uiso   1.00
Cu488  Cu    0.24499   0.49421   0.43854   0.00000  Uiso   1.00
N489   N     0.23744   0.48547   0.34617   0.00000  Uiso   1.00
N490   N     0.26255   0.51453   0.65383   0.00000  Uiso   1.00
O491   O     0.25325   0.42871   0.53992   0.00000  Uiso   1.00
O492   O     0.24674   0.57129   0.46008   0.00000  Uiso   1.00
O493   O     0.24480   0.41892   0.43612   0.00000  Uiso   1.00
O494   O     0.25520   0.58108   0.56388   0.00000  Uiso   1.00
O495   O     0.18935   0.50488   0.55191   0.00000  Uiso   1.00
O496   O     0.31064   0.49512   0.44809   0.00000  Uiso   1.00
O497   O     0.18090   0.49510   0.44810   0.00000  Uiso   1.00
O498   O     0.31910   0.50490   0.55190   0.00000  Uiso   1.00
N499   N     0.38502   0.59491   0.52014   0.00000  Uiso   1.00
H500   H     0.39476   0.61851   0.49141   0.00000  Uiso   1.00
H501   H     0.38701   0.61376   0.56608   0.00000  Uiso   1.00
N502   N     0.11135   0.40332   0.47057   0.00000  Uiso   1.00
H503   H     0.13333   0.40115   0.50848   0.00000  Uiso   1.00
H504   H     0.12970   0.40329   0.43369   0.00000  Uiso   1.00
N505   N     0.37777   0.40732   0.49240   0.00000  Uiso   1.00
H506   H     0.34825   0.40108   0.46213   0.00000  Uiso   1.00
H507   H     0.36938   0.41261   0.53683   0.00000  Uiso   1.00
N508   N     0.12317   0.59264   0.50800   0.00000  Uiso   1.00
H509   H     0.15240   0.59846   0.53878   0.00000  Uiso   1.00
H510   H     0.13199   0.58732   0.46379   0.00000  Uiso   1.00
I511   I     0.42217   0.34421   0.39201   0.00000  Uiso   1.00
I512   I     0.07754   0.65804   0.60398   0.00000  Uiso   1.00
I513   I     0.03436   0.66053   0.42309   0.00000  Uiso   1.00
I514   I     0.46595   0.34107   0.57377   0.00000  Uiso   1.00
N515   N     0.21522   0.65087   0.42197   0.00000  Uiso   1.00
H516   H     0.23505   0.62853   0.39288   0.00000  Uiso   1.00
H517   H     0.18869   0.62781   0.43167   0.00000  Uiso   1.00
N518   N     0.28512   0.34914   0.57780   0.00000  Uiso   1.00
H519   H     0.26539   0.37151   0.60704   0.00000  Uiso   1.00
H520   H     0.31157   0.37220   0.56788   0.00000  Uiso   1.00
I521   I     0.18556   0.43097   0.63366   0.00000  Uiso   1.00
I522   I     0.31466   0.56883   0.36672   0.00000  Uiso   1.00
C523   C     0.74833   0.40034   0.48492   0.00000  Uiso   1.00
C524   C     0.75172   0.59966   0.51507   0.00000  Uiso   1.00
C525   C     0.51273   0.40441   0.45506   0.00000  Uiso   1.00
C526   C     0.98682   0.59687   0.54185   0.00000  Uiso   1.00
C527   C     0.74208   0.34498   0.47745   0.00000  Uiso   1.00
C528   C     0.75807   0.65503   0.52248   0.00000  Uiso   1.00
C529   C     0.66466   0.49883   0.49975   0.00000  Uiso   1.00
C530   C     0.83528   0.50076   0.50013   0.00000  Uiso   1.00
C531   C     0.90946   0.54933   0.51291   0.00000  Uiso   1.00
C532   C     0.58959   0.45081   0.48372   0.00000  Uiso   1.00
C533   C     0.88359   0.50150   0.50017   0.00000  Uiso   1.00
C534   C     0.61628   0.49841   0.49930   0.00000  Uiso   1.00
C535   C     0.90291   0.45427   0.48798   0.00000  Uiso   1.00
C536   C     0.59731   0.54599   0.51183   0.00000  Uiso   1.00
C537   C     0.94831   0.45403   0.47900   0.00000  Uiso   1.00
C538   C     0.55156   0.54685   0.51944   0.00000  Uiso   1.00
C539   C     0.97639   0.50145   0.49900   0.00000  Uiso   1.00
C540   C     0.52329   0.49967   0.49915   0.00000  Uiso   1.00
C541   C     0.95732   0.55038   0.51794   0.00000  Uiso   1.00
C542   C     0.54209   0.45074   0.47952   0.00000  Uiso   1.00
C543   C     0.96603   0.40742   0.45122   0.00000  Uiso   1.00
C544   C     0.53367   0.59379   0.54614   0.00000  Uiso   1.00
Cu545  Cu    0.75500   0.50579   0.56146   0.00000  Uiso   1.00
Cu546  Cu    0.74499   0.49421   0.43854   0.00000  Uiso   1.00
N547   N     0.73744   0.48547   0.34617   0.00000  Uiso   1.00
N548   N     0.76255   0.51453   0.65383   0.00000  Uiso   1.00
O549   O     0.75325   0.42871   0.53992   0.00000  Uiso   1.00
O550   O     0.74674   0.57129   0.46008   0.00000  Uiso   1.00
O551   O     0.74480   0.41892   0.43612   0.00000  Uiso   1.00
O552   O     0.75520   0.58108   0.56388   0.00000  Uiso   1.00
O553   O     0.68935   0.50488   0.55191   0.00000  Uiso   1.00
O554   O     0.81064   0.49512   0.44809   0.00000  Uiso   1.00
O555   O     0.68090   0.49510   0.44810   0.00000  Uiso   1.00
O556   O     0.81910   0.50490   0.55190   0.00000  Uiso   1.00
N557   N     0.88502   0.59491   0.52014   0.00000  Uiso   1.00
H558   H     0.89476   0.61851   0.49141   0.00000  Uiso   1.00
H559   H     0.88701   0.61376   0.56608   0.00000  Uiso   1.00
N560   N     0.61135   0.40332   0.47057   0.00000  Uiso   1.00
H561   H     0.63333   0.40115   0.50848   0.00000  Uiso   1.00
H562   H     0.62970   0.40329   0.43369   0.00000  Uiso   1.00
N563   N     0.87777   0.40732   0.49240   0.00000  Uiso   1.00
H564   H     0.84825   0.40108   0.46213   0.00000  Uiso   1.00
H565   H     0.86938   0.41261   0.53683   0.00000  Uiso   1.00
N566   N     0.62317   0.59264   0.50800   0.00000  Uiso   1.00
H567   H     0.65240   0.59846   0.53878   0.00000  Uiso   1.00
H568   H     0.63199   0.58732   0.46379   0.00000  Uiso   1.00
I569   I     0.92217   0.34421   0.39201   0.00000  Uiso   1.00
I570   I     0.57754   0.65804   0.60398   0.00000  Uiso   1.00
I571   I     0.53436   0.66053   0.42309   0.00000  Uiso   1.00
I572   I     0.96595   0.34107   0.57377   0.00000  Uiso   1.00
N573   N     0.71522   0.65087   0.42197   0.00000  Uiso   1.00
H574   H     0.73505   0.62853   0.39288   0.00000  Uiso   1.00
H575   H     0.68869   0.62781   0.43167   0.00000  Uiso   1.00
N576   N     0.78512   0.34914   0.57780   0.00000  Uiso   1.00
H577   H     0.76539   0.37151   0.60704   0.00000  Uiso   1.00
H578   H     0.81157   0.37220   0.56788   0.00000  Uiso   1.00
I579   I     0.68556   0.43097   0.63366   0.00000  Uiso   1.00
I580   I     0.81466   0.56883   0.36672   0.00000  Uiso   1.00
C581   C     0.24833   0.73368   0.48492   0.00000  Uiso   1.00
C582   C     0.25172   0.93300   0.51507   0.00000  Uiso   1.00
C583   C     0.01273   0.73774   0.45506   0.00000  Uiso   1.00
C584   C     0.48682   0.93020   0.54185   0.00000  Uiso   1.00
C585   C     0.24208   0.67831   0.47745   0.00000  Uiso   1.00
C586   C     0.25807   0.98836   0.52248   0.00000  Uiso   1.00
C587   C     0.16466   0.83216   0.49975   0.00000  Uiso   1.00
C588   C     0.33528   0.83409   0.50013   0.00000  Uiso   1.00
C589   C     0.40946   0.88267   0.51291   0.00000  Uiso   1.00
C590   C     0.08959   0.78415   0.48372   0.00000  Uiso   1.00
C591   C     0.38359   0.83484   0.50017   0.00000  Uiso   1.00
C592   C     0.11628   0.83174   0.49930   0.00000  Uiso   1.00
C593   C     0.40291   0.78760   0.48798   0.00000  Uiso   1.00
C594   C     0.09731   0.87933   0.51183   0.00000  Uiso   1.00
C595   C     0.44831   0.78736   0.47900   0.00000  Uiso   1.00
C596   C     0.05156   0.88019   0.51944   0.00000  Uiso   1.00
C597   C     0.47639   0.83478   0.49900   0.00000  Uiso   1.00
C598   C     0.02329   0.83300   0.49915   0.00000  Uiso   1.00
C599   C     0.45732   0.88371   0.51794   0.00000  Uiso   1.00
C600   C     0.04209   0.78408   0.47952   0.00000  Uiso   1.00
C601   C     0.46603   0.74075   0.45122   0.00000  Uiso   1.00
C602   C     0.03367   0.92712   0.54614   0.00000  Uiso   1.00
Cu603  Cu    0.25500   0.83913   0.56146   0.00000  Uiso   1.00
Cu604  Cu    0.24499   0.82754   0.43854   0.00000  Uiso   1.00
N605   N     0.23744   0.81881   0.34617   0.00000  Uiso   1.00
N606   N     0.26255   0.84786   0.65383   0.00000  Uiso   1.00
O607   O     0.25325   0.76204   0.53992   0.00000  Uiso   1.00
O608   O     0.24674   0.90462   0.46008   0.00000  Uiso   1.00
O609   O     0.24480   0.75226   0.43612   0.00000  Uiso   1.00
O610   O     0.25520   0.91441   0.56388   0.00000  Uiso   1.00
O611   O     0.18935   0.83821   0.55191   0.00000  Uiso   1.00
O612   O     0.31064   0.82845   0.44809   0.00000  Uiso   1.00
O613   O     0.18090   0.82843   0.44810   0.00000  Uiso   1.00
O614   O     0.31910   0.83824   0.55190   0.00000  Uiso   1.00
N615   N     0.38502   0.92824   0.52014   0.00000  Uiso   1.00
H616   H     0.39476   0.95184   0.49141   0.00000  Uiso   1.00
H617   H     0.38701   0.94710   0.56608   0.00000  Uiso   1.00
N618   N     0.11135   0.73665   0.47057   0.00000  Uiso   1.00
H619   H     0.13333   0.73448   0.50848   0.00000  Uiso   1.00
H620   H     0.12970   0.73662   0.43369   0.00000  Uiso   1.00
N621   N     0.37777   0.74065   0.49240   0.00000  Uiso   1.00
H622   H     0.34825   0.73441   0.46213   0.00000  Uiso   1.00
H623   H     0.36938   0.74595   0.53683   0.00000  Uiso   1.00
N624   N     0.12317   0.92597   0.50800   0.00000  Uiso   1.00
H625   H     0.15240   0.93179   0.53878   0.00000  Uiso   1.00
H626   H     0.13199   0.92065   0.46379   0.00000  Uiso   1.00
I627   I     0.42217   0.67754   0.39201   0.00000  Uiso   1.00
I628   I     0.07754   0.99137   0.60398   0.00000  Uiso   1.00
I629   I     0.03436   0.99386   0.42309   0.00000  Uiso   1.00
I630   I     0.46595   0.67440   0.57377   0.00000  Uiso   1.00
N631   N     0.21522   0.98420   0.42197   0.00000  Uiso   1.00
H632   H     0.23505   0.96186   0.39288   0.00000  Uiso   1.00
H633   H     0.18869   0.96114   0.43167   0.00000  Uiso   1.00
N634   N     0.28512   0.68247   0.57780   0.00000  Uiso   1.00
H635   H     0.26539   0.70484   0.60704   0.00000  Uiso   1.00
H636   H     0.31157   0.70553   0.56788   0.00000  Uiso   1.00
I637   I     0.18556   0.76431   0.63366   0.00000  Uiso   1.00
I638   I     0.31466   0.90216   0.36672   0.00000  Uiso   1.00
C639   C     0.74833   0.73368   0.48492   0.00000  Uiso   1.00
C640   C     0.75172   0.93300   0.51507   0.00000  Uiso   1.00
C641   C     0.51273   0.73774   0.45506   0.00000  Uiso   1.00
C642   C     0.98682   0.93020   0.54185   0.00000  Uiso   1.00
C643   C     0.74208   0.67831   0.47745   0.00000  Uiso   1.00
C644   C     0.75807   0.98836   0.52248   0.00000  Uiso   1.00
C645   C     0.66466   0.83216   0.49975   0.00000  Uiso   1.00
C646   C     0.83528   0.83409   0.50013   0.00000  Uiso   1.00
C647   C     0.90946   0.88267   0.51291   0.00000  Uiso   1.00
C648   C     0.58959   0.78415   0.48372   0.00000  Uiso   1.00
C649   C     0.88359   0.83484   0.50017   0.00000  Uiso   1.00
C650   C     0.61628   0.83174   0.49930   0.00000  Uiso   1.00
C651   C     0.90291   0.78760   0.48798   0.00000  Uiso   1.00
C652   C     0.59731   0.87933   0.51183   0.00000  Uiso   1.00
C653   C     0.94831   0.78736   0.47900   0.00000  Uiso   1.00
C654   C     0.55156   0.88019   0.51944   0.00000  Uiso   1.00
C655   C     0.97639   0.83478   0.49900   0.00000  Uiso   1.00
C656   C     0.52329   0.83300   0.49915   0.00000  Uiso   1.00
C657   C     0.95732   0.88371   0.51794   0.00000  Uiso   1.00
C658   C     0.54209   0.78408   0.47952   0.00000  Uiso   1.00
C659   C     0.96603   0.74075   0.45122   0.00000  Uiso   1.00
C660   C     0.53367   0.92712   0.54614   0.00000  Uiso   1.00
Cu661  Cu    0.75500   0.83913   0.56146   0.00000  Uiso   1.00
Cu662  Cu    0.74499   0.82754   0.43854   0.00000  Uiso   1.00
N663   N     0.73744   0.81881   0.34617   0.00000  Uiso   1.00
N664   N     0.76255   0.84786   0.65383   0.00000  Uiso   1.00
O665   O     0.75325   0.76204   0.53992   0.00000  Uiso   1.00
O666   O     0.74674   0.90462   0.46008   0.00000  Uiso   1.00
O667   O     0.74480   0.75226   0.43612   0.00000  Uiso   1.00
O668   O     0.75520   0.91441   0.56388   0.00000  Uiso   1.00
O669   O     0.68935   0.83821   0.55191   0.00000  Uiso   1.00
O670   O     0.81064   0.82845   0.44809   0.00000  Uiso   1.00
O671   O     0.68090   0.82843   0.44810   0.00000  Uiso   1.00
O672   O     0.81910   0.83824   0.55190   0.00000  Uiso   1.00
N673   N     0.88502   0.92824   0.52014   0.00000  Uiso   1.00
H674   H     0.89476   0.95184   0.49141   0.00000  Uiso   1.00
H675   H     0.88701   0.94710   0.56608   0.00000  Uiso   1.00
N676   N     0.61135   0.73665   0.47057   0.00000  Uiso   1.00
H677   H     0.63333   0.73448   0.50848   0.00000  Uiso   1.00
H678   H     0.62970   0.73662   0.43369   0.00000  Uiso   1.00
N679   N     0.87777   0.74065   0.49240   0.00000  Uiso   1.00
H680   H     0.84825   0.73441   0.46213   0.00000  Uiso   1.00
H681   H     0.86938   0.74595   0.53683   0.00000  Uiso   1.00
N682   N     0.62317   0.92597   0.50800   0.00000  Uiso   1.00
H683   H     0.65240   0.93179   0.53878   0.00000  Uiso   1.00
H684   H     0.63199   0.92065   0.46379   0.00000  Uiso   1.00
I685   I     0.92217   0.67754   0.39201   0.00000  Uiso   1.00
I686   I     0.57754   0.99137   0.60398   0.00000  Uiso   1.00
I687   I     0.53436   0.99386   0.42309   0.00000  Uiso   1.00
I688   I     0.96595   0.67440   0.57377   0.00000  Uiso   1.00
N689   N     0.71522   0.98420   0.42197   0.00000  Uiso   1.00
H690   H     0.73505   0.96186   0.39288   0.00000  Uiso   1.00
H691   H     0.68869   0.96114   0.43167   0.00000  Uiso   1.00
N692   N     0.78512   0.68247   0.57780   0.00000  Uiso   1.00
H693   H     0.76539   0.70484   0.60704   0.00000  Uiso   1.00
H694   H     0.81157   0.70553   0.56788   0.00000  Uiso   1.00
I695   I     0.68556   0.76431   0.63366   0.00000  Uiso   1.00
I696   I     0.81466   0.90216   0.36672   0.00000  Uiso   1.00
C697   C     0.24833   0.06701   0.81825   0.00000  Uiso   1.00
C698   C     0.25172   0.26633   0.84840   0.00000  Uiso   1.00
C699   C     0.01273   0.07108   0.78839   0.00000  Uiso   1.00
C700   C     0.48682   0.26353   0.87518   0.00000  Uiso   1.00
C701   C     0.24208   0.01165   0.81078   0.00000  Uiso   1.00
C702   C     0.25807   0.32169   0.85582   0.00000  Uiso   1.00
C703   C     0.16466   0.16550   0.83308   0.00000  Uiso   1.00
C704   C     0.33528   0.16743   0.83346   0.00000  Uiso   1.00
C705   C     0.40946   0.21600   0.84624   0.00000  Uiso   1.00
C706   C     0.08959   0.11748   0.81705   0.00000  Uiso   1.00
C707   C     0.38359   0.16817   0.83351   0.00000  Uiso   1.00
C708   C     0.11628   0.16507   0.83264   0.00000  Uiso   1.00
C709   C     0.40291   0.12094   0.82131   0.00000  Uiso   1.00
C710   C     0.09731   0.21266   0.84516   0.00000  Uiso   1.00
C711   C     0.44831   0.12070   0.81234   0.00000  Uiso   1.00
C712   C     0.05156   0.21352   0.85277   0.00000  Uiso   1.00
C713   C     0.47639   0.16811   0.83233   0.00000  Uiso   1.00
C714   C     0.02329   0.16633   0.83249   0.00000  Uiso   1.00
C715   C     0.45732   0.21704   0.85128   0.00000  Uiso   1.00
C716   C     0.04209   0.11741   0.81285   0.00000  Uiso   1.00
C717   C     0.46603   0.07408   0.78455   0.00000  Uiso   1.00
C718   C     0.03367   0.26046   0.87947   0.00000  Uiso   1.00
Cu719  Cu    0.25500   0.17246   0.89479   0.00000  Uiso   1.00
Cu720  Cu    0.24499   0.16087   0.77187   0.00000  Uiso   1.00
N721   N     0.23744   0.15214   0.67951   0.00000  Uiso   1.00
N722   N     0.26255   0.18119   0.98716   0.00000  Uiso   1.00
O723   O     0.25325   0.09538   0.87326   0.00000  Uiso   1.00
O724   O     0.24674   0.23796   0.79341   0.00000  Uiso   1.00
O725   O     0.24480   0.08559   0.76945   0.00000  Uiso   1.00
O726   O     0.25520   0.24774   0.89721   0.00000  Uiso   1.00
O727   O     0.18935   0.17155   0.88524   0.00000  Uiso   1.00
O728   O     0.31064   0.16179   0.78143   0.00000  Uiso   1.00
O729   O     0.18090   0.16176   0.78143   0.00000  Uiso   1.00
O730   O     0.31910   0.17157   0.88523   0.00000  Uiso   1.00
N731   N     0.38502   0.26158   0.85347   0.00000  Uiso   1.00
H732   H     0.39476   0.28517   0.82474   0.00000  Uiso   1.00
H733   H     0.38701   0.28043   0.89942   0.00000  Uiso   1.00
N734   N     0.11135   0.06999   0.80390   0.00000  Uiso   1.00
H735   H     0.13333   0.06782   0.84181   0.00000  Uiso   1.00
H736   H     0.12970   0.06995   0.76702   0.00000  Uiso   1.00
N737   N     0.37777   0.07398   0.82574   0.00000  Uiso   1.00
H738   H     0.34825   0.06775   0.79546   0.00000  Uiso   1.00
H739   H     0.36938   0.07928   0.87016   0.00000  Uiso   1.00
N740   N     0.12317   0.25931   0.84134   0.00000  Uiso   1.00
H741   H     0.15240   0.26512   0.87211   0.00000  Uiso   1.00
H742   H     0.13199   0.25399   0.79713   0.00000  Uiso   1.00
I743   I     0.42217   0.01088   0.72534   0.00000  Uiso   1.00
I744   I     0.07754   0.32471   0.93731   0.00000  Uiso   1.00
I745   I     0.03436   0.32720   0.75643   0.00000  Uiso   1.00
I746   I     0.46595   0.00773   0.90711   0.00000  Uiso   1.00
N747   N     0.21522   0.31754   0.75531   0.00000  Uiso   1.00
H748   H     0.23505   0.29520   0.72621   0.00000  Uiso   1.00
H749   H     0.18869   0.29448   0.76501   0.00000  Uiso   1.00
N750   N     0.28512   0.01580   0.91114   0.00000  Uiso   1.00
H751   H     0.26539   0.03818   0.94038   0.00000  Uiso   1.00
H752   H     0.31157   0.03886   0.90122   0.00000  Uiso   1.00
I753   I     0.18556   0.09764   0.96699   0.00000  Uiso   1.00
I754   I     0.31466   0.23550   0.70005   0.00000  Uiso   1.00
C755   C     0.74833   0.06701   0.81825   0.00000  Uiso   1.00
C756   C     0.75172   0.26633   0.84840   0.00000  Uiso   1.00
C757   C     0.51273   0.07108   0.78839   0.00000  Uiso   1.00
C758   C     0.98682   0.26353   0.87518   0.00000  Uiso   1.00
C759   C     0.74208   0.01165   0.81078   0.00000  Uiso   1.00
C760   C     0.75807   0.32169   0.85582   0.00000  Uiso   1.00
C761   C     0.66466   0.16550   0.83308   0.00000  Uiso   1.00
C762   C     0.83528   0.16743   0.83346   0.00000  Uiso   1.00
C763   C     0.90946   0.21600   0.84624   0.00000  Uiso   1.00
C764   C     0.58959   0.11748   0.81705   0.00000  Uiso   1.00
C765   C     0.88359   0.16817   0.83351   0.00000  Uiso   1.00
C766   C     0.61628   0.16507   0.83264   0.00000  Uiso   1.00
C767   C     0.90291   0.12094   0.82131   0.00000  Uiso   1.00
C768   C     0.59731   0.21266   0.84516   0.00000  Uiso   1.00
C769   C     0.94831   0.12070   0.81234   0.00000  Uiso   1.00
C770   C     0.55156   0.21352   0.85277   0.00000  Uiso   1.00
C771   C     0.97639   0.16811   0.83233   0.00000  Uiso   1.00
C772   C     0.52329   0.16633   0.83249   0.00000  Uiso   1.00
C773   C     0.95732   0.21704   0.85128   0.00000  Uiso   1.00
C774   C     0.54209   0.11741   0.81285   0.00000  Uiso   1.00
C775   C     0.96603   0.07408   0.78455   0.00000  Uiso   1.00
C776   C     0.53367   0.26046   0.87947   0.00000  Uiso   1.00
Cu777  Cu    0.75500   0.17246   0.89479   0.00000  Uiso   1.00
Cu778  Cu    0.74499   0.16087   0.77187   0.00000  Uiso   1.00
N779   N     0.73744   0.15214   0.67951   0.00000  Uiso   1.00
N780   N     0.76255   0.18119   0.98716   0.00000  Uiso   1.00
O781   O     0.75325   0.09538   0.87326   0.00000  Uiso   1.00
O782   O     0.74674   0.23796   0.79341   0.00000  Uiso   1.00
O783   O     0.74480   0.08559   0.76945   0.00000  Uiso   1.00
O784   O     0.75520   0.24774   0.89721   0.00000  Uiso   1.00
O785   O     0.68935   0.17155   0.88524   0.00000  Uiso   1.00
O786   O     0.81064   0.16179   0.78143   0.00000  Uiso   1.00
O787   O     0.68090   0.16176   0.78143   0.00000  Uiso   1.00
O788   O     0.81910   0.17157   0.88523   0.00000  Uiso   1.00
N789   N     0.88502   0.26158   0.85347   0.00000  Uiso   1.00
H790   H     0.89476   0.28517   0.82474   0.00000  Uiso   1.00
H791   H     0.88701   0.28043   0.89942   0.00000  Uiso   1.00
N792   N     0.61135   0.06999   0.80390   0.00000  Uiso   1.00
H793   H     0.63333   0.06782   0.84181   0.00000  Uiso   1.00
H794   H     0.62970   0.06995   0.76702   0.00000  Uiso   1.00
N795   N     0.87777   0.07398   0.82574   0.00000  Uiso   1.00
H796   H     0.84825   0.06775   0.79546   0.00000  Uiso   1.00
H797   H     0.86938   0.07928   0.87016   0.00000  Uiso   1.00
N798   N     0.62317   0.25931   0.84134   0.00000  Uiso   1.00
H799   H     0.65240   0.26512   0.87211   0.00000  Uiso   1.00
H800   H     0.63199   0.25399   0.79713   0.00000  Uiso   1.00
I801   I     0.92217   0.01088   0.72534   0.00000  Uiso   1.00
I802   I     0.57754   0.32471   0.93731   0.00000  Uiso   1.00
I803   I     0.53436   0.32720   0.75643   0.00000  Uiso   1.00
I804   I     0.96595   0.00773   0.90711   0.00000  Uiso   1.00
N805   N     0.71522   0.31754   0.75531   0.00000  Uiso   1.00
H806   H     0.73505   0.29520   0.72621   0.00000  Uiso   1.00
H807   H     0.68869   0.29448   0.76501   0.00000  Uiso   1.00
N808   N     0.78512   0.01580   0.91114   0.00000  Uiso   1.00
H809   H     0.76539   0.03818   0.94038   0.00000  Uiso   1.00
H810   H     0.81157   0.03886   0.90122   0.00000  Uiso   1.00
I811   I     0.68556   0.09764   0.96699   0.00000  Uiso   1.00
I812   I     0.81466   0.23550   0.70005   0.00000  Uiso   1.00
C813   C     0.24833   0.40034   0.81825   0.00000  Uiso   1.00
C814   C     0.25172   0.59966   0.84840   0.00000  Uiso   1.00
C815   C     0.01273   0.40441   0.78839   0.00000  Uiso   1.00
C816   C     0.48682   0.59687   0.87518   0.00000  Uiso   1.00
C817   C     0.24208   0.34498   0.81078   0.00000  Uiso   1.00
C818   C     0.25807   0.65503   0.85582   0.00000  Uiso   1.00
C819   C     0.16466   0.49883   0.83308   0.00000  Uiso   1.00
C820   C     0.33528   0.50076   0.83346   0.00000  Uiso   1.00
C821   C     0.40946   0.54933   0.84624   0.00000  Uiso   1.00
C822   C     0.08959   0.45081   0.81705   0.00000  Uiso   1.00
C823   C     0.38359   0.50150   0.83351   0.00000  Uiso   1.00
C824   C     0.11628   0.49841   0.83264   0.00000  Uiso   1.00
C825   C     0.40291   0.45427   0.82131   0.00000  Uiso   1.00
C826   C     0.09731   0.54599   0.84516   0.00000  Uiso   1.00
C827   C     0.44831   0.45403   0.81234   0.00000  Uiso   1.00
C828   C     0.05156   0.54685   0.85277   0.00000  Uiso   1.00
C829   C     0.47639   0.50145   0.83233   0.00000  Uiso   1.00
C830   C     0.02329   0.49967   0.83249   0.00000  Uiso   1.00
C831   C     0.45732   0.55038   0.85128   0.00000  Uiso   1.00
C832   C     0.04209   0.45074   0.81285   0.00000  Uiso   1.00
C833   C     0.46603   0.40742   0.78455   0.00000  Uiso   1.00
C834   C     0.03367   0.59379   0.87947   0.00000  Uiso   1.00
Cu835  Cu    0.25500   0.50579   0.89479   0.00000  Uiso   1.00
Cu836  Cu    0.24499   0.49421   0.77187   0.00000  Uiso   1.00
N837   N     0.23744   0.48547   0.67951   0.00000  Uiso   1.00
N838   N     0.26255   0.51453   0.98716   0.00000  Uiso   1.00
O839   O     0.25325   0.42871   0.87326   0.00000  Uiso   1.00
O840   O     0.24674   0.57129   0.79341   0.00000  Uiso   1.00
O841   O     0.24480   0.41892   0.76945   0.00000  Uiso   1.00
O842   O     0.25520   0.58108   0.89721   0.00000  Uiso   1.00
O843   O     0.18935   0.50488   0.88524   0.00000  Uiso   1.00
O844   O     0.31064   0.49512   0.78143   0.00000  Uiso   1.00
O845   O     0.18090   0.49510   0.78143   0.00000  Uiso   1.00
O846   O     0.31910   0.50490   0.88523   0.00000  Uiso   1.00
N847   N     0.38502   0.59491   0.85347   0.00000  Uiso   1.00
H848   H     0.39476   0.61851   0.82474   0.00000  Uiso   1.00
H849   H     0.38701   0.61376   0.89942   0.00000  Uiso   1.00
N850   N     0.11135   0.40332   0.80390   0.00000  Uiso   1.00
H851   H     0.13333   0.40115   0.84181   0.00000  Uiso   1.00
H852   H     0.12970   0.40329   0.76702   0.00000  Uiso   1.00
N853   N     0.37777   0.40732   0.82574   0.00000  Uiso   1.00
H854   H     0.34825   0.40108   0.79546   0.00000  Uiso   1.00
H855   H     0.36938   0.41261   0.87016   0.00000  Uiso   1.00
N856   N     0.12317   0.59264   0.84134   0.00000  Uiso   1.00
H857   H     0.15240   0.59846   0.87211   0.00000  Uiso   1.00
H858   H     0.13199   0.58732   0.79713   0.00000  Uiso   1.00
I859   I     0.42217   0.34421   0.72534   0.00000  Uiso   1.00
I860   I     0.07754   0.65804   0.93731   0.00000  Uiso   1.00
I861   I     0.03436   0.66053   0.75643   0.00000  Uiso   1.00
I862   I     0.46595   0.34107   0.90711   0.00000  Uiso   1.00
N863   N     0.21522   0.65087   0.75531   0.00000  Uiso   1.00
H864   H     0.23505   0.62853   0.72621   0.00000  Uiso   1.00
H865   H     0.18869   0.62781   0.76501   0.00000  Uiso   1.00
N866   N     0.28512   0.34914   0.91114   0.00000  Uiso   1.00
H867   H     0.26539   0.37151   0.94038   0.00000  Uiso   1.00
H868   H     0.31157   0.37220   0.90122   0.00000  Uiso   1.00
I869   I     0.18556   0.43097   0.96699   0.00000  Uiso   1.00
I870   I     0.31466   0.56883   0.70005   0.00000  Uiso   1.00
C871   C     0.74833   0.40034   0.81825   0.00000  Uiso   1.00
C872   C     0.75172   0.59966   0.84840   0.00000  Uiso   1.00
C873   C     0.51273   0.40441   0.78839   0.00000  Uiso   1.00
C874   C     0.98682   0.59687   0.87518   0.00000  Uiso   1.00
C875   C     0.74208   0.34498   0.81078   0.00000  Uiso   1.00
C876   C     0.75807   0.65503   0.85582   0.00000  Uiso   1.00
C877   C     0.66466   0.49883   0.83308   0.00000  Uiso   1.00
C878   C     0.83528   0.50076   0.83346   0.00000  Uiso   1.00
C879   C     0.90946   0.54933   0.84624   0.00000  Uiso   1.00
C880   C     0.58959   0.45081   0.81705   0.00000  Uiso   1.00
C881   C     0.88359   0.50150   0.83351   0.00000  Uiso   1.00
C882   C     0.61628   0.49841   0.83264   0.00000  Uiso   1.00
C883   C     0.90291   0.45427   0.82131   0.00000  Uiso   1.00
C884   C     0.59731   0.54599   0.84516   0.00000  Uiso   1.00
C885   C     0.94831   0.45403   0.81234   0.00000  Uiso   1.00
C886   C     0.55156   0.54685   0.85277   0.00000  Uiso   1.00
C887   C     0.97639   0.50145   0.83233   0.00000  Uiso   1.00
C888   C     0.52329   0.49967   0.83249   0.00000  Uiso   1.00
C889   C     0.95732   0.55038   0.85128   0.00000  Uiso   1.00
C890   C     0.54209   0.45074   0.81285   0.00000  Uiso   1.00
C891   C     0.96603   0.40742   0.78455   0.00000  Uiso   1.00
C892   C     0.53367   0.59379   0.87947   0.00000  Uiso   1.00
Cu893  Cu    0.75500   0.50579   0.89479   0.00000  Uiso   1.00
Cu894  Cu    0.74499   0.49421   0.77187   0.00000  Uiso   1.00
N895   N     0.73744   0.48547   0.67951   0.00000  Uiso   1.00
N896   N     0.76255   0.51453   0.98716   0.00000  Uiso   1.00
O897   O     0.75325   0.42871   0.87326   0.00000  Uiso   1.00
O898   O     0.74674   0.57129   0.79341   0.00000  Uiso   1.00
O899   O     0.74480   0.41892   0.76945   0.00000  Uiso   1.00
O900   O     0.75520   0.58108   0.89721   0.00000  Uiso   1.00
O901   O     0.68935   0.50488   0.88524   0.00000  Uiso   1.00
O902   O     0.81064   0.49512   0.78143   0.00000  Uiso   1.00
O903   O     0.68090   0.49510   0.78143   0.00000  Uiso   1.00
O904   O     0.81910   0.50490   0.88523   0.00000  Uiso   1.00
N905   N     0.88502   0.59491   0.85347   0.00000  Uiso   1.00
H906   H     0.89476   0.61851   0.82474   0.00000  Uiso   1.00
H907   H     0.88701   0.61376   0.89942   0.00000  Uiso   1.00
N908   N     0.61135   0.40332   0.80390   0.00000  Uiso   1.00
H909   H     0.63333   0.40115   0.84181   0.00000  Uiso   1.00
H910   H     0.62970   0.40329   0.76702   0.00000  Uiso   1.00
N911   N     0.87777   0.40732   0.82574   0.00000  Uiso   1.00
H912   H     0.84825   0.40108   0.79546   0.00000  Uiso   1.00
H913   H     0.86938   0.41261   0.87016   0.00000  Uiso   1.00
N914   N     0.62317   0.59264   0.84134   0.00000  Uiso   1.00
H915   H     0.65240   0.59846   0.87211   0.00000  Uiso   1.00
H916   H     0.63199   0.58732   0.79713   0.00000  Uiso   1.00
I917   I     0.92217   0.34421   0.72534   0.00000  Uiso   1.00
I918   I     0.57754   0.65804   0.93731   0.00000  Uiso   1.00
I919   I     0.53436   0.66053   0.75643   0.00000  Uiso   1.00
I920   I     0.96595   0.34107   0.90711   0.00000  Uiso   1.00
N921   N     0.71522   0.65087   0.75531   0.00000  Uiso   1.00
H922   H     0.73505   0.62853   0.72621   0.00000  Uiso   1.00
H923   H     0.68869   0.62781   0.76501   0.00000  Uiso   1.00
N924   N     0.78512   0.34914   0.91114   0.00000  Uiso   1.00
H925   H     0.76539   0.37151   0.94038   0.00000  Uiso   1.00
H926   H     0.81157   0.37220   0.90122   0.00000  Uiso   1.00
I927   I     0.68556   0.43097   0.96699   0.00000  Uiso   1.00
I928   I     0.81466   0.56883   0.70005   0.00000  Uiso   1.00
C929   C     0.24833   0.73368   0.81825   0.00000  Uiso   1.00
C930   C     0.25172   0.93300   0.84840   0.00000  Uiso   1.00
C931   C     0.01273   0.73774   0.78839   0.00000  Uiso   1.00
C932   C     0.48682   0.93020   0.87518   0.00000  Uiso   1.00
C933   C     0.24208   0.67831   0.81078   0.00000  Uiso   1.00
C934   C     0.25807   0.98836   0.85582   0.00000  Uiso   1.00
C935   C     0.16466   0.83216   0.83308   0.00000  Uiso   1.00
C936   C     0.33528   0.83409   0.83346   0.00000  Uiso   1.00
C937   C     0.40946   0.88267   0.84624   0.00000  Uiso   1.00
C938   C     0.08959   0.78415   0.81705   0.00000  Uiso   1.00
C939   C     0.38359   0.83484   0.83351   0.00000  Uiso   1.00
C940   C     0.11628   0.83174   0.83264   0.00000  Uiso   1.00
C941   C     0.40291   0.78760   0.82131   0.00000  Uiso   1.00
C942   C     0.09731   0.87933   0.84516   0.00000  Uiso   1.00
C943   C     0.44831   0.78736   0.81234   0.00000  Uiso   1.00
C944   C     0.05156   0.88019   0.85277   0.00000  Uiso   1.00
C945   C     0.47639   0.83478   0.83233   0.00000  Uiso   1.00
C946   C     0.02329   0.83300   0.83249   0.00000  Uiso   1.00
C947   C     0.45732   0.88371   0.85128   0.00000  Uiso   1.00
C948   C     0.04209   0.78408   0.81285   0.00000  Uiso   1.00
C949   C     0.46603   0.74075   0.78455   0.00000  Uiso   1.00
C950   C     0.03367   0.92712   0.87947   0.00000  Uiso   1.00
Cu951  Cu    0.25500   0.83913   0.89479   0.00000  Uiso   1.00
Cu952  Cu    0.24499   0.82754   0.77187   0.00000  Uiso   1.00
N953   N     0.23744   0.81881   0.67951   0.00000  Uiso   1.00
N954   N     0.26255   0.84786   0.98716   0.00000  Uiso   1.00
O955   O     0.25325   0.76204   0.87326   0.00000  Uiso   1.00
O956   O     0.24674   0.90462   0.79341   0.00000  Uiso   1.00
O957   O     0.24480   0.75226   0.76945   0.00000  Uiso   1.00
O958   O     0.25520   0.91441   0.89721   0.00000  Uiso   1.00
O959   O     0.18935   0.83821   0.88524   0.00000  Uiso   1.00
O960   O     0.31064   0.82845   0.78143   0.00000  Uiso   1.00
O961   O     0.18090   0.82843   0.78143   0.00000  Uiso   1.00
O962   O     0.31910   0.83824   0.88523   0.00000  Uiso   1.00
N963   N     0.38502   0.92824   0.85347   0.00000  Uiso   1.00
H964   H     0.39476   0.95184   0.82474   0.00000  Uiso   1.00
H965   H     0.38701   0.94710   0.89942   0.00000  Uiso   1.00
N966   N     0.11135   0.73665   0.80390   0.00000  Uiso   1.00
H967   H     0.13333   0.73448   0.84181   0.00000  Uiso   1.00
H968   H     0.12970   0.73662   0.76702   0.00000  Uiso   1.00
N969   N     0.37777   0.74065   0.82574   0.00000  Uiso   1.00
H970   H     0.34825   0.73441   0.79546   0.00000  Uiso   1.00
H971   H     0.36938   0.74595   0.87016   0.00000  Uiso   1.00
N972   N     0.12317   0.92597   0.84134   0.00000  Uiso   1.00
H973   H     0.15240   0.93179   0.87211   0.00000  Uiso   1.00
H974   H     0.13199   0.92065   0.79713   0.00000  Uiso   1.00
I975   I     0.42217   0.67754   0.72534   0.00000  Uiso   1.00
I976   I     0.07754   0.99137   0.93731   0.00000  Uiso   1.00
I977   I     0.03436   0.99386   0.75643   0.00000  Uiso   1.00
I978   I     0.46595   0.67440   0.90711   0.00000  Uiso   1.00
N979   N     0.21522   0.98420   0.75531   0.00000  Uiso   1.00
H980   H     0.23505   0.96186   0.72621   0.00000  Uiso   1.00
H981   H     0.18869   0.96114   0.76501   0.00000  Uiso   1.00
N982   N     0.28512   0.68247   0.91114   0.00000  Uiso   1.00
H983   H     0.26539   0.70484   0.94038   0.00000  Uiso   1.00
H984   H     0.31157   0.70553   0.90122   0.00000  Uiso   1.00
I985   I     0.18556   0.76431   0.96699   0.00000  Uiso   1.00
I986   I     0.31466   0.90216   0.70005   0.00000  Uiso   1.00
C987   C     0.74833   0.73368   0.81825   0.00000  Uiso   1.00
C988   C     0.75172   0.93300   0.84840   0.00000  Uiso   1.00
C989   C     0.51273   0.73774   0.78839   0.00000  Uiso   1.00
C990   C     0.98682   0.93020   0.87518   0.00000  Uiso   1.00
C991   C     0.74208   0.67831   0.81078   0.00000  Uiso   1.00
C992   C     0.75807   0.98836   0.85582   0.00000  Uiso   1.00
C993   C     0.66466   0.83216   0.83308   0.00000  Uiso   1.00
C994   C     0.83528   0.83409   0.83346   0.00000  Uiso   1.00
C995   C     0.90946   0.88267   0.84624   0.00000  Uiso   1.00
C996   C     0.58959   0.78415   0.81705   0.00000  Uiso   1.00
C997   C     0.88359   0.83484   0.83351   0.00000  Uiso   1.00
C998   C     0.61628   0.83174   0.83264   0.00000  Uiso   1.00
C999   C     0.90291   0.78760   0.82131   0.00000  Uiso   1.00
C1000  C     0.59731   0.87933   0.84516   0.00000  Uiso   1.00
C1001  C     0.94831   0.78736   0.81234   0.00000  Uiso   1.00
C1002  C     0.55156   0.88019   0.85277   0.00000  Uiso   1.00
C1003  C     0.97639   0.83478   0.83233   0.00000  Uiso   1.00
C1004  C     0.52329   0.83300   0.83249   0.00000  Uiso   1.00
C1005  C     0.95732   0.88371   0.85128   0.00000  Uiso   1.00
C1006  C     0.54209   0.78408   0.81285   0.00000  Uiso   1.00
C1007  C     0.96603   0.74075   0.78455   0.00000  Uiso   1.00
C1008  C     0.53367   0.92712   0.87947   0.00000  Uiso   1.00
Cu1009 Cu    0.75500   0.83913   0.89479   0.00000  Uiso   1.00
Cu1010 Cu    0.74499   0.82754   0.77187   0.00000  Uiso   1.00
N1011  N     0.73744   0.81881   0.67951   0.00000  Uiso   1.00
N1012  N     0.76255   0.84786   0.98716   0.00000  Uiso   1.00
O1013  O     0.75325   0.76204   0.87326   0.00000  Uiso   1.00
O1014  O     0.74674   0.90462   0.79341   0.00000  Uiso   1.00
O1015  O     0.74480   0.75226   0.76945   0.00000  Uiso   1.00
O1016  O     0.75520   0.91441   0.89721   0.00000  Uiso   1.00
O1017  O     0.68935   0.83821   0.88524   0.00000  Uiso   1.00
O1018  O     0.81064   0.82845   0.78143   0.00000  Uiso   1.00
O1019  O     0.68090   0.82843   0.78143   0.00000  Uiso   1.00
O1020  O     0.81910   0.83824   0.88523   0.00000  Uiso   1.00
N1021  N     0.88502   0.92824   0.85347   0.00000  Uiso   1.00
H1022  H     0.89476   0.95184   0.82474   0.00000  Uiso   1.00
H1023  H     0.88701   0.94710   0.89942   0.00000  Uiso   1.00
N1024  N     0.61135   0.73665   0.80390   0.00000  Uiso   1.00
H1025  H     0.63333   0.73448   0.84181   0.00000  Uiso   1.00
H1026  H     0.62970   0.73662   0.76702   0.00000  Uiso   1.00
N1027  N     0.87777   0.74065   0.82574   0.00000  Uiso   1.00
H1028  H     0.84825   0.73441   0.79546   0.00000  Uiso   1.00
H1029  H     0.86938   0.74595   0.87016   0.00000  Uiso   1.00
N1030  N     0.62317   0.92597   0.84134   0.00000  Uiso   1.00
H1031  H     0.65240   0.93179   0.87211   0.00000  Uiso   1.00
H1032  H     0.63199   0.92065   0.79713   0.00000  Uiso   1.00
I1033  I     0.92217   0.67754   0.72534   0.00000  Uiso   1.00
I1034  I     0.57754   0.99137   0.93731   0.00000  Uiso   1.00
I1035  I     0.53436   0.99386   0.75643   0.00000  Uiso   1.00
I1036  I     0.96595   0.67440   0.90711   0.00000  Uiso   1.00
N1037  N     0.71522   0.98420   0.75531   0.00000  Uiso   1.00
H1038  H     0.73505   0.96186   0.72621   0.00000  Uiso   1.00
H1039  H     0.68869   0.96114   0.76501   0.00000  Uiso   1.00
N1040  N     0.78512   0.68247   0.91114   0.00000  Uiso   1.00
H1041  H     0.76539   0.70484   0.94038   0.00000  Uiso   1.00
H1042  H     0.81157   0.70553   0.90122   0.00000  Uiso   1.00
I1043  I     0.68556   0.76431   0.96699   0.00000  Uiso   1.00
I1044  I     0.81466   0.90216   0.70005   0.00000  Uiso   1.00
loop_
_geom_bond_atom_site_label_1
_geom_bond_atom_site_label_2
_geom_bond_distance
_geom_bond_site_symmetry_2
_ccdc_geom_bond_type
C1     C5      1.427   .     S
C1     O29     1.301   .     A
C1     O27     1.293   .     A
C2     O30     1.302   .     A
C2     C6      1.428   .     S
C2     O28     1.293   .     A
C3     C20     1.429   .     A
C3     C79     1.404   1_455 S
C3     I281    2.164   1_545 S
C4     C19     1.432   .     A
C4     C80     1.409   .     S
C4     I166    2.163   .     S
C5     C238    1.364   1_545 S
C5     N283    1.441   1_545 S
C6     C121    1.364   .     S
C6     N170    1.441   .     S
C7     C12     1.451   .     S
C7     O31     1.303   .     A
C7     O33     1.298   .     A
C8     O34     1.299   .     A
C8     C11     1.450   .     S
C8     O32     1.301   .     A
C9     C11     1.394   .     A
C9     N35     1.432   .     S
C9     C19     1.428   .     A
C10    N38     1.433   .     S
C10    C12     1.400   .     A
C10    C20     1.420   .     A
C11    C13     1.389   .     A
C12    C14     1.392   .     A
C13    C15     1.399   .     A
C13    N41     1.435   .     S
C14    C16     1.403   .     A
C14    N44     1.435   .     S
C15    C17     1.420   .     A
C15    C21     1.411   .     A
C16    C22     1.414   .     A
C16    C18     1.419   .     A
C17    C19     1.438   .     A
C17    C76     1.412   .     S
C18    C20     1.436   .     A
C18    C75     1.412   1_455 S
C21    I47     2.166   .     S
C21    C61     1.404   .     S
C22    I48     2.171   .     S
C22    C62     1.409   1_455 S
Cu23   Cu24    2.717   .     S
Cu23   O27     1.975   .     S
Cu23   O34     1.959   .     S
Cu23   O30     1.969   .     S
Cu23   N26     2.042   .     S
Cu23   O31     1.960   .     S
Cu24   O32     1.960   .     S
Cu24   O33     1.959   .     S
Cu24   N25     2.042   .     S
Cu24   O29     1.969   .     S
Cu24   O28     1.975   .     S
N25    N722    1.305   1_554 S
N25    I753    2.075   1_554 S
N26    N373    1.305   .     S
N26    I406    2.079   .     S
N35    H37     1.044   .     S
N35    H36     1.043   .     S
N38    H40     1.046   .     S
N38    H39     1.044   .     S
N41    H42     1.046   .     S
N41    H43     1.044   .     S
N44    H45     1.046   .     S
N44    H46     1.043   .     S
I49    C119    2.164   .     S
I50    C236    2.163   1_545 S
N51    H52     1.042   .     S
N51    H53     1.042   .     S
N51    C121    1.441   .     S
N54    H56     1.042   .     S
N54    H55     1.042   .     S
N54    C238    1.441   1_545 S
I57    N373    2.075   .     S
I58    N722    2.079   1_554 S
C59    C63     1.427   .     S
C59    O87     1.301   .     A
C59    O85     1.293   .     A
C60    O88     1.302   .     A
C60    C64     1.428   .     S
C60    O86     1.293   .     A
C61    C78     1.429   .     A
C61    I339    2.164   1_545 S
C62    C77     1.432   .     A
C62    C22     1.409   1_655 S
C62    I224    2.163   .     S
C63    C296    1.364   1_545 S
C63    N341    1.441   1_545 S
C64    C179    1.364   .     S
C64    N228    1.441   .     S
C65    C70     1.451   .     S
C65    O89     1.303   .     A
C65    O91     1.298   .     A
C66    O92     1.299   .     A
C66    C69     1.450   .     S
C66    O90     1.301   .     A
C67    C69     1.394   .     A
C67    N93     1.432   .     S
C67    C77     1.428   .     A
C68    N96     1.433   .     S
C68    C70     1.400   .     A
C68    C78     1.420   .     A
C69    C71     1.389   .     A
C70    C72     1.392   .     A
C71    C73     1.399   .     A
C71    N99     1.435   .     S
C72    C74     1.403   .     A
C72    N102    1.435   .     S
C73    C75     1.420   .     A
C73    C79     1.411   .     A
C74    C80     1.414   .     A
C74    C76     1.419   .     A
C75    C77     1.438   .     A
C75    C18     1.412   1_655 S
C76    C78     1.436   .     A
C79    I105    2.166   .     S
C79    C3      1.404   1_655 S
C80    I106    2.171   .     S
Cu81   Cu82    2.717   .     S
Cu81   O85     1.975   .     S
Cu81   O92     1.959   .     S
Cu81   O88     1.969   .     S
Cu81   N84     2.042   .     S
Cu81   O89     1.960   .     S
Cu82   O90     1.960   .     S
Cu82   O91     1.959   .     S
Cu82   N83     2.042   .     S
Cu82   O87     1.969   .     S
Cu82   O86     1.975   .     S
N83    N780    1.305   1_554 S
N83    I811    2.075   1_554 S
N84    N431    1.305   .     S
N84    I464    2.079   .     S
N93    H95     1.044   .     S
N93    H94     1.043   .     S
N96    H98     1.046   .     S
N96    H97     1.044   .     S
N99    H100    1.046   .     S
N99    H101    1.044   .     S
N102   H103    1.046   .     S
N102   H104    1.043   .     S
I107   C177    2.164   .     S
I108   C294    2.163   1_545 S
N109   H110    1.042   .     S
N109   H111    1.042   .     S
N109   C179    1.441   .     S
N112   H114    1.042   .     S
N112   H113    1.042   .     S
N112   C296    1.441   1_545 S
I115   N431    2.075   .     S
I116   N780    2.079   1_554 S
C117   C121    1.427   .     S
C117   O145    1.301   .     A
C117   O143    1.293   .     A
C118   O146    1.302   .     A
C118   C122    1.428   .     S
C118   O144    1.293   .     A
C119   C136    1.429   .     A
C119   C195    1.404   1_455 S
C120   C135    1.432   .     A
C120   C196    1.409   .     S
C120   I282    2.163   .     S
C122   C237    1.364   .     S
C122   N286    1.441   .     S
C123   C128    1.451   .     S
C123   O147    1.303   .     A
C123   O149    1.298   .     A
C124   O150    1.299   .     A
C124   C127    1.450   .     S
C124   O148    1.301   .     A
C125   C127    1.394   .     A
C125   N151    1.432   .     S
C125   C135    1.428   .     A
C126   N154    1.433   .     S
C126   C128    1.400   .     A
C126   C136    1.420   .     A
C127   C129    1.389   .     A
C128   C130    1.392   .     A
C129   C131    1.399   .     A
C129   N157    1.435   .     S
C130   C132    1.403   .     A
C130   N160    1.435   .     S
C131   C133    1.420   .     A
C131   C137    1.411   .     A
C132   C138    1.414   .     A
C132   C134    1.419   .     A
C133   C135    1.438   .     A
C133   C192    1.412   .     S
C134   C136    1.436   .     A
C134   C191    1.412   1_455 S
C137   I163    2.166   .     S
C137   C177    1.404   .     S
C138   I164    2.171   .     S
C138   C178    1.409   1_455 S
Cu139  Cu140   2.717   .     S
Cu139  O143    1.975   .     S
Cu139  O150    1.959   .     S
Cu139  O146    1.969   .     S
Cu139  N142    2.042   .     S
Cu139  O147    1.960   .     S
Cu140  O148    1.960   .     S
Cu140  O149    1.959   .     S
Cu140  N141    2.042   .     S
Cu140  O145    1.969   .     S
Cu140  O144    1.975   .     S
N141   N838    1.305   1_554 S
N141   I869    2.075   1_554 S
N142   N489    1.305   .     S
N142   I522    2.079   .     S
N151   H153    1.044   .     S
N151   H152    1.043   .     S
N154   H156    1.046   .     S
N154   H155    1.044   .     S
N157   H158    1.046   .     S
N157   H159    1.044   .     S
N160   H161    1.046   .     S
N160   H162    1.043   .     S
I165   C235    2.164   .     S
N167   H168    1.042   .     S
N167   H169    1.042   .     S
N167   C237    1.441   .     S
N170   H172    1.042   .     S
N170   H171    1.042   .     S
I173   N489    2.075   .     S
I174   N838    2.079   1_554 S
C175   C179    1.427   .     S
C175   O203    1.301   .     A
C175   O201    1.293   .     A
C176   O204    1.302   .     A
C176   C180    1.428   .     S
C176   O202    1.293   .     A
C177   C194    1.429   .     A
C178   C193    1.432   .     A
C178   C138    1.409   1_655 S
C178   I340    2.163   .     S
C180   C295    1.364   .     S
C180   N344    1.441   .     S
C181   C186    1.451   .     S
C181   O205    1.303   .     A
C181   O207    1.298   .     A
C182   O208    1.299   .     A
C182   C185    1.450   .     S
C182   O206    1.301   .     A
C183   C185    1.394   .     A
C183   N209    1.432   .     S
C183   C193    1.428   .     A
C184   N212    1.433   .     S
C184   C186    1.400   .     A
C184   C194    1.420   .     A
C185   C187    1.389   .     A
C186   C188    1.392   .     A
C187   C189    1.399   .     A
C187   N215    1.435   .     S
C188   C190    1.403   .     A
C188   N218    1.435   .     S
C189   C191    1.420   .     A
C189   C195    1.411   .     A
C190   C196    1.414   .     A
C190   C192    1.419   .     A
C191   C193    1.438   .     A
C191   C134    1.412   1_655 S
C192   C194    1.436   .     A
C195   I221    2.166   .     S
C195   C119    1.404   1_655 S
C196   I222    2.171   .     S
Cu197  Cu198   2.717   .     S
Cu197  O201    1.975   .     S
Cu197  O208    1.959   .     S
Cu197  O204    1.969   .     S
Cu197  N200    2.042   .     S
Cu197  O205    1.960   .     S
Cu198  O206    1.960   .     S
Cu198  O207    1.959   .     S
Cu198  N199    2.042   .     S
Cu198  O203    1.969   .     S
Cu198  O202    1.975   .     S
N199   N896    1.305   1_554 S
N199   I927    2.075   1_554 S
N200   N547    1.305   .     S
N200   I580    2.079   .     S
N209   H211    1.044   .     S
N209   H210    1.043   .     S
N212   H214    1.046   .     S
N212   H213    1.044   .     S
N215   H216    1.046   .     S
N215   H217    1.044   .     S
N218   H219    1.046   .     S
N218   H220    1.043   .     S
I223   C293    2.164   .     S
N225   H226    1.042   .     S
N225   H227    1.042   .     S
N225   C295    1.441   .     S
N228   H230    1.042   .     S
N228   H229    1.042   .     S
I231   N547    2.075   .     S
I232   N896    2.079   1_554 S
C233   C237    1.427   .     S
C233   O261    1.301   .     A
C233   O259    1.293   .     A
C234   O262    1.302   .     A
C234   C238    1.428   .     S
C234   O260    1.293   .     A
C235   C252    1.429   .     A
C235   C311    1.404   1_455 S
C236   C251    1.432   .     A
C236   C312    1.409   .     S
C236   I50     2.163   1_565 S
C238   C5      1.364   1_565 S
C238   N54     1.441   1_565 S
C239   C244    1.451   .     S
C239   O263    1.303   .     A
C239   O265    1.298   .     A
C240   O266    1.299   .     A
C240   C243    1.450   .     S
C240   O264    1.301   .     A
C241   C243    1.394   .     A
C241   N267    1.432   .     S
C241   C251    1.428   .     A
C242   N270    1.433   .     S
C242   C244    1.400   .     A
C242   C252    1.420   .     A
C243   C245    1.389   .     A
C244   C246    1.392   .     A
C245   C247    1.399   .     A
C245   N273    1.435   .     S
C246   C248    1.403   .     A
C246   N276    1.435   .     S
C247   C249    1.420   .     A
C247   C253    1.411   .     A
C248   C254    1.414   .     A
C248   C250    1.419   .     A
C249   C251    1.438   .     A
C249   C308    1.412   .     S
C250   C252    1.436   .     A
C250   C307    1.412   1_455 S
C253   I279    2.166   .     S
C253   C293    1.404   .     S
C254   I280    2.171   .     S
C254   C294    1.409   1_455 S
Cu255  Cu256   2.717   .     S
Cu255  O259    1.975   .     S
Cu255  O266    1.959   .     S
Cu255  O262    1.969   .     S
Cu255  N258    2.042   .     S
Cu255  O263    1.960   .     S
Cu256  O264    1.960   .     S
Cu256  O265    1.959   .     S
Cu256  N257    2.042   .     S
Cu256  O261    1.969   .     S
Cu256  O260    1.975   .     S
N257   N954    1.305   1_554 S
N257   I985    2.075   1_554 S
N258   N605    1.305   .     S
N258   I638    2.079   .     S
N267   H269    1.044   .     S
N267   H268    1.043   .     S
N270   H272    1.046   .     S
N270   H271    1.044   .     S
N273   H274    1.046   .     S
N273   H275    1.044   .     S
N276   H277    1.046   .     S
N276   H278    1.043   .     S
I281   C3      2.164   1_565 S
N283   H284    1.042   .     S
N283   H285    1.042   .     S
N283   C5      1.441   1_565 S
N286   H288    1.042   .     S
N286   H287    1.042   .     S
I289   N605    2.075   .     S
I290   N954    2.079   1_554 S
C291   C295    1.427   .     S
C291   O319    1.301   .     A
C291   O317    1.293   .     A
C292   O320    1.302   .     A
C292   C296    1.428   .     S
C292   O318    1.293   .     A
C293   C310    1.429   .     A
C294   C309    1.432   .     A
C294   C254    1.409   1_655 S
C294   I108    2.163   1_565 S
C296   C63     1.364   1_565 S
C296   N112    1.441   1_565 S
C297   C302    1.451   .     S
C297   O321    1.303   .     A
C297   O323    1.298   .     A
C298   O324    1.299   .     A
C298   C301    1.450   .     S
C298   O322    1.301   .     A
C299   C301    1.394   .     A
C299   N325    1.432   .     S
C299   C309    1.428   .     A
C300   N328    1.433   .     S
C300   C302    1.400   .     A
C300   C310    1.420   .     A
C301   C303    1.389   .     A
C302   C304    1.392   .     A
C303   C305    1.399   .     A
C303   N331    1.435   .     S
C304   C306    1.403   .     A
C304   N334    1.435   .     S
C305   C307    1.420   .     A
C305   C311    1.411   .     A
C306   C312    1.414   .     A
C306   C308    1.419   .     A
C307   C309    1.438   .     A
C307   C250    1.412   1_655 S
C308   C310    1.436   .     A
C311   I337    2.166   .     S
C311   C235    1.404   1_655 S
C312   I338    2.171   .     S
Cu313  Cu314   2.717   .     S
Cu313  O317    1.975   .     S
Cu313  O324    1.959   .     S
Cu313  O320    1.969   .     S
Cu313  N316    2.042   .     S
Cu313  O321    1.960   .     S
Cu314  O322    1.960   .     S
Cu314  O323    1.959   .     S
Cu314  N315    2.042   .     S
Cu314  O319    1.969   .     S
Cu314  O318    1.975   .     S
N315   N1012   1.305   1_554 S
N315   I1043   2.075   1_554 S
N316   N663    1.305   .     S
N316   I696    2.079   .     S
N325   H327    1.044   .     S
N325   H326    1.043   .     S
N328   H330    1.046   .     S
N328   H329    1.044   .     S
N331   H332    1.046   .     S
N331   H333    1.044   .     S
N334   H335    1.046   .     S
N334   H336    1.043   .     S
I339   C61     2.164   1_565 S
N341   H342    1.042   .     S
N341   H343    1.042   .     S
N341   C63     1.441   1_565 S
N344   H346    1.042   .     S
N344   H345    1.042   .     S
I347   N663    2.075   .     S
I348   N1012   2.079   1_554 S
C349   C353    1.427   .     S
C349   O377    1.301   .     A
C349   O375    1.293   .     A
C350   O378    1.302   .     A
C350   C354    1.428   .     S
C350   O376    1.293   .     A
C351   C368    1.429   .     A
C351   C427    1.404   1_455 S
C351   I629    2.164   1_545 S
C352   C367    1.432   .     A
C352   C428    1.409   .     S
C352   I514    2.163   .     S
C353   C586    1.364   1_545 S
C353   N631    1.441   1_545 S
C354   C469    1.364   .     S
C354   N518    1.441   .     S
C355   C360    1.451   .     S
C355   O379    1.303   .     A
C355   O381    1.298   .     A
C356   O382    1.299   .     A
C356   C359    1.450   .     S
C356   O380    1.301   .     A
C357   C359    1.394   .     A
C357   N383    1.432   .     S
C357   C367    1.428   .     A
C358   N386    1.433   .     S
C358   C360    1.400   .     A
C358   C368    1.420   .     A
C359   C361    1.389   .     A
C360   C362    1.392   .     A
C361   C363    1.399   .     A
C361   N389    1.435   .     S
C362   C364    1.403   .     A
C362   N392    1.435   .     S
C363   C365    1.420   .     A
C363   C369    1.411   .     A
C364   C370    1.414   .     A
C364   C366    1.419   .     A
C365   C367    1.438   .     A
C365   C424    1.412   .     S
C366   C368    1.436   .     A
C366   C423    1.412   1_455 S
C369   I395    2.166   .     S
C369   C409    1.404   .     S
C370   I396    2.171   .     S
C370   C410    1.409   1_455 S
Cu371  Cu372   2.717   .     S
Cu371  O375    1.975   .     S
Cu371  O382    1.959   .     S
Cu371  O378    1.969   .     S
Cu371  N374    2.042   .     S
Cu371  O379    1.960   .     S
Cu372  O380    1.960   .     S
Cu372  O381    1.959   .     S
Cu372  N373    2.042   .     S
Cu372  O377    1.969   .     S
Cu372  O376    1.975   .     S
N374   N721    1.305   .     S
N374   I754    2.079   .     S
N383   H385    1.044   .     S
N383   H384    1.043   .     S
N386   H388    1.046   .     S
N386   H387    1.044   .     S
N389   H390    1.046   .     S
N389   H391    1.044   .     S
N392   H393    1.046   .     S
N392   H394    1.043   .     S
I397   C467    2.164   .     S
I398   C584    2.163   1_545 S
N399   H400    1.042   .     S
N399   H401    1.042   .     S
N399   C469    1.441   .     S
N402   H404    1.042   .     S
N402   H403    1.042   .     S
N402   C586    1.441   1_545 S
I405   N721    2.075   .     S
C407   C411    1.427   .     S
C407   O435    1.301   .     A
C407   O433    1.293   .     A
C408   O436    1.302   .     A
C408   C412    1.428   .     S
C408   O434    1.293   .     A
C409   C426    1.429   .     A
C409   I687    2.164   1_545 S
C410   C425    1.432   .     A
C410   C370    1.409   1_655 S
C410   I572    2.163   .     S
C411   C644    1.364   1_545 S
C411   N689    1.441   1_545 S
C412   C527    1.364   .     S
C412   N576    1.441   .     S
C413   C418    1.451   .     S
C413   O437    1.303   .     A
C413   O439    1.298   .     A
C414   O440    1.299   .     A
C414   C417    1.450   .     S
C414   O438    1.301   .     A
C415   C417    1.394   .     A
C415   N441    1.432   .     S
C415   C425    1.428   .     A
C416   N444    1.433   .     S
C416   C418    1.400   .     A
C416   C426    1.420   .     A
C417   C419    1.389   .     A
C418   C420    1.392   .     A
C419   C421    1.399   .     A
C419   N447    1.435   .     S
C420   C422    1.403   .     A
C420   N450    1.435   .     S
C421   C423    1.420   .     A
C421   C427    1.411   .     A
C422   C428    1.414   .     A
C422   C424    1.419   .     A
C423   C425    1.438   .     A
C423   C366    1.412   1_655 S
C424   C426    1.436   .     A
C427   I453    2.166   .     S
C427   C351    1.404   1_655 S
C428   I454    2.171   .     S
Cu429  Cu430   2.717   .     S
Cu429  O433    1.975   .     S
Cu429  O440    1.959   .     S
Cu429  O436    1.969   .     S
Cu429  N432    2.042   .     S
Cu429  O437    1.960   .     S
Cu430  O438    1.960   .     S
Cu430  O439    1.959   .     S
Cu430  N431    2.042   .     S
Cu430  O435    1.969   .     S
Cu430  O434    1.975   .     S
N432   N779    1.305   .     S
N432   I812    2.079   .     S
N441   H443    1.044   .     S
N441   H442    1.043   .     S
N444   H446    1.046   .     S
N444   H445    1.044   .     S
N447   H448    1.046   .     S
N447   H449    1.044   .     S
N450   H451    1.046   .     S
N450   H452    1.043   .     S
I455   C525    2.164   .     S
I456   C642    2.163   1_545 S
N457   H458    1.042   .     S
N457   H459    1.042   .     S
N457   C527    1.441   .     S
N460   H462    1.042   .     S
N460   H461    1.042   .     S
N460   C644    1.441   1_545 S
I463   N779    2.075   .     S
C465   C469    1.427   .     S
C465   O493    1.301   .     A
C465   O491    1.293   .     A
C466   O494    1.302   .     A
C466   C470    1.428   .     S
C466   O492    1.293   .     A
C467   C484    1.429   .     A
C467   C543    1.404   1_455 S
C468   C483    1.432   .     A
C468   C544    1.409   .     S
C468   I630    2.163   .     S
C470   C585    1.364   .     S
C470   N634    1.441   .     S
C471   C476    1.451   .     S
C471   O495    1.303   .     A
C471   O497    1.298   .     A
C472   O498    1.299   .     A
C472   C475    1.450   .     S
C472   O496    1.301   .     A
C473   C475    1.394   .     A
C473   N499    1.432   .     S
C473   C483    1.428   .     A
C474   N502    1.433   .     S
C474   C476    1.400   .     A
C474   C484    1.420   .     A
C475   C477    1.389   .     A
C476   C478    1.392   .     A
C477   C479    1.399   .     A
C477   N505    1.435   .     S
C478   C480    1.403   .     A
C478   N508    1.435   .     S
C479   C481    1.420   .     A
C479   C485    1.411   .     A
C480   C486    1.414   .     A
C480   C482    1.419   .     A
C481   C483    1.438   .     A
C481   C540    1.412   .     S
C482   C484    1.436   .     A
C482   C539    1.412   1_455 S
C485   I511    2.166   .     S
C485   C525    1.404   .     S
C486   I512    2.171   .     S
C486   C526    1.409   1_455 S
Cu487  Cu488   2.717   .     S
Cu487  O491    1.975   .     S
Cu487  O498    1.959   .     S
Cu487  O494    1.969   .     S
Cu487  N490    2.042   .     S
Cu487  O495    1.960   .     S
Cu488  O496    1.960   .     S
Cu488  O497    1.959   .     S
Cu488  N489    2.042   .     S
Cu488  O493    1.969   .     S
Cu488  O492    1.975   .     S
N490   N837    1.305   .     S
N490   I870    2.079   .     S
N499   H501    1.044   .     S
N499   H500    1.043   .     S
N502   H504    1.046   .     S
N502   H503    1.044   .     S
N505   H506    1.046   .     S
N505   H507    1.044   .     S
N508   H509    1.046   .     S
N508   H510    1.043   .     S
I513   C583    2.164   .     S
N515   H516    1.042   .     S
N515   H517    1.042   .     S
N515   C585    1.441   .     S
N518   H520    1.042   .     S
N518   H519    1.042   .     S
I521   N837    2.075   .     S
C523   C527    1.427   .     S
C523   O551    1.301   .     A
C523   O549    1.293   .     A
C524   O552    1.302   .     A
C524   C528    1.428   .     S
C524   O550    1.293   .     A
C525   C542    1.429   .     A
C526   C541    1.432   .     A
C526   C486    1.409   1_655 S
C526   I688    2.163   .     S
C528   C643    1.364   .     S
C528   N692    1.441   .     S
C529   C534    1.451   .     S
C529   O553    1.303   .     A
C529   O555    1.298   .     A
C530   O556    1.299   .     A
C530   C533    1.450   .     S
C530   O554    1.301   .     A
C531   C533    1.394   .     A
C531   N557    1.432   .     S
C531   C541    1.428   .     A
C532   N560    1.433   .     S
C532   C534    1.400   .     A
C532   C542    1.420   .     A
C533   C535    1.389   .     A
C534   C536    1.392   .     A
C535   C537    1.399   .     A
C535   N563    1.435   .     S
C536   C538    1.403   .     A
C536   N566    1.435   .     S
C537   C539    1.420   .     A
C537   C543    1.411   .     A
C538   C544    1.414   .     A
C538   C540    1.419   .     A
C539   C541    1.438   .     A
C539   C482    1.412   1_655 S
C540   C542    1.436   .     A
C543   I569    2.166   .     S
C543   C467    1.404   1_655 S
C544   I570    2.171   .     S
Cu545  Cu546   2.717   .     S
Cu545  O549    1.975   .     S
Cu545  O556    1.959   .     S
Cu545  O552    1.969   .     S
Cu545  N548    2.042   .     S
Cu545  O553    1.960   .     S
Cu546  O554    1.960   .     S
Cu546  O555    1.959   .     S
Cu546  N547    2.042   .     S
Cu546  O551    1.969   .     S
Cu546  O550    1.975   .     S
N548   N895    1.305   .     S
N548   I928    2.079   .     S
N557   H559    1.044   .     S
N557   H558    1.043   .     S
N560   H562    1.046   .     S
N560   H561    1.044   .     S
N563   H564    1.046   .     S
N563   H565    1.044   .     S
N566   H567    1.046   .     S
N566   H568    1.043   .     S
I571   C641    2.164   .     S
N573   H574    1.042   .     S
N573   H575    1.042   .     S
N573   C643    1.441   .     S
N576   H578    1.042   .     S
N576   H577    1.042   .     S
I579   N895    2.075   .     S
C581   C585    1.427   .     S
C581   O609    1.301   .     A
C581   O607    1.293   .     A
C582   O610    1.302   .     A
C582   C586    1.428   .     S
C582   O608    1.293   .     A
C583   C600    1.429   .     A
C583   C659    1.404   1_455 S
C584   C599    1.432   .     A
C584   C660    1.409   .     S
C584   I398    2.163   1_565 S
C586   C353    1.364   1_565 S
C586   N402    1.441   1_565 S
C587   C592    1.451   .     S
C587   O611    1.303   .     A
C587   O613    1.298   .     A
C588   O614    1.299   .     A
C588   C591    1.450   .     S
C588   O612    1.301   .     A
C589   C591    1.394   .     A
C589   N615    1.432   .     S
C589   C599    1.428   .     A
C590   N618    1.433   .     S
C590   C592    1.400   .     A
C590   C600    1.420   .     A
C591   C593    1.389   .     A
C592   C594    1.392   .     A
C593   C595    1.399   .     A
C593   N621    1.435   .     S
C594   C596    1.403   .     A
C594   N624    1.435   .     S
C595   C597    1.420   .     A
C595   C601    1.411   .     A
C596   C602    1.414   .     A
C596   C598    1.419   .     A
C597   C599    1.438   .     A
C597   C656    1.412   .     S
C598   C600    1.436   .     A
C598   C655    1.412   1_455 S
C601   I627    2.166   .     S
C601   C641    1.404   .     S
C602   I628    2.171   .     S
C602   C642    1.409   1_455 S
Cu603  Cu604   2.717   .     S
Cu603  O607    1.975   .     S
Cu603  O614    1.959   .     S
Cu603  O610    1.969   .     S
Cu603  N606    2.042   .     S
Cu603  O611    1.960   .     S
Cu604  O612    1.960   .     S
Cu604  O613    1.959   .     S
Cu604  N605    2.042   .     S
Cu604  O609    1.969   .     S
Cu604  O608    1.975   .     S
N606   N953    1.305   .     S
N606   I986    2.079   .     S
N615   H617    1.044   .     S
N615   H616    1.043   .     S
N618   H620    1.046   .     S
N618   H619    1.044   .     S
N621   H622    1.046   .     S
N621   H623    1.044   .     S
N624   H625    1.046   .     S
N624   H626    1.043   .     S
I629   C351    2.164   1_565 S
N631   H632    1.042   .     S
N631   H633    1.042   .     S
N631   C353    1.441   1_565 S
N634   H636    1.042   .     S
N634   H635    1.042   .     S
I637   N953    2.075   .     S
C639   C643    1.427   .     S
C639   O667    1.301   .     A
C639   O665    1.293   .     A
C640   O668    1.302   .     A
C640   C644    1.428   .     S
C640   O666    1.293   .     A
C641   C658    1.429   .     A
C642   C657    1.432   .     A
C642   C602    1.409   1_655 S
C642   I456    2.163   1_565 S
C644   C411    1.364   1_565 S
C644   N460    1.441   1_565 S
C645   C650    1.451   .     S
C645   O669    1.303   .     A
C645   O671    1.298   .     A
C646   O672    1.299   .     A
C646   C649    1.450   .     S
C646   O670    1.301   .     A
C647   C649    1.394   .     A
C647   N673    1.432   .     S
C647   C657    1.428   .     A
C648   N676    1.433   .     S
C648   C650    1.400   .     A
C648   C658    1.420   .     A
C649   C651    1.389   .     A
C650   C652    1.392   .     A
C651   C653    1.399   .     A
C651   N679    1.435   .     S
C652   C654    1.403   .     A
C652   N682    1.435   .     S
C653   C655    1.420   .     A
C653   C659    1.411   .     A
C654   C660    1.414   .     A
C654   C656    1.419   .     A
C655   C657    1.438   .     A
C655   C598    1.412   1_655 S
C656   C658    1.436   .     A
C659   I685    2.166   .     S
C659   C583    1.404   1_655 S
C660   I686    2.171   .     S
Cu661  Cu662   2.717   .     S
Cu661  O665    1.975   .     S
Cu661  O672    1.959   .     S
Cu661  O668    1.969   .     S
Cu661  N664    2.042   .     S
Cu661  O669    1.960   .     S
Cu662  O670    1.960   .     S
Cu662  O671    1.959   .     S
Cu662  N663    2.042   .     S
Cu662  O667    1.969   .     S
Cu662  O666    1.975   .     S
N664   N1011   1.305   .     S
N664   I1044   2.079   .     S
N673   H675    1.044   .     S
N673   H674    1.043   .     S
N676   H678    1.046   .     S
N676   H677    1.044   .     S
N679   H680    1.046   .     S
N679   H681    1.044   .     S
N682   H683    1.046   .     S
N682   H684    1.043   .     S
I687   C409    2.164   1_565 S
N689   H690    1.042   .     S
N689   H691    1.042   .     S
N689   C411    1.441   1_565 S
N692   H694    1.042   .     S
N692   H693    1.042   .     S
I695   N1011   2.075   .     S
C697   C701    1.427   .     S
C697   O725    1.301   .     A
C697   O723    1.293   .     A
C698   O726    1.302   .     A
C698   C702    1.428   .     S
C698   O724    1.293   .     A
C699   C716    1.429   .     A
C699   C775    1.404   1_455 S
C699   I977    2.164   1_545 S
C700   C715    1.432   .     A
C700   C776    1.409   .     S
C700   I862    2.163   .     S
C701   C934    1.364   1_545 S
C701   N979    1.441   1_545 S
C702   C817    1.364   .     S
C702   N866    1.441   .     S
C703   C708    1.451   .     S
C703   O727    1.303   .     A
C703   O729    1.298   .     A
C704   O730    1.299   .     A
C704   C707    1.450   .     S
C704   O728    1.301   .     A
C705   C707    1.394   .     A
C705   N731    1.432   .     S
C705   C715    1.428   .     A
C706   N734    1.433   .     S
C706   C708    1.400   .     A
C706   C716    1.420   .     A
C707   C709    1.389   .     A
C708   C710    1.392   .     A
C709   C711    1.399   .     A
C709   N737    1.435   .     S
C710   C712    1.403   .     A
C710   N740    1.435   .     S
C711   C713    1.420   .     A
C711   C717    1.411   .     A
C712   C718    1.414   .     A
C712   C714    1.419   .     A
C713   C715    1.438   .     A
C713   C772    1.412   .     S
C714   C716    1.436   .     A
C714   C771    1.412   1_455 S
C717   I743    2.166   .     S
C717   C757    1.404   .     S
C718   I744    2.171   .     S
C718   C758    1.409   1_455 S
Cu719  Cu720   2.717   .     S
Cu719  O723    1.975   .     S
Cu719  O730    1.959   .     S
Cu719  O726    1.969   .     S
Cu719  N722    2.042   .     S
Cu719  O727    1.960   .     S
Cu720  O728    1.960   .     S
Cu720  O729    1.959   .     S
Cu720  N721    2.042   .     S
Cu720  O725    1.969   .     S
Cu720  O724    1.975   .     S
N722   N25     1.305   1_556 S
N722   I58     2.079   1_556 S
N731   H733    1.044   .     S
N731   H732    1.043   .     S
N734   H736    1.046   .     S
N734   H735    1.044   .     S
N737   H738    1.046   .     S
N737   H739    1.044   .     S
N740   H741    1.046   .     S
N740   H742    1.043   .     S
I745   C815    2.164   .     S
I746   C932    2.163   1_545 S
N747   H748    1.042   .     S
N747   H749    1.042   .     S
N747   C817    1.441   .     S
N750   H752    1.042   .     S
N750   H751    1.042   .     S
N750   C934    1.441   1_545 S
I753   N25     2.075   1_556 S
C755   C759    1.427   .     S
C755   O783    1.301   .     A
C755   O781    1.293   .     A
C756   O784    1.302   .     A
C756   C760    1.428   .     S
C756   O782    1.293   .     A
C757   C774    1.429   .     A
C757   I1035   2.164   1_545 S
C758   C773    1.432   .     A
C758   C718    1.409   1_655 S
C758   I920    2.163   .     S
C759   C992    1.364   1_545 S
C759   N1037   1.441   1_545 S
C760   C875    1.364   .     S
C760   N924    1.441   .     S
C761   C766    1.451   .     S
C761   O785    1.303   .     A
C761   O787    1.298   .     A
C762   O788    1.299   .     A
C762   C765    1.450   .     S
C762   O786    1.301   .     A
C763   C765    1.394   .     A
C763   N789    1.432   .     S
C763   C773    1.428   .     A
C764   N792    1.433   .     S
C764   C766    1.400   .     A
C764   C774    1.420   .     A
C765   C767    1.389   .     A
C766   C768    1.392   .     A
C767   C769    1.399   .     A
C767   N795    1.435   .     S
C768   C770    1.403   .     A
C768   N798    1.435   .     S
C769   C771    1.420   .     A
C769   C775    1.411   .     A
C770   C776    1.414   .     A
C770   C772    1.419   .     A
C771   C773    1.438   .     A
C771   C714    1.412   1_655 S
C772   C774    1.436   .     A
C775   I801    2.166   .     S
C775   C699    1.404   1_655 S
C776   I802    2.171   .     S
Cu777  Cu778   2.717   .     S
Cu777  O781    1.975   .     S
Cu777  O788    1.959   .     S
Cu777  O784    1.969   .     S
Cu777  N780    2.042   .     S
Cu777  O785    1.960   .     S
Cu778  O786    1.960   .     S
Cu778  O787    1.959   .     S
Cu778  N779    2.042   .     S
Cu778  O783    1.969   .     S
Cu778  O782    1.975   .     S
N780   N83     1.305   1_556 S
N780   I116    2.079   1_556 S
N789   H791    1.044   .     S
N789   H790    1.043   .     S
N792   H794    1.046   .     S
N792   H793    1.044   .     S
N795   H796    1.046   .     S
N795   H797    1.044   .     S
N798   H799    1.046   .     S
N798   H800    1.043   .     S
I803   C873    2.164   .     S
I804   C990    2.163   1_545 S
N805   H806    1.042   .     S
N805   H807    1.042   .     S
N805   C875    1.441   .     S
N808   H810    1.042   .     S
N808   H809    1.042   .     S
N808   C992    1.441   1_545 S
I811   N83     2.075   1_556 S
C813   C817    1.427   .     S
C813   O841    1.301   .     A
C813   O839    1.293   .     A
C814   O842    1.302   .     A
C814   C818    1.428   .     S
C814   O840    1.293   .     A
C815   C832    1.429   .     A
C815   C891    1.404   1_455 S
C816   C831    1.432   .     A
C816   C892    1.409   .     S
C816   I978    2.163   .     S
C818   C933    1.364   .     S
C818   N982    1.441   .     S
C819   C824    1.451   .     S
C819   O843    1.303   .     A
C819   O845    1.298   .     A
C820   O846    1.299   .     A
C820   C823    1.450   .     S
C820   O844    1.301   .     A
C821   C823    1.394   .     A
C821   N847    1.432   .     S
C821   C831    1.428   .     A
C822   N850    1.433   .     S
C822   C824    1.400   .     A
C822   C832    1.420   .     A
C823   C825    1.389   .     A
C824   C826    1.392   .     A
C825   C827    1.399   .     A
C825   N853    1.435   .     S
C826   C828    1.403   .     A
C826   N856    1.435   .     S
C827   C829    1.420   .     A
C827   C833    1.411   .     A
C828   C834    1.414   .     A
C828   C830    1.419   .     A
C829   C831    1.438   .     A
C829   C888    1.412   .     S
C830   C832    1.436   .     A
C830   C887    1.412   1_455 S
C833   I859    2.166   .     S
C833   C873    1.404   .     S
C834   I860    2.171   .     S
C834   C874    1.409   1_455 S
Cu835  Cu836   2.717   .     S
Cu835  O839    1.975   .     S
Cu835  O846    1.959   .     S
Cu835  O842    1.969   .     S
Cu835  N838    2.042   .     S
Cu835  O843    1.960   .     S
Cu836  O844    1.960   .     S
Cu836  O845    1.959   .     S
Cu836  N837    2.042   .     S
Cu836  O841    1.969   .     S
Cu836  O840    1.975   .     S
N838   N141    1.305   1_556 S
N838   I174    2.079   1_556 S
N847   H849    1.044   .     S
N847   H848    1.043   .     S
N850   H852    1.046   .     S
N850   H851    1.044   .     S
N853   H854    1.046   .     S
N853   H855    1.044   .     S
N856   H857    1.046   .     S
N856   H858    1.043   .     S
I861   C931    2.164   .     S
N863   H864    1.042   .     S
N863   H865    1.042   .     S
N863   C933    1.441   .     S
N866   H868    1.042   .     S
N866   H867    1.042   .     S
I869   N141    2.075   1_556 S
C871   C875    1.427   .     S
C871   O899    1.301   .     A
C871   O897    1.293   .     A
C872   O900    1.302   .     A
C872   C876    1.428   .     S
C872   O898    1.293   .     A
C873   C890    1.429   .     A
C874   C889    1.432   .     A
C874   C834    1.409   1_655 S
C874   I1036   2.163   .     S
C876   C991    1.364   .     S
C876   N1040   1.441   .     S
C877   C882    1.451   .     S
C877   O901    1.303   .     A
C877   O903    1.298   .     A
C878   O904    1.299   .     A
C878   C881    1.450   .     S
C878   O902    1.301   .     A
C879   C881    1.394   .     A
C879   N905    1.432   .     S
C879   C889    1.428   .     A
C880   N908    1.433   .     S
C880   C882    1.400   .     A
C880   C890    1.420   .     A
C881   C883    1.389   .     A
C882   C884    1.392   .     A
C883   C885    1.399   .     A
C883   N911    1.435   .     S
C884   C886    1.403   .     A
C884   N914    1.435   .     S
C885   C887    1.420   .     A
C885   C891    1.411   .     A
C886   C892    1.414   .     A
C886   C888    1.419   .     A
C887   C889    1.438   .     A
C887   C830    1.412   1_655 S
C888   C890    1.436   .     A
C891   I917    2.166   .     S
C891   C815    1.404   1_655 S
C892   I918    2.171   .     S
Cu893  Cu894   2.717   .     S
Cu893  O897    1.975   .     S
Cu893  O904    1.959   .     S
Cu893  O900    1.969   .     S
Cu893  N896    2.042   .     S
Cu893  O901    1.960   .     S
Cu894  O902    1.960   .     S
Cu894  O903    1.959   .     S
Cu894  N895    2.042   .     S
Cu894  O899    1.969   .     S
Cu894  O898    1.975   .     S
N896   N199    1.305   1_556 S
N896   I232    2.079   1_556 S
N905   H907    1.044   .     S
N905   H906    1.043   .     S
N908   H910    1.046   .     S
N908   H909    1.044   .     S
N911   H912    1.046   .     S
N911   H913    1.044   .     S
N914   H915    1.046   .     S
N914   H916    1.043   .     S
I919   C989    2.164   .     S
N921   H922    1.042   .     S
N921   H923    1.042   .     S
N921   C991    1.441   .     S
N924   H926    1.042   .     S
N924   H925    1.042   .     S
I927   N199    2.075   1_556 S
C929   C933    1.427   .     S
C929   O957    1.301   .     A
C929   O955    1.293   .     A
C930   O958    1.302   .     A
C930   C934    1.428   .     S
C930   O956    1.293   .     A
C931   C948    1.429   .     A
C931   C1007   1.404   1_455 S
C932   C947    1.432   .     A
C932   C1008   1.409   .     S
C932   I746    2.163   1_565 S
C934   C701    1.364   1_565 S
C934   N750    1.441   1_565 S
C935   C940    1.451   .     S
C935   O959    1.303   .     A
C935   O961    1.298   .     A
C936   O962    1.299   .     A
C936   C939    1.450   .     S
C936   O960    1.301   .     A
C937   C939    1.394   .     A
C937   N963    1.432   .     S
C937   C947    1.428   .     A
C938   N966    1.433   .     S
C938   C940    1.400   .     A
C938   C948    1.420   .     A
C939   C941    1.389   .     A
C940   C942    1.392   .     A
C941   C943    1.399   .     A
C941   N969    1.435   .     S
C942   C944    1.403   .     A
C942   N972    1.435   .     S
C943   C945    1.420   .     A
C943   C949    1.411   .     A
C944   C950    1.414   .     A
C944   C946    1.419   .     A
C945   C947    1.438   .     A
C945   C1004   1.412   .     S
C946   C948    1.436   .     A
C946   C1003   1.412   1_455 S
C949   I975    2.166   .     S
C949   C989    1.404   .     S
C950   I976    2.171   .     S
C950   C990    1.409   1_455 S
Cu951  Cu952   2.717   .     S
Cu951  O955    1.975   .     S
Cu951  O962    1.959   .     S
Cu951  O958    1.969   .     S
Cu951  N954    2.042   .     S
Cu951  O959    1.960   .     S
Cu952  O960    1.960   .     S
Cu952  O961    1.959   .     S
Cu952  N953    2.042   .     S
Cu952  O957    1.969   .     S
Cu952  O956    1.975   .     S
N954   N257    1.305   1_556 S
N954   I290    2.079   1_556 S
N963   H965    1.044   .     S
N963   H964    1.043   .     S
N966   H968    1.046   .     S
N966   H967    1.044   .     S
N969   H970    1.046   .     S
N969   H971    1.044   .     S
N972   H973    1.046   .     S
N972   H974    1.043   .     S
I977   C699    2.164   1_565 S
N979   H980    1.042   .     S
N979   H981    1.042   .     S
N979   C701    1.441   1_565 S
N982   H984    1.042   .     S
N982   H983    1.042   .     S
I985   N257    2.075   1_556 S
C987   C991    1.427   .     S
C987   O1015   1.301   .     A
C987   O1013   1.293   .     A
C988   O1016   1.302   .     A
C988   C992    1.428   .     S
C988   O1014   1.293   .     A
C989   C1006   1.429   .     A
C990   C1005   1.432   .     A
C990   C950    1.409   1_655 S
C990   I804    2.163   1_565 S
C992   C759    1.364   1_565 S
C992   N808    1.441   1_565 S
C993   C998    1.451   .     S
C993   O1017   1.303   .     A
C993   O1019   1.298   .     A
C994   O1020   1.299   .     A
C994   C997    1.450   .     S
C994   O1018   1.301   .     A
C995   C997    1.394   .     A
C995   N1021   1.432   .     S
C995   C1005   1.428   .     A
C996   N1024   1.433   .     S
C996   C998    1.400   .     A
C996   C1006   1.420   .     A
C997   C999    1.389   .     A
C998   C1000   1.392   .     A
C999   C1001   1.399   .     A
C999   N1027   1.435   .     S
C1000  C1002   1.403   .     A
C1000  N1030   1.435   .     S
C1001  C1003   1.420   .     A
C1001  C1007   1.411   .     A
C1002  C1008   1.414   .     A
C1002  C1004   1.419   .     A
C1003  C1005   1.438   .     A
C1003  C946    1.412   1_655 S
C1004  C1006   1.436   .     A
C1007  I1033   2.166   .     S
C1007  C931    1.404   1_655 S
C1008  I1034   2.171   .     S
Cu1009 Cu1010  2.717   .     S
Cu1009 O1013   1.975   .     S
Cu1009 O1020   1.959   .     S
Cu1009 O1016   1.969   .     S
Cu1009 N1012   2.042   .     S
Cu1009 O1017   1.960   .     S
Cu1010 O1018   1.960   .     S
Cu1010 O1019   1.959   .     S
Cu1010 N1011   2.042   .     S
Cu1010 O1015   1.969   .     S
Cu1010 O1014   1.975   .     S
N1012  N315    1.305   1_556 S
N1012  I348    2.079   1_556 S
N1021  H1023   1.044   .     S
N1021  H1022   1.043   .     S
N1024  H1026   1.046   .     S
N1024  H1025   1.044   .     S
N1027  H1028   1.046   .     S
N1027  H1029   1.044   .     S
N1030  H1031   1.046   .     S
N1030  H1032   1.043   .     S
I1035  C757    2.164   1_565 S
N1037  H1038   1.042   .     S
N1037  H1039   1.042   .     S
N1037  C759    1.441   1_565 S
N1040  H1042   1.042   .     S
N1040  H1041   1.042   .     S
I1043  N315    2.075   1_556 S
