data_str_m3_o1_o10_pcu_sym.66
_audit_creation_date              2020-01-03
_audit_creation_method            'Materials Studio'
_symmetry_space_group_name_H-M    'P1'
_symmetry_Int_Tables_number       1
_symmetry_cell_setting            triclinic
loop_
_symmetry_equiv_pos_as_xyz
  x,y,z
_cell_length_a                    25.7573
_cell_length_b                    32.1094
_cell_length_c                    29.6921
_cell_angle_alpha                 89.5207
_cell_angle_beta                  98.2506
_cell_angle_gamma                 90.9666
loop_
_atom_site_label
_atom_site_type_symbol
_atom_site_fract_x
_atom_site_fract_y
_atom_site_fract_z
_atom_site_U_iso_or_equiv
_atom_site_adp_type
_atom_site_occupancy
C1     C     0.16651   0.08669   0.16675   0.00000  Uiso   1.00
C2     C     0.17988   0.02119   0.20785   0.00000  Uiso   1.00
C3     C     0.16697   0.29082   0.16654   0.00000  Uiso   1.00
C4     C     0.16637   0.04251   0.16680   0.00000  Uiso   1.00
C5     C     0.19873   0.19349   0.02704   0.00000  Uiso   1.00
C6     C     0.13460   0.13985   0.30630   0.00000  Uiso   1.00
C7     C     0.19851   0.19330   0.31269   0.00000  Uiso   1.00
C8     C     0.13483   0.14003   0.02065   0.00000  Uiso   1.00
C9     C     0.16683   0.24665   0.16659   0.00000  Uiso   1.00
C10    C     0.06714   0.16652   0.15481   0.00000  Uiso   1.00
C11    C     0.26619   0.16681   0.17853   0.00000  Uiso   1.00
C12    C     0.01214   0.16587   0.14843   0.00000  Uiso   1.00
C13    C     0.32119   0.16747   0.18490   0.00000  Uiso   1.00
C14    C     0.15311   0.02147   0.12561   0.00000  Uiso   1.00
C15    C     0.18022   0.31186   0.20772   0.00000  Uiso   1.00
C16    C     0.15345   0.31214   0.12548   0.00000  Uiso   1.00
H17    H     0.32511   0.16383   0.11378   0.00000  Uiso   1.00
H18    H     0.00822   0.16950   0.21955   0.00000  Uiso   1.00
H19    H     0.14219   0.03786   0.09369   0.00000  Uiso   1.00
H20    H     0.19114   0.29547   0.23964   0.00000  Uiso   1.00
H21    H     0.14272   0.29597   0.09353   0.00000  Uiso   1.00
H22    H     0.19061   0.03736   0.23980   0.00000  Uiso   1.00
H23    H     0.22391   0.21456   0.29722   0.00000  Uiso   1.00
H24    H     0.10943   0.11877   0.03611   0.00000  Uiso   1.00
I25    I     0.25083   0.23707   0.06348   0.00000  Uiso   1.00
I26    I     0.08250   0.09626   0.26985   0.00000  Uiso   1.00
N27    N     0.16665   0.16666   0.28573   0.00000  Uiso   1.00
N28    N     0.16668   0.16668   0.04760   0.00000  Uiso   1.00
O29    O     0.16666   0.10558   0.20487   0.00000  Uiso   1.00
O30    O     0.16667   0.22775   0.12846   0.00000  Uiso   1.00
O31    O     0.16666   0.10559   0.12843   0.00000  Uiso   1.00
O32    O     0.16667   0.22774   0.20490   0.00000  Uiso   1.00
O33    O     0.09058   0.16666   0.19595   0.00000  Uiso   1.00
O34    O     0.24275   0.16667   0.13739   0.00000  Uiso   1.00
O35    O     0.09058   0.16667   0.11950   0.00000  Uiso   1.00
O36    O     0.24275   0.16666   0.21383   0.00000  Uiso   1.00
Zn37   Zn    0.16667   0.16666   0.21771   0.00000  Uiso   1.00
Zn38   Zn    0.16667   0.16667   0.11563   0.00000  Uiso   1.00
C39    C     0.49984   0.08669   0.16675   0.00000  Uiso   1.00
C40    C     0.51321   0.02119   0.20785   0.00000  Uiso   1.00
C41    C     0.50030   0.29082   0.16654   0.00000  Uiso   1.00
C42    C     0.49970   0.04251   0.16680   0.00000  Uiso   1.00
C43    C     0.53207   0.19349   0.02704   0.00000  Uiso   1.00
C44    C     0.46793   0.13985   0.30630   0.00000  Uiso   1.00
C45    C     0.53184   0.19330   0.31269   0.00000  Uiso   1.00
C46    C     0.46816   0.14003   0.02065   0.00000  Uiso   1.00
C47    C     0.50016   0.24665   0.16659   0.00000  Uiso   1.00
C48    C     0.40047   0.16652   0.15481   0.00000  Uiso   1.00
C49    C     0.59953   0.16681   0.17853   0.00000  Uiso   1.00
C50    C     0.34547   0.16587   0.14843   0.00000  Uiso   1.00
C51    C     0.65452   0.16747   0.18490   0.00000  Uiso   1.00
C52    C     0.48645   0.02147   0.12561   0.00000  Uiso   1.00
C53    C     0.51355   0.31186   0.20772   0.00000  Uiso   1.00
C54    C     0.48679   0.31214   0.12548   0.00000  Uiso   1.00
H55    H     0.65844   0.16383   0.11378   0.00000  Uiso   1.00
H56    H     0.34156   0.16950   0.21955   0.00000  Uiso   1.00
H57    H     0.47552   0.03786   0.09369   0.00000  Uiso   1.00
H58    H     0.52448   0.29547   0.23964   0.00000  Uiso   1.00
H59    H     0.47606   0.29597   0.09353   0.00000  Uiso   1.00
H60    H     0.52394   0.03736   0.23980   0.00000  Uiso   1.00
H61    H     0.55724   0.21456   0.29722   0.00000  Uiso   1.00
H62    H     0.44276   0.11877   0.03611   0.00000  Uiso   1.00
I63    I     0.58417   0.23707   0.06348   0.00000  Uiso   1.00
I64    I     0.41583   0.09626   0.26985   0.00000  Uiso   1.00
N65    N     0.49999   0.16666   0.28573   0.00000  Uiso   1.00
N66    N     0.50001   0.16668   0.04760   0.00000  Uiso   1.00
O67    O     0.50000   0.10558   0.20487   0.00000  Uiso   1.00
O68    O     0.50000   0.22775   0.12846   0.00000  Uiso   1.00
O69    O     0.50000   0.10559   0.12843   0.00000  Uiso   1.00
O70    O     0.50000   0.22774   0.20490   0.00000  Uiso   1.00
O71    O     0.42392   0.16666   0.19595   0.00000  Uiso   1.00
O72    O     0.57608   0.16667   0.13739   0.00000  Uiso   1.00
O73    O     0.42392   0.16667   0.11950   0.00000  Uiso   1.00
O74    O     0.57608   0.16666   0.21383   0.00000  Uiso   1.00
Zn75   Zn    0.50000   0.16666   0.21771   0.00000  Uiso   1.00
Zn76   Zn    0.50000   0.16667   0.11563   0.00000  Uiso   1.00
C77    C     0.83317   0.08669   0.16675   0.00000  Uiso   1.00
C78    C     0.84655   0.02119   0.20785   0.00000  Uiso   1.00
C79    C     0.83363   0.29082   0.16654   0.00000  Uiso   1.00
C80    C     0.83303   0.04251   0.16680   0.00000  Uiso   1.00
C81    C     0.86540   0.19349   0.02704   0.00000  Uiso   1.00
C82    C     0.80127   0.13985   0.30630   0.00000  Uiso   1.00
C83    C     0.86517   0.19330   0.31269   0.00000  Uiso   1.00
C84    C     0.80149   0.14003   0.02065   0.00000  Uiso   1.00
C85    C     0.83349   0.24665   0.16659   0.00000  Uiso   1.00
C86    C     0.73381   0.16652   0.15481   0.00000  Uiso   1.00
C87    C     0.93286   0.16681   0.17853   0.00000  Uiso   1.00
C88    C     0.67881   0.16587   0.14843   0.00000  Uiso   1.00
C89    C     0.98786   0.16747   0.18490   0.00000  Uiso   1.00
C90    C     0.81978   0.02147   0.12561   0.00000  Uiso   1.00
C91    C     0.84689   0.31186   0.20772   0.00000  Uiso   1.00
C92    C     0.82012   0.31214   0.12548   0.00000  Uiso   1.00
H93    H     0.99178   0.16383   0.11378   0.00000  Uiso   1.00
H94    H     0.67489   0.16950   0.21955   0.00000  Uiso   1.00
H95    H     0.80886   0.03786   0.09369   0.00000  Uiso   1.00
H96    H     0.85781   0.29547   0.23964   0.00000  Uiso   1.00
H97    H     0.80939   0.29597   0.09353   0.00000  Uiso   1.00
H98    H     0.85728   0.03736   0.23980   0.00000  Uiso   1.00
H99    H     0.89057   0.21456   0.29722   0.00000  Uiso   1.00
H100   H     0.77609   0.11877   0.03611   0.00000  Uiso   1.00
I101   I     0.91750   0.23707   0.06348   0.00000  Uiso   1.00
I102   I     0.74917   0.09626   0.26985   0.00000  Uiso   1.00
N103   N     0.83332   0.16666   0.28573   0.00000  Uiso   1.00
N104   N     0.83335   0.16668   0.04760   0.00000  Uiso   1.00
O105   O     0.83333   0.10558   0.20487   0.00000  Uiso   1.00
O106   O     0.83334   0.22775   0.12846   0.00000  Uiso   1.00
O107   O     0.83333   0.10559   0.12843   0.00000  Uiso   1.00
O108   O     0.83334   0.22774   0.20490   0.00000  Uiso   1.00
O109   O     0.75725   0.16666   0.19595   0.00000  Uiso   1.00
O110   O     0.90942   0.16667   0.13739   0.00000  Uiso   1.00
O111   O     0.75725   0.16667   0.11950   0.00000  Uiso   1.00
O112   O     0.90942   0.16666   0.21383   0.00000  Uiso   1.00
Zn113  Zn    0.83333   0.16666   0.21771   0.00000  Uiso   1.00
Zn114  Zn    0.83333   0.16667   0.11563   0.00000  Uiso   1.00
C115   C     0.16651   0.42002   0.16675   0.00000  Uiso   1.00
C116   C     0.17988   0.35452   0.20785   0.00000  Uiso   1.00
C117   C     0.16697   0.62416   0.16654   0.00000  Uiso   1.00
C118   C     0.16637   0.37584   0.16680   0.00000  Uiso   1.00
C119   C     0.19873   0.52682   0.02704   0.00000  Uiso   1.00
C120   C     0.13460   0.47318   0.30630   0.00000  Uiso   1.00
C121   C     0.19851   0.52664   0.31269   0.00000  Uiso   1.00
C122   C     0.13483   0.47336   0.02065   0.00000  Uiso   1.00
C123   C     0.16683   0.57998   0.16659   0.00000  Uiso   1.00
C124   C     0.06714   0.49985   0.15481   0.00000  Uiso   1.00
C125   C     0.26619   0.50015   0.17853   0.00000  Uiso   1.00
C126   C     0.01214   0.49920   0.14843   0.00000  Uiso   1.00
C127   C     0.32119   0.50080   0.18490   0.00000  Uiso   1.00
C128   C     0.15311   0.35480   0.12561   0.00000  Uiso   1.00
C129   C     0.18022   0.64520   0.20772   0.00000  Uiso   1.00
C130   C     0.15345   0.64548   0.12548   0.00000  Uiso   1.00
H131   H     0.32511   0.49716   0.11378   0.00000  Uiso   1.00
H132   H     0.00822   0.50284   0.21955   0.00000  Uiso   1.00
H133   H     0.14219   0.37119   0.09369   0.00000  Uiso   1.00
H134   H     0.19114   0.62881   0.23964   0.00000  Uiso   1.00
H135   H     0.14272   0.62930   0.09353   0.00000  Uiso   1.00
H136   H     0.19061   0.37070   0.23980   0.00000  Uiso   1.00
H137   H     0.22391   0.54789   0.29722   0.00000  Uiso   1.00
H138   H     0.10943   0.45211   0.03611   0.00000  Uiso   1.00
I139   I     0.25083   0.57040   0.06348   0.00000  Uiso   1.00
I140   I     0.08250   0.42960   0.26985   0.00000  Uiso   1.00
N141   N     0.16665   0.49999   0.28573   0.00000  Uiso   1.00
N142   N     0.16668   0.50001   0.04760   0.00000  Uiso   1.00
O143   O     0.16666   0.43892   0.20487   0.00000  Uiso   1.00
O144   O     0.16667   0.56108   0.12846   0.00000  Uiso   1.00
O145   O     0.16666   0.43893   0.12843   0.00000  Uiso   1.00
O146   O     0.16667   0.56107   0.20490   0.00000  Uiso   1.00
O147   O     0.09058   0.50000   0.19595   0.00000  Uiso   1.00
O148   O     0.24275   0.50000   0.13739   0.00000  Uiso   1.00
O149   O     0.09058   0.50000   0.11950   0.00000  Uiso   1.00
O150   O     0.24275   0.50000   0.21383   0.00000  Uiso   1.00
Zn151  Zn    0.16667   0.49999   0.21771   0.00000  Uiso   1.00
Zn152  Zn    0.16667   0.50001   0.11563   0.00000  Uiso   1.00
C153   C     0.49984   0.42002   0.16675   0.00000  Uiso   1.00
C154   C     0.51321   0.35452   0.20785   0.00000  Uiso   1.00
C155   C     0.50030   0.62416   0.16654   0.00000  Uiso   1.00
C156   C     0.49970   0.37584   0.16680   0.00000  Uiso   1.00
C157   C     0.53207   0.52682   0.02704   0.00000  Uiso   1.00
C158   C     0.46793   0.47318   0.30630   0.00000  Uiso   1.00
C159   C     0.53184   0.52664   0.31269   0.00000  Uiso   1.00
C160   C     0.46816   0.47336   0.02065   0.00000  Uiso   1.00
C161   C     0.50016   0.57998   0.16659   0.00000  Uiso   1.00
C162   C     0.40047   0.49985   0.15481   0.00000  Uiso   1.00
C163   C     0.59953   0.50015   0.17853   0.00000  Uiso   1.00
C164   C     0.34547   0.49920   0.14843   0.00000  Uiso   1.00
C165   C     0.65452   0.50080   0.18490   0.00000  Uiso   1.00
C166   C     0.48645   0.35480   0.12561   0.00000  Uiso   1.00
C167   C     0.51355   0.64520   0.20772   0.00000  Uiso   1.00
C168   C     0.48679   0.64548   0.12548   0.00000  Uiso   1.00
H169   H     0.65844   0.49716   0.11378   0.00000  Uiso   1.00
H170   H     0.34156   0.50284   0.21955   0.00000  Uiso   1.00
H171   H     0.47552   0.37119   0.09369   0.00000  Uiso   1.00
H172   H     0.52448   0.62881   0.23964   0.00000  Uiso   1.00
H173   H     0.47606   0.62930   0.09353   0.00000  Uiso   1.00
H174   H     0.52394   0.37070   0.23980   0.00000  Uiso   1.00
H175   H     0.55724   0.54789   0.29722   0.00000  Uiso   1.00
H176   H     0.44276   0.45211   0.03611   0.00000  Uiso   1.00
I177   I     0.58417   0.57040   0.06348   0.00000  Uiso   1.00
I178   I     0.41583   0.42960   0.26985   0.00000  Uiso   1.00
N179   N     0.49999   0.49999   0.28573   0.00000  Uiso   1.00
N180   N     0.50001   0.50001   0.04760   0.00000  Uiso   1.00
O181   O     0.50000   0.43892   0.20487   0.00000  Uiso   1.00
O182   O     0.50000   0.56108   0.12846   0.00000  Uiso   1.00
O183   O     0.50000   0.43893   0.12843   0.00000  Uiso   1.00
O184   O     0.50000   0.56107   0.20490   0.00000  Uiso   1.00
O185   O     0.42392   0.50000   0.19595   0.00000  Uiso   1.00
O186   O     0.57608   0.50000   0.13739   0.00000  Uiso   1.00
O187   O     0.42392   0.50000   0.11950   0.00000  Uiso   1.00
O188   O     0.57608   0.50000   0.21383   0.00000  Uiso   1.00
Zn189  Zn    0.50000   0.49999   0.21771   0.00000  Uiso   1.00
Zn190  Zn    0.50000   0.50001   0.11563   0.00000  Uiso   1.00
C191   C     0.83317   0.42002   0.16675   0.00000  Uiso   1.00
C192   C     0.84655   0.35452   0.20785   0.00000  Uiso   1.00
C193   C     0.83363   0.62416   0.16654   0.00000  Uiso   1.00
C194   C     0.83303   0.37584   0.16680   0.00000  Uiso   1.00
C195   C     0.86540   0.52682   0.02704   0.00000  Uiso   1.00
C196   C     0.80127   0.47318   0.30630   0.00000  Uiso   1.00
C197   C     0.86517   0.52664   0.31269   0.00000  Uiso   1.00
C198   C     0.80149   0.47336   0.02065   0.00000  Uiso   1.00
C199   C     0.83349   0.57998   0.16659   0.00000  Uiso   1.00
C200   C     0.73381   0.49985   0.15481   0.00000  Uiso   1.00
C201   C     0.93286   0.50015   0.17853   0.00000  Uiso   1.00
C202   C     0.67881   0.49920   0.14843   0.00000  Uiso   1.00
C203   C     0.98786   0.50080   0.18490   0.00000  Uiso   1.00
C204   C     0.81978   0.35480   0.12561   0.00000  Uiso   1.00
C205   C     0.84689   0.64520   0.20772   0.00000  Uiso   1.00
C206   C     0.82012   0.64548   0.12548   0.00000  Uiso   1.00
H207   H     0.99178   0.49716   0.11378   0.00000  Uiso   1.00
H208   H     0.67489   0.50284   0.21955   0.00000  Uiso   1.00
H209   H     0.80886   0.37119   0.09369   0.00000  Uiso   1.00
H210   H     0.85781   0.62881   0.23964   0.00000  Uiso   1.00
H211   H     0.80939   0.62930   0.09353   0.00000  Uiso   1.00
H212   H     0.85728   0.37070   0.23980   0.00000  Uiso   1.00
H213   H     0.89057   0.54789   0.29722   0.00000  Uiso   1.00
H214   H     0.77609   0.45211   0.03611   0.00000  Uiso   1.00
I215   I     0.91750   0.57040   0.06348   0.00000  Uiso   1.00
I216   I     0.74917   0.42960   0.26985   0.00000  Uiso   1.00
N217   N     0.83332   0.49999   0.28573   0.00000  Uiso   1.00
N218   N     0.83335   0.50001   0.04760   0.00000  Uiso   1.00
O219   O     0.83333   0.43892   0.20487   0.00000  Uiso   1.00
O220   O     0.83334   0.56108   0.12846   0.00000  Uiso   1.00
O221   O     0.83333   0.43893   0.12843   0.00000  Uiso   1.00
O222   O     0.83334   0.56107   0.20490   0.00000  Uiso   1.00
O223   O     0.75725   0.50000   0.19595   0.00000  Uiso   1.00
O224   O     0.90942   0.50000   0.13739   0.00000  Uiso   1.00
O225   O     0.75725   0.50000   0.11950   0.00000  Uiso   1.00
O226   O     0.90942   0.50000   0.21383   0.00000  Uiso   1.00
Zn227  Zn    0.83333   0.49999   0.21771   0.00000  Uiso   1.00
Zn228  Zn    0.83333   0.50001   0.11563   0.00000  Uiso   1.00
C229   C     0.16651   0.75335   0.16675   0.00000  Uiso   1.00
C230   C     0.17988   0.68786   0.20785   0.00000  Uiso   1.00
C231   C     0.16697   0.95749   0.16654   0.00000  Uiso   1.00
C232   C     0.16637   0.70918   0.16680   0.00000  Uiso   1.00
C233   C     0.19873   0.86015   0.02704   0.00000  Uiso   1.00
C234   C     0.13460   0.80651   0.30630   0.00000  Uiso   1.00
C235   C     0.19851   0.85997   0.31269   0.00000  Uiso   1.00
C236   C     0.13483   0.80670   0.02065   0.00000  Uiso   1.00
C237   C     0.16683   0.91331   0.16659   0.00000  Uiso   1.00
C238   C     0.06714   0.83319   0.15481   0.00000  Uiso   1.00
C239   C     0.26619   0.83348   0.17853   0.00000  Uiso   1.00
C240   C     0.01214   0.83253   0.14843   0.00000  Uiso   1.00
C241   C     0.32119   0.83413   0.18490   0.00000  Uiso   1.00
C242   C     0.15311   0.68814   0.12561   0.00000  Uiso   1.00
C243   C     0.18022   0.97853   0.20772   0.00000  Uiso   1.00
C244   C     0.15345   0.97881   0.12548   0.00000  Uiso   1.00
H245   H     0.32511   0.83050   0.11378   0.00000  Uiso   1.00
H246   H     0.00822   0.83617   0.21955   0.00000  Uiso   1.00
H247   H     0.14219   0.70453   0.09369   0.00000  Uiso   1.00
H248   H     0.19114   0.96214   0.23964   0.00000  Uiso   1.00
H249   H     0.14272   0.96264   0.09353   0.00000  Uiso   1.00
H250   H     0.19061   0.70403   0.23980   0.00000  Uiso   1.00
H251   H     0.22391   0.88123   0.29722   0.00000  Uiso   1.00
H252   H     0.10943   0.78544   0.03611   0.00000  Uiso   1.00
I253   I     0.25083   0.90374   0.06348   0.00000  Uiso   1.00
I254   I     0.08250   0.76293   0.26985   0.00000  Uiso   1.00
N255   N     0.16665   0.83332   0.28573   0.00000  Uiso   1.00
N256   N     0.16668   0.83334   0.04760   0.00000  Uiso   1.00
O257   O     0.16666   0.77225   0.20487   0.00000  Uiso   1.00
O258   O     0.16667   0.89442   0.12846   0.00000  Uiso   1.00
O259   O     0.16666   0.77226   0.12843   0.00000  Uiso   1.00
O260   O     0.16667   0.89441   0.20490   0.00000  Uiso   1.00
O261   O     0.09058   0.83333   0.19595   0.00000  Uiso   1.00
O262   O     0.24275   0.83334   0.13739   0.00000  Uiso   1.00
O263   O     0.09058   0.83334   0.11950   0.00000  Uiso   1.00
O264   O     0.24275   0.83333   0.21383   0.00000  Uiso   1.00
Zn265  Zn    0.16667   0.83333   0.21771   0.00000  Uiso   1.00
Zn266  Zn    0.16667   0.83334   0.11563   0.00000  Uiso   1.00
C267   C     0.49984   0.75335   0.16675   0.00000  Uiso   1.00
C268   C     0.51321   0.68786   0.20785   0.00000  Uiso   1.00
C269   C     0.50030   0.95749   0.16654   0.00000  Uiso   1.00
C270   C     0.49970   0.70918   0.16680   0.00000  Uiso   1.00
C271   C     0.53207   0.86015   0.02704   0.00000  Uiso   1.00
C272   C     0.46793   0.80651   0.30630   0.00000  Uiso   1.00
C273   C     0.53184   0.85997   0.31269   0.00000  Uiso   1.00
C274   C     0.46816   0.80670   0.02065   0.00000  Uiso   1.00
C275   C     0.50016   0.91331   0.16659   0.00000  Uiso   1.00
C276   C     0.40047   0.83319   0.15481   0.00000  Uiso   1.00
C277   C     0.59953   0.83348   0.17853   0.00000  Uiso   1.00
C278   C     0.34547   0.83253   0.14843   0.00000  Uiso   1.00
C279   C     0.65452   0.83413   0.18490   0.00000  Uiso   1.00
C280   C     0.48645   0.68814   0.12561   0.00000  Uiso   1.00
C281   C     0.51355   0.97853   0.20772   0.00000  Uiso   1.00
C282   C     0.48679   0.97881   0.12548   0.00000  Uiso   1.00
H283   H     0.65844   0.83050   0.11378   0.00000  Uiso   1.00
H284   H     0.34156   0.83617   0.21955   0.00000  Uiso   1.00
H285   H     0.47552   0.70453   0.09369   0.00000  Uiso   1.00
H286   H     0.52448   0.96214   0.23964   0.00000  Uiso   1.00
H287   H     0.47606   0.96264   0.09353   0.00000  Uiso   1.00
H288   H     0.52394   0.70403   0.23980   0.00000  Uiso   1.00
H289   H     0.55724   0.88123   0.29722   0.00000  Uiso   1.00
H290   H     0.44276   0.78544   0.03611   0.00000  Uiso   1.00
I291   I     0.58417   0.90374   0.06348   0.00000  Uiso   1.00
I292   I     0.41583   0.76293   0.26985   0.00000  Uiso   1.00
N293   N     0.49999   0.83332   0.28573   0.00000  Uiso   1.00
N294   N     0.50001   0.83334   0.04760   0.00000  Uiso   1.00
O295   O     0.50000   0.77225   0.20487   0.00000  Uiso   1.00
O296   O     0.50000   0.89442   0.12846   0.00000  Uiso   1.00
O297   O     0.50000   0.77226   0.12843   0.00000  Uiso   1.00
O298   O     0.50000   0.89441   0.20490   0.00000  Uiso   1.00
O299   O     0.42392   0.83333   0.19595   0.00000  Uiso   1.00
O300   O     0.57608   0.83334   0.13739   0.00000  Uiso   1.00
O301   O     0.42392   0.83334   0.11950   0.00000  Uiso   1.00
O302   O     0.57608   0.83333   0.21383   0.00000  Uiso   1.00
Zn303  Zn    0.50000   0.83333   0.21771   0.00000  Uiso   1.00
Zn304  Zn    0.50000   0.83334   0.11563   0.00000  Uiso   1.00
C305   C     0.83317   0.75335   0.16675   0.00000  Uiso   1.00
C306   C     0.84655   0.68786   0.20785   0.00000  Uiso   1.00
C307   C     0.83363   0.95749   0.16654   0.00000  Uiso   1.00
C308   C     0.83303   0.70918   0.16680   0.00000  Uiso   1.00
C309   C     0.86540   0.86015   0.02704   0.00000  Uiso   1.00
C310   C     0.80127   0.80651   0.30630   0.00000  Uiso   1.00
C311   C     0.86517   0.85997   0.31269   0.00000  Uiso   1.00
C312   C     0.80149   0.80670   0.02065   0.00000  Uiso   1.00
C313   C     0.83349   0.91331   0.16659   0.00000  Uiso   1.00
C314   C     0.73381   0.83319   0.15481   0.00000  Uiso   1.00
C315   C     0.93286   0.83348   0.17853   0.00000  Uiso   1.00
C316   C     0.67881   0.83253   0.14843   0.00000  Uiso   1.00
C317   C     0.98786   0.83413   0.18490   0.00000  Uiso   1.00
C318   C     0.81978   0.68814   0.12561   0.00000  Uiso   1.00
C319   C     0.84689   0.97853   0.20772   0.00000  Uiso   1.00
C320   C     0.82012   0.97881   0.12548   0.00000  Uiso   1.00
H321   H     0.99178   0.83050   0.11378   0.00000  Uiso   1.00
H322   H     0.67489   0.83617   0.21955   0.00000  Uiso   1.00
H323   H     0.80886   0.70453   0.09369   0.00000  Uiso   1.00
H324   H     0.85781   0.96214   0.23964   0.00000  Uiso   1.00
H325   H     0.80939   0.96264   0.09353   0.00000  Uiso   1.00
H326   H     0.85728   0.70403   0.23980   0.00000  Uiso   1.00
H327   H     0.89057   0.88123   0.29722   0.00000  Uiso   1.00
H328   H     0.77609   0.78544   0.03611   0.00000  Uiso   1.00
I329   I     0.91750   0.90374   0.06348   0.00000  Uiso   1.00
I330   I     0.74917   0.76293   0.26985   0.00000  Uiso   1.00
N331   N     0.83332   0.83332   0.28573   0.00000  Uiso   1.00
N332   N     0.83335   0.83334   0.04760   0.00000  Uiso   1.00
O333   O     0.83333   0.77225   0.20487   0.00000  Uiso   1.00
O334   O     0.83334   0.89442   0.12846   0.00000  Uiso   1.00
O335   O     0.83333   0.77226   0.12843   0.00000  Uiso   1.00
O336   O     0.83334   0.89441   0.20490   0.00000  Uiso   1.00
O337   O     0.75725   0.83333   0.19595   0.00000  Uiso   1.00
O338   O     0.90942   0.83334   0.13739   0.00000  Uiso   1.00
O339   O     0.75725   0.83334   0.11950   0.00000  Uiso   1.00
O340   O     0.90942   0.83333   0.21383   0.00000  Uiso   1.00
Zn341  Zn    0.83333   0.83333   0.21771   0.00000  Uiso   1.00
Zn342  Zn    0.83333   0.83334   0.11563   0.00000  Uiso   1.00
C343   C     0.16651   0.08669   0.50008   0.00000  Uiso   1.00
C344   C     0.17988   0.02119   0.54118   0.00000  Uiso   1.00
C345   C     0.16697   0.29082   0.49987   0.00000  Uiso   1.00
C346   C     0.16637   0.04251   0.50013   0.00000  Uiso   1.00
C347   C     0.19873   0.19349   0.36037   0.00000  Uiso   1.00
C348   C     0.13460   0.13985   0.63963   0.00000  Uiso   1.00
C349   C     0.19851   0.19330   0.64602   0.00000  Uiso   1.00
C350   C     0.13483   0.14003   0.35398   0.00000  Uiso   1.00
C351   C     0.16683   0.24665   0.49992   0.00000  Uiso   1.00
C352   C     0.06714   0.16652   0.48814   0.00000  Uiso   1.00
C353   C     0.26619   0.16681   0.51186   0.00000  Uiso   1.00
C354   C     0.01214   0.16587   0.48177   0.00000  Uiso   1.00
C355   C     0.32119   0.16747   0.51823   0.00000  Uiso   1.00
C356   C     0.15311   0.02147   0.45895   0.00000  Uiso   1.00
C357   C     0.18022   0.31186   0.54105   0.00000  Uiso   1.00
C358   C     0.15345   0.31214   0.45881   0.00000  Uiso   1.00
H359   H     0.32511   0.16383   0.44712   0.00000  Uiso   1.00
H360   H     0.00822   0.16950   0.55288   0.00000  Uiso   1.00
H361   H     0.14219   0.03786   0.42702   0.00000  Uiso   1.00
H362   H     0.19114   0.29547   0.57298   0.00000  Uiso   1.00
H363   H     0.14272   0.29597   0.42686   0.00000  Uiso   1.00
H364   H     0.19061   0.03736   0.57314   0.00000  Uiso   1.00
H365   H     0.22391   0.21456   0.63056   0.00000  Uiso   1.00
H366   H     0.10943   0.11877   0.36944   0.00000  Uiso   1.00
I367   I     0.25083   0.23707   0.39681   0.00000  Uiso   1.00
I368   I     0.08250   0.09626   0.60319   0.00000  Uiso   1.00
N369   N     0.16665   0.16666   0.61907   0.00000  Uiso   1.00
N370   N     0.16668   0.16668   0.38093   0.00000  Uiso   1.00
O371   O     0.16666   0.10558   0.53821   0.00000  Uiso   1.00
O372   O     0.16667   0.22775   0.46179   0.00000  Uiso   1.00
O373   O     0.16666   0.10559   0.46176   0.00000  Uiso   1.00
O374   O     0.16667   0.22774   0.53824   0.00000  Uiso   1.00
O375   O     0.09058   0.16666   0.52928   0.00000  Uiso   1.00
O376   O     0.24275   0.16667   0.47072   0.00000  Uiso   1.00
O377   O     0.09058   0.16667   0.45284   0.00000  Uiso   1.00
O378   O     0.24275   0.16666   0.54716   0.00000  Uiso   1.00
Zn379  Zn    0.16667   0.16666   0.55104   0.00000  Uiso   1.00
Zn380  Zn    0.16667   0.16667   0.44896   0.00000  Uiso   1.00
C381   C     0.49984   0.08669   0.50008   0.00000  Uiso   1.00
C382   C     0.51321   0.02119   0.54118   0.00000  Uiso   1.00
C383   C     0.50030   0.29082   0.49987   0.00000  Uiso   1.00
C384   C     0.49970   0.04251   0.50013   0.00000  Uiso   1.00
C385   C     0.53207   0.19349   0.36037   0.00000  Uiso   1.00
C386   C     0.46793   0.13985   0.63963   0.00000  Uiso   1.00
C387   C     0.53184   0.19330   0.64602   0.00000  Uiso   1.00
C388   C     0.46816   0.14003   0.35398   0.00000  Uiso   1.00
C389   C     0.50016   0.24665   0.49992   0.00000  Uiso   1.00
C390   C     0.40047   0.16652   0.48814   0.00000  Uiso   1.00
C391   C     0.59953   0.16681   0.51186   0.00000  Uiso   1.00
C392   C     0.34547   0.16587   0.48177   0.00000  Uiso   1.00
C393   C     0.65452   0.16747   0.51823   0.00000  Uiso   1.00
C394   C     0.48645   0.02147   0.45895   0.00000  Uiso   1.00
C395   C     0.51355   0.31186   0.54105   0.00000  Uiso   1.00
C396   C     0.48679   0.31214   0.45881   0.00000  Uiso   1.00
H397   H     0.65844   0.16383   0.44712   0.00000  Uiso   1.00
H398   H     0.34156   0.16950   0.55288   0.00000  Uiso   1.00
H399   H     0.47552   0.03786   0.42702   0.00000  Uiso   1.00
H400   H     0.52448   0.29547   0.57298   0.00000  Uiso   1.00
H401   H     0.47606   0.29597   0.42686   0.00000  Uiso   1.00
H402   H     0.52394   0.03736   0.57314   0.00000  Uiso   1.00
H403   H     0.55724   0.21456   0.63056   0.00000  Uiso   1.00
H404   H     0.44276   0.11877   0.36944   0.00000  Uiso   1.00
I405   I     0.58417   0.23707   0.39681   0.00000  Uiso   1.00
I406   I     0.41583   0.09626   0.60319   0.00000  Uiso   1.00
N407   N     0.49999   0.16666   0.61907   0.00000  Uiso   1.00
N408   N     0.50001   0.16668   0.38093   0.00000  Uiso   1.00
O409   O     0.50000   0.10558   0.53821   0.00000  Uiso   1.00
O410   O     0.50000   0.22775   0.46179   0.00000  Uiso   1.00
O411   O     0.50000   0.10559   0.46176   0.00000  Uiso   1.00
O412   O     0.50000   0.22774   0.53824   0.00000  Uiso   1.00
O413   O     0.42392   0.16666   0.52928   0.00000  Uiso   1.00
O414   O     0.57608   0.16667   0.47072   0.00000  Uiso   1.00
O415   O     0.42392   0.16667   0.45284   0.00000  Uiso   1.00
O416   O     0.57608   0.16666   0.54716   0.00000  Uiso   1.00
Zn417  Zn    0.50000   0.16666   0.55104   0.00000  Uiso   1.00
Zn418  Zn    0.50000   0.16667   0.44896   0.00000  Uiso   1.00
C419   C     0.83317   0.08669   0.50008   0.00000  Uiso   1.00
C420   C     0.84655   0.02119   0.54118   0.00000  Uiso   1.00
C421   C     0.83363   0.29082   0.49987   0.00000  Uiso   1.00
C422   C     0.83303   0.04251   0.50013   0.00000  Uiso   1.00
C423   C     0.86540   0.19349   0.36037   0.00000  Uiso   1.00
C424   C     0.80127   0.13985   0.63963   0.00000  Uiso   1.00
C425   C     0.86517   0.19330   0.64602   0.00000  Uiso   1.00
C426   C     0.80149   0.14003   0.35398   0.00000  Uiso   1.00
C427   C     0.83349   0.24665   0.49992   0.00000  Uiso   1.00
C428   C     0.73381   0.16652   0.48814   0.00000  Uiso   1.00
C429   C     0.93286   0.16681   0.51186   0.00000  Uiso   1.00
C430   C     0.67881   0.16587   0.48177   0.00000  Uiso   1.00
C431   C     0.98786   0.16747   0.51823   0.00000  Uiso   1.00
C432   C     0.81978   0.02147   0.45895   0.00000  Uiso   1.00
C433   C     0.84689   0.31186   0.54105   0.00000  Uiso   1.00
C434   C     0.82012   0.31214   0.45881   0.00000  Uiso   1.00
H435   H     0.99178   0.16383   0.44712   0.00000  Uiso   1.00
H436   H     0.67489   0.16950   0.55288   0.00000  Uiso   1.00
H437   H     0.80886   0.03786   0.42702   0.00000  Uiso   1.00
H438   H     0.85781   0.29547   0.57298   0.00000  Uiso   1.00
H439   H     0.80939   0.29597   0.42686   0.00000  Uiso   1.00
H440   H     0.85728   0.03736   0.57314   0.00000  Uiso   1.00
H441   H     0.89057   0.21456   0.63056   0.00000  Uiso   1.00
H442   H     0.77609   0.11877   0.36944   0.00000  Uiso   1.00
I443   I     0.91750   0.23707   0.39681   0.00000  Uiso   1.00
I444   I     0.74917   0.09626   0.60319   0.00000  Uiso   1.00
N445   N     0.83332   0.16666   0.61907   0.00000  Uiso   1.00
N446   N     0.83335   0.16668   0.38093   0.00000  Uiso   1.00
O447   O     0.83333   0.10558   0.53821   0.00000  Uiso   1.00
O448   O     0.83334   0.22775   0.46179   0.00000  Uiso   1.00
O449   O     0.83333   0.10559   0.46176   0.00000  Uiso   1.00
O450   O     0.83334   0.22774   0.53824   0.00000  Uiso   1.00
O451   O     0.75725   0.16666   0.52928   0.00000  Uiso   1.00
O452   O     0.90942   0.16667   0.47072   0.00000  Uiso   1.00
O453   O     0.75725   0.16667   0.45284   0.00000  Uiso   1.00
O454   O     0.90942   0.16666   0.54716   0.00000  Uiso   1.00
Zn455  Zn    0.83333   0.16666   0.55104   0.00000  Uiso   1.00
Zn456  Zn    0.83333   0.16667   0.44896   0.00000  Uiso   1.00
C457   C     0.16651   0.42002   0.50008   0.00000  Uiso   1.00
C458   C     0.17988   0.35452   0.54118   0.00000  Uiso   1.00
C459   C     0.16697   0.62416   0.49987   0.00000  Uiso   1.00
C460   C     0.16637   0.37584   0.50013   0.00000  Uiso   1.00
C461   C     0.19873   0.52682   0.36037   0.00000  Uiso   1.00
C462   C     0.13460   0.47318   0.63963   0.00000  Uiso   1.00
C463   C     0.19851   0.52664   0.64602   0.00000  Uiso   1.00
C464   C     0.13483   0.47336   0.35398   0.00000  Uiso   1.00
C465   C     0.16683   0.57998   0.49992   0.00000  Uiso   1.00
C466   C     0.06714   0.49985   0.48814   0.00000  Uiso   1.00
C467   C     0.26619   0.50015   0.51186   0.00000  Uiso   1.00
C468   C     0.01214   0.49920   0.48177   0.00000  Uiso   1.00
C469   C     0.32119   0.50080   0.51823   0.00000  Uiso   1.00
C470   C     0.15311   0.35480   0.45895   0.00000  Uiso   1.00
C471   C     0.18022   0.64520   0.54105   0.00000  Uiso   1.00
C472   C     0.15345   0.64548   0.45881   0.00000  Uiso   1.00
H473   H     0.32511   0.49716   0.44712   0.00000  Uiso   1.00
H474   H     0.00822   0.50284   0.55288   0.00000  Uiso   1.00
H475   H     0.14219   0.37119   0.42702   0.00000  Uiso   1.00
H476   H     0.19114   0.62881   0.57298   0.00000  Uiso   1.00
H477   H     0.14272   0.62930   0.42686   0.00000  Uiso   1.00
H478   H     0.19061   0.37070   0.57314   0.00000  Uiso   1.00
H479   H     0.22391   0.54789   0.63056   0.00000  Uiso   1.00
H480   H     0.10943   0.45211   0.36944   0.00000  Uiso   1.00
I481   I     0.25083   0.57040   0.39681   0.00000  Uiso   1.00
I482   I     0.08250   0.42960   0.60319   0.00000  Uiso   1.00
N483   N     0.16665   0.49999   0.61907   0.00000  Uiso   1.00
N484   N     0.16668   0.50001   0.38093   0.00000  Uiso   1.00
O485   O     0.16666   0.43892   0.53821   0.00000  Uiso   1.00
O486   O     0.16667   0.56108   0.46179   0.00000  Uiso   1.00
O487   O     0.16666   0.43893   0.46176   0.00000  Uiso   1.00
O488   O     0.16667   0.56107   0.53824   0.00000  Uiso   1.00
O489   O     0.09058   0.50000   0.52928   0.00000  Uiso   1.00
O490   O     0.24275   0.50000   0.47072   0.00000  Uiso   1.00
O491   O     0.09058   0.50000   0.45284   0.00000  Uiso   1.00
O492   O     0.24275   0.50000   0.54716   0.00000  Uiso   1.00
Zn493  Zn    0.16667   0.49999   0.55104   0.00000  Uiso   1.00
Zn494  Zn    0.16667   0.50001   0.44896   0.00000  Uiso   1.00
C495   C     0.49984   0.42002   0.50008   0.00000  Uiso   1.00
C496   C     0.51321   0.35452   0.54118   0.00000  Uiso   1.00
C497   C     0.50030   0.62416   0.49987   0.00000  Uiso   1.00
C498   C     0.49970   0.37584   0.50013   0.00000  Uiso   1.00
C499   C     0.53207   0.52682   0.36037   0.00000  Uiso   1.00
C500   C     0.46793   0.47318   0.63963   0.00000  Uiso   1.00
C501   C     0.53184   0.52664   0.64602   0.00000  Uiso   1.00
C502   C     0.46816   0.47336   0.35398   0.00000  Uiso   1.00
C503   C     0.50016   0.57998   0.49992   0.00000  Uiso   1.00
C504   C     0.40047   0.49985   0.48814   0.00000  Uiso   1.00
C505   C     0.59953   0.50015   0.51186   0.00000  Uiso   1.00
C506   C     0.34547   0.49920   0.48177   0.00000  Uiso   1.00
C507   C     0.65452   0.50080   0.51823   0.00000  Uiso   1.00
C508   C     0.48645   0.35480   0.45895   0.00000  Uiso   1.00
C509   C     0.51355   0.64520   0.54105   0.00000  Uiso   1.00
C510   C     0.48679   0.64548   0.45881   0.00000  Uiso   1.00
H511   H     0.65844   0.49716   0.44712   0.00000  Uiso   1.00
H512   H     0.34156   0.50284   0.55288   0.00000  Uiso   1.00
H513   H     0.47552   0.37119   0.42702   0.00000  Uiso   1.00
H514   H     0.52448   0.62881   0.57298   0.00000  Uiso   1.00
H515   H     0.47606   0.62930   0.42686   0.00000  Uiso   1.00
H516   H     0.52394   0.37070   0.57314   0.00000  Uiso   1.00
H517   H     0.55724   0.54789   0.63056   0.00000  Uiso   1.00
H518   H     0.44276   0.45211   0.36944   0.00000  Uiso   1.00
I519   I     0.58417   0.57040   0.39681   0.00000  Uiso   1.00
I520   I     0.41583   0.42960   0.60319   0.00000  Uiso   1.00
N521   N     0.49999   0.49999   0.61907   0.00000  Uiso   1.00
N522   N     0.50001   0.50001   0.38093   0.00000  Uiso   1.00
O523   O     0.50000   0.43892   0.53821   0.00000  Uiso   1.00
O524   O     0.50000   0.56108   0.46179   0.00000  Uiso   1.00
O525   O     0.50000   0.43893   0.46176   0.00000  Uiso   1.00
O526   O     0.50000   0.56107   0.53824   0.00000  Uiso   1.00
O527   O     0.42392   0.50000   0.52928   0.00000  Uiso   1.00
O528   O     0.57608   0.50000   0.47072   0.00000  Uiso   1.00
O529   O     0.42392   0.50000   0.45284   0.00000  Uiso   1.00
O530   O     0.57608   0.50000   0.54716   0.00000  Uiso   1.00
Zn531  Zn    0.50000   0.49999   0.55104   0.00000  Uiso   1.00
Zn532  Zn    0.50000   0.50001   0.44896   0.00000  Uiso   1.00
C533   C     0.83317   0.42002   0.50008   0.00000  Uiso   1.00
C534   C     0.84655   0.35452   0.54118   0.00000  Uiso   1.00
C535   C     0.83363   0.62416   0.49987   0.00000  Uiso   1.00
C536   C     0.83303   0.37584   0.50013   0.00000  Uiso   1.00
C537   C     0.86540   0.52682   0.36037   0.00000  Uiso   1.00
C538   C     0.80127   0.47318   0.63963   0.00000  Uiso   1.00
C539   C     0.86517   0.52664   0.64602   0.00000  Uiso   1.00
C540   C     0.80149   0.47336   0.35398   0.00000  Uiso   1.00
C541   C     0.83349   0.57998   0.49992   0.00000  Uiso   1.00
C542   C     0.73381   0.49985   0.48814   0.00000  Uiso   1.00
C543   C     0.93286   0.50015   0.51186   0.00000  Uiso   1.00
C544   C     0.67881   0.49920   0.48177   0.00000  Uiso   1.00
C545   C     0.98786   0.50080   0.51823   0.00000  Uiso   1.00
C546   C     0.81978   0.35480   0.45895   0.00000  Uiso   1.00
C547   C     0.84689   0.64520   0.54105   0.00000  Uiso   1.00
C548   C     0.82012   0.64548   0.45881   0.00000  Uiso   1.00
H549   H     0.99178   0.49716   0.44712   0.00000  Uiso   1.00
H550   H     0.67489   0.50284   0.55288   0.00000  Uiso   1.00
H551   H     0.80886   0.37119   0.42702   0.00000  Uiso   1.00
H552   H     0.85781   0.62881   0.57298   0.00000  Uiso   1.00
H553   H     0.80939   0.62930   0.42686   0.00000  Uiso   1.00
H554   H     0.85728   0.37070   0.57314   0.00000  Uiso   1.00
H555   H     0.89057   0.54789   0.63056   0.00000  Uiso   1.00
H556   H     0.77609   0.45211   0.36944   0.00000  Uiso   1.00
I557   I     0.91750   0.57040   0.39681   0.00000  Uiso   1.00
I558   I     0.74917   0.42960   0.60319   0.00000  Uiso   1.00
N559   N     0.83332   0.49999   0.61907   0.00000  Uiso   1.00
N560   N     0.83335   0.50001   0.38093   0.00000  Uiso   1.00
O561   O     0.83333   0.43892   0.53821   0.00000  Uiso   1.00
O562   O     0.83334   0.56108   0.46179   0.00000  Uiso   1.00
O563   O     0.83333   0.43893   0.46176   0.00000  Uiso   1.00
O564   O     0.83334   0.56107   0.53824   0.00000  Uiso   1.00
O565   O     0.75725   0.50000   0.52928   0.00000  Uiso   1.00
O566   O     0.90942   0.50000   0.47072   0.00000  Uiso   1.00
O567   O     0.75725   0.50000   0.45284   0.00000  Uiso   1.00
O568   O     0.90942   0.50000   0.54716   0.00000  Uiso   1.00
Zn569  Zn    0.83333   0.49999   0.55104   0.00000  Uiso   1.00
Zn570  Zn    0.83333   0.50001   0.44896   0.00000  Uiso   1.00
C571   C     0.16651   0.75335   0.50008   0.00000  Uiso   1.00
C572   C     0.17988   0.68786   0.54118   0.00000  Uiso   1.00
C573   C     0.16697   0.95749   0.49987   0.00000  Uiso   1.00
C574   C     0.16637   0.70918   0.50013   0.00000  Uiso   1.00
C575   C     0.19873   0.86015   0.36037   0.00000  Uiso   1.00
C576   C     0.13460   0.80651   0.63963   0.00000  Uiso   1.00
C577   C     0.19851   0.85997   0.64602   0.00000  Uiso   1.00
C578   C     0.13483   0.80670   0.35398   0.00000  Uiso   1.00
C579   C     0.16683   0.91331   0.49992   0.00000  Uiso   1.00
C580   C     0.06714   0.83319   0.48814   0.00000  Uiso   1.00
C581   C     0.26619   0.83348   0.51186   0.00000  Uiso   1.00
C582   C     0.01214   0.83253   0.48177   0.00000  Uiso   1.00
C583   C     0.32119   0.83413   0.51823   0.00000  Uiso   1.00
C584   C     0.15311   0.68814   0.45895   0.00000  Uiso   1.00
C585   C     0.18022   0.97853   0.54105   0.00000  Uiso   1.00
C586   C     0.15345   0.97881   0.45881   0.00000  Uiso   1.00
H587   H     0.32511   0.83050   0.44712   0.00000  Uiso   1.00
H588   H     0.00822   0.83617   0.55288   0.00000  Uiso   1.00
H589   H     0.14219   0.70453   0.42702   0.00000  Uiso   1.00
H590   H     0.19114   0.96214   0.57298   0.00000  Uiso   1.00
H591   H     0.14272   0.96264   0.42686   0.00000  Uiso   1.00
H592   H     0.19061   0.70403   0.57314   0.00000  Uiso   1.00
H593   H     0.22391   0.88123   0.63056   0.00000  Uiso   1.00
H594   H     0.10943   0.78544   0.36944   0.00000  Uiso   1.00
I595   I     0.25083   0.90374   0.39681   0.00000  Uiso   1.00
I596   I     0.08250   0.76293   0.60319   0.00000  Uiso   1.00
N597   N     0.16665   0.83332   0.61907   0.00000  Uiso   1.00
N598   N     0.16668   0.83334   0.38093   0.00000  Uiso   1.00
O599   O     0.16666   0.77225   0.53821   0.00000  Uiso   1.00
O600   O     0.16667   0.89442   0.46179   0.00000  Uiso   1.00
O601   O     0.16666   0.77226   0.46176   0.00000  Uiso   1.00
O602   O     0.16667   0.89441   0.53824   0.00000  Uiso   1.00
O603   O     0.09058   0.83333   0.52928   0.00000  Uiso   1.00
O604   O     0.24275   0.83334   0.47072   0.00000  Uiso   1.00
O605   O     0.09058   0.83334   0.45284   0.00000  Uiso   1.00
O606   O     0.24275   0.83333   0.54716   0.00000  Uiso   1.00
Zn607  Zn    0.16667   0.83333   0.55104   0.00000  Uiso   1.00
Zn608  Zn    0.16667   0.83334   0.44896   0.00000  Uiso   1.00
C609   C     0.49984   0.75335   0.50008   0.00000  Uiso   1.00
C610   C     0.51321   0.68786   0.54118   0.00000  Uiso   1.00
C611   C     0.50030   0.95749   0.49987   0.00000  Uiso   1.00
C612   C     0.49970   0.70918   0.50013   0.00000  Uiso   1.00
C613   C     0.53207   0.86015   0.36037   0.00000  Uiso   1.00
C614   C     0.46793   0.80651   0.63963   0.00000  Uiso   1.00
C615   C     0.53184   0.85997   0.64602   0.00000  Uiso   1.00
C616   C     0.46816   0.80670   0.35398   0.00000  Uiso   1.00
C617   C     0.50016   0.91331   0.49992   0.00000  Uiso   1.00
C618   C     0.40047   0.83319   0.48814   0.00000  Uiso   1.00
C619   C     0.59953   0.83348   0.51186   0.00000  Uiso   1.00
C620   C     0.34547   0.83253   0.48177   0.00000  Uiso   1.00
C621   C     0.65452   0.83413   0.51823   0.00000  Uiso   1.00
C622   C     0.48645   0.68814   0.45895   0.00000  Uiso   1.00
C623   C     0.51355   0.97853   0.54105   0.00000  Uiso   1.00
C624   C     0.48679   0.97881   0.45881   0.00000  Uiso   1.00
H625   H     0.65844   0.83050   0.44712   0.00000  Uiso   1.00
H626   H     0.34156   0.83617   0.55288   0.00000  Uiso   1.00
H627   H     0.47552   0.70453   0.42702   0.00000  Uiso   1.00
H628   H     0.52448   0.96214   0.57298   0.00000  Uiso   1.00
H629   H     0.47606   0.96264   0.42686   0.00000  Uiso   1.00
H630   H     0.52394   0.70403   0.57314   0.00000  Uiso   1.00
H631   H     0.55724   0.88123   0.63056   0.00000  Uiso   1.00
H632   H     0.44276   0.78544   0.36944   0.00000  Uiso   1.00
I633   I     0.58417   0.90374   0.39681   0.00000  Uiso   1.00
I634   I     0.41583   0.76293   0.60319   0.00000  Uiso   1.00
N635   N     0.49999   0.83332   0.61907   0.00000  Uiso   1.00
N636   N     0.50001   0.83334   0.38093   0.00000  Uiso   1.00
O637   O     0.50000   0.77225   0.53821   0.00000  Uiso   1.00
O638   O     0.50000   0.89442   0.46179   0.00000  Uiso   1.00
O639   O     0.50000   0.77226   0.46176   0.00000  Uiso   1.00
O640   O     0.50000   0.89441   0.53824   0.00000  Uiso   1.00
O641   O     0.42392   0.83333   0.52928   0.00000  Uiso   1.00
O642   O     0.57608   0.83334   0.47072   0.00000  Uiso   1.00
O643   O     0.42392   0.83334   0.45284   0.00000  Uiso   1.00
O644   O     0.57608   0.83333   0.54716   0.00000  Uiso   1.00
Zn645  Zn    0.50000   0.83333   0.55104   0.00000  Uiso   1.00
Zn646  Zn    0.50000   0.83334   0.44896   0.00000  Uiso   1.00
C647   C     0.83317   0.75335   0.50008   0.00000  Uiso   1.00
C648   C     0.84655   0.68786   0.54118   0.00000  Uiso   1.00
C649   C     0.83363   0.95749   0.49987   0.00000  Uiso   1.00
C650   C     0.83303   0.70918   0.50013   0.00000  Uiso   1.00
C651   C     0.86540   0.86015   0.36037   0.00000  Uiso   1.00
C652   C     0.80127   0.80651   0.63963   0.00000  Uiso   1.00
C653   C     0.86517   0.85997   0.64602   0.00000  Uiso   1.00
C654   C     0.80149   0.80670   0.35398   0.00000  Uiso   1.00
C655   C     0.83349   0.91331   0.49992   0.00000  Uiso   1.00
C656   C     0.73381   0.83319   0.48814   0.00000  Uiso   1.00
C657   C     0.93286   0.83348   0.51186   0.00000  Uiso   1.00
C658   C     0.67881   0.83253   0.48177   0.00000  Uiso   1.00
C659   C     0.98786   0.83413   0.51823   0.00000  Uiso   1.00
C660   C     0.81978   0.68814   0.45895   0.00000  Uiso   1.00
C661   C     0.84689   0.97853   0.54105   0.00000  Uiso   1.00
C662   C     0.82012   0.97881   0.45881   0.00000  Uiso   1.00
H663   H     0.99178   0.83050   0.44712   0.00000  Uiso   1.00
H664   H     0.67489   0.83617   0.55288   0.00000  Uiso   1.00
H665   H     0.80886   0.70453   0.42702   0.00000  Uiso   1.00
H666   H     0.85781   0.96214   0.57298   0.00000  Uiso   1.00
H667   H     0.80939   0.96264   0.42686   0.00000  Uiso   1.00
H668   H     0.85728   0.70403   0.57314   0.00000  Uiso   1.00
H669   H     0.89057   0.88123   0.63056   0.00000  Uiso   1.00
H670   H     0.77609   0.78544   0.36944   0.00000  Uiso   1.00
I671   I     0.91750   0.90374   0.39681   0.00000  Uiso   1.00
I672   I     0.74917   0.76293   0.60319   0.00000  Uiso   1.00
N673   N     0.83332   0.83332   0.61907   0.00000  Uiso   1.00
N674   N     0.83335   0.83334   0.38093   0.00000  Uiso   1.00
O675   O     0.83333   0.77225   0.53821   0.00000  Uiso   1.00
O676   O     0.83334   0.89442   0.46179   0.00000  Uiso   1.00
O677   O     0.83333   0.77226   0.46176   0.00000  Uiso   1.00
O678   O     0.83334   0.89441   0.53824   0.00000  Uiso   1.00
O679   O     0.75725   0.83333   0.52928   0.00000  Uiso   1.00
O680   O     0.90942   0.83334   0.47072   0.00000  Uiso   1.00
O681   O     0.75725   0.83334   0.45284   0.00000  Uiso   1.00
O682   O     0.90942   0.83333   0.54716   0.00000  Uiso   1.00
Zn683  Zn    0.83333   0.83333   0.55104   0.00000  Uiso   1.00
Zn684  Zn    0.83333   0.83334   0.44896   0.00000  Uiso   1.00
C685   C     0.16651   0.08669   0.83341   0.00000  Uiso   1.00
C686   C     0.17988   0.02119   0.87452   0.00000  Uiso   1.00
C687   C     0.16697   0.29082   0.83320   0.00000  Uiso   1.00
C688   C     0.16637   0.04251   0.83346   0.00000  Uiso   1.00
C689   C     0.19873   0.19349   0.69370   0.00000  Uiso   1.00
C690   C     0.13460   0.13985   0.97296   0.00000  Uiso   1.00
C691   C     0.19851   0.19330   0.97935   0.00000  Uiso   1.00
C692   C     0.13483   0.14003   0.68731   0.00000  Uiso   1.00
C693   C     0.16683   0.24665   0.83325   0.00000  Uiso   1.00
C694   C     0.06714   0.16652   0.82147   0.00000  Uiso   1.00
C695   C     0.26619   0.16681   0.84519   0.00000  Uiso   1.00
C696   C     0.01214   0.16587   0.81510   0.00000  Uiso   1.00
C697   C     0.32119   0.16747   0.85157   0.00000  Uiso   1.00
C698   C     0.15311   0.02147   0.79228   0.00000  Uiso   1.00
C699   C     0.18022   0.31186   0.87439   0.00000  Uiso   1.00
C700   C     0.15345   0.31214   0.79215   0.00000  Uiso   1.00
H701   H     0.32511   0.16383   0.78045   0.00000  Uiso   1.00
H702   H     0.00822   0.16950   0.88622   0.00000  Uiso   1.00
H703   H     0.14219   0.03786   0.76036   0.00000  Uiso   1.00
H704   H     0.19114   0.29547   0.90631   0.00000  Uiso   1.00
H705   H     0.14272   0.29597   0.76020   0.00000  Uiso   1.00
H706   H     0.19061   0.03736   0.90647   0.00000  Uiso   1.00
H707   H     0.22391   0.21456   0.96389   0.00000  Uiso   1.00
H708   H     0.10943   0.11877   0.70278   0.00000  Uiso   1.00
I709   I     0.25083   0.23707   0.73015   0.00000  Uiso   1.00
I710   I     0.08250   0.09626   0.93652   0.00000  Uiso   1.00
N711   N     0.16665   0.16666   0.95240   0.00000  Uiso   1.00
N712   N     0.16668   0.16668   0.71427   0.00000  Uiso   1.00
O713   O     0.16666   0.10558   0.87154   0.00000  Uiso   1.00
O714   O     0.16667   0.22775   0.79513   0.00000  Uiso   1.00
O715   O     0.16666   0.10559   0.79510   0.00000  Uiso   1.00
O716   O     0.16667   0.22774   0.87157   0.00000  Uiso   1.00
O717   O     0.09058   0.16666   0.86261   0.00000  Uiso   1.00
O718   O     0.24275   0.16667   0.80405   0.00000  Uiso   1.00
O719   O     0.09058   0.16667   0.78617   0.00000  Uiso   1.00
O720   O     0.24275   0.16666   0.88050   0.00000  Uiso   1.00
Zn721  Zn    0.16667   0.16666   0.88437   0.00000  Uiso   1.00
Zn722  Zn    0.16667   0.16667   0.78229   0.00000  Uiso   1.00
C723   C     0.49984   0.08669   0.83341   0.00000  Uiso   1.00
C724   C     0.51321   0.02119   0.87452   0.00000  Uiso   1.00
C725   C     0.50030   0.29082   0.83320   0.00000  Uiso   1.00
C726   C     0.49970   0.04251   0.83346   0.00000  Uiso   1.00
C727   C     0.53207   0.19349   0.69370   0.00000  Uiso   1.00
C728   C     0.46793   0.13985   0.97296   0.00000  Uiso   1.00
C729   C     0.53184   0.19330   0.97935   0.00000  Uiso   1.00
C730   C     0.46816   0.14003   0.68731   0.00000  Uiso   1.00
C731   C     0.50016   0.24665   0.83325   0.00000  Uiso   1.00
C732   C     0.40047   0.16652   0.82147   0.00000  Uiso   1.00
C733   C     0.59953   0.16681   0.84519   0.00000  Uiso   1.00
C734   C     0.34547   0.16587   0.81510   0.00000  Uiso   1.00
C735   C     0.65452   0.16747   0.85157   0.00000  Uiso   1.00
C736   C     0.48645   0.02147   0.79228   0.00000  Uiso   1.00
C737   C     0.51355   0.31186   0.87439   0.00000  Uiso   1.00
C738   C     0.48679   0.31214   0.79215   0.00000  Uiso   1.00
H739   H     0.65844   0.16383   0.78045   0.00000  Uiso   1.00
H740   H     0.34156   0.16950   0.88622   0.00000  Uiso   1.00
H741   H     0.47552   0.03786   0.76036   0.00000  Uiso   1.00
H742   H     0.52448   0.29547   0.90631   0.00000  Uiso   1.00
H743   H     0.47606   0.29597   0.76020   0.00000  Uiso   1.00
H744   H     0.52394   0.03736   0.90647   0.00000  Uiso   1.00
H745   H     0.55724   0.21456   0.96389   0.00000  Uiso   1.00
H746   H     0.44276   0.11877   0.70278   0.00000  Uiso   1.00
I747   I     0.58417   0.23707   0.73015   0.00000  Uiso   1.00
I748   I     0.41583   0.09626   0.93652   0.00000  Uiso   1.00
N749   N     0.49999   0.16666   0.95240   0.00000  Uiso   1.00
N750   N     0.50001   0.16668   0.71427   0.00000  Uiso   1.00
O751   O     0.50000   0.10558   0.87154   0.00000  Uiso   1.00
O752   O     0.50000   0.22775   0.79513   0.00000  Uiso   1.00
O753   O     0.50000   0.10559   0.79510   0.00000  Uiso   1.00
O754   O     0.50000   0.22774   0.87157   0.00000  Uiso   1.00
O755   O     0.42392   0.16666   0.86261   0.00000  Uiso   1.00
O756   O     0.57608   0.16667   0.80405   0.00000  Uiso   1.00
O757   O     0.42392   0.16667   0.78617   0.00000  Uiso   1.00
O758   O     0.57608   0.16666   0.88050   0.00000  Uiso   1.00
Zn759  Zn    0.50000   0.16666   0.88437   0.00000  Uiso   1.00
Zn760  Zn    0.50000   0.16667   0.78229   0.00000  Uiso   1.00
C761   C     0.83317   0.08669   0.83341   0.00000  Uiso   1.00
C762   C     0.84655   0.02119   0.87452   0.00000  Uiso   1.00
C763   C     0.83363   0.29082   0.83320   0.00000  Uiso   1.00
C764   C     0.83303   0.04251   0.83346   0.00000  Uiso   1.00
C765   C     0.86540   0.19349   0.69370   0.00000  Uiso   1.00
C766   C     0.80127   0.13985   0.97296   0.00000  Uiso   1.00
C767   C     0.86517   0.19330   0.97935   0.00000  Uiso   1.00
C768   C     0.80149   0.14003   0.68731   0.00000  Uiso   1.00
C769   C     0.83349   0.24665   0.83325   0.00000  Uiso   1.00
C770   C     0.73381   0.16652   0.82147   0.00000  Uiso   1.00
C771   C     0.93286   0.16681   0.84519   0.00000  Uiso   1.00
C772   C     0.67881   0.16587   0.81510   0.00000  Uiso   1.00
C773   C     0.98786   0.16747   0.85157   0.00000  Uiso   1.00
C774   C     0.81978   0.02147   0.79228   0.00000  Uiso   1.00
C775   C     0.84689   0.31186   0.87439   0.00000  Uiso   1.00
C776   C     0.82012   0.31214   0.79215   0.00000  Uiso   1.00
H777   H     0.99178   0.16383   0.78045   0.00000  Uiso   1.00
H778   H     0.67489   0.16950   0.88622   0.00000  Uiso   1.00
H779   H     0.80886   0.03786   0.76036   0.00000  Uiso   1.00
H780   H     0.85781   0.29547   0.90631   0.00000  Uiso   1.00
H781   H     0.80939   0.29597   0.76020   0.00000  Uiso   1.00
H782   H     0.85728   0.03736   0.90647   0.00000  Uiso   1.00
H783   H     0.89057   0.21456   0.96389   0.00000  Uiso   1.00
H784   H     0.77609   0.11877   0.70278   0.00000  Uiso   1.00
I785   I     0.91750   0.23707   0.73015   0.00000  Uiso   1.00
I786   I     0.74917   0.09626   0.93652   0.00000  Uiso   1.00
N787   N     0.83332   0.16666   0.95240   0.00000  Uiso   1.00
N788   N     0.83335   0.16668   0.71427   0.00000  Uiso   1.00
O789   O     0.83333   0.10558   0.87154   0.00000  Uiso   1.00
O790   O     0.83334   0.22775   0.79513   0.00000  Uiso   1.00
O791   O     0.83333   0.10559   0.79510   0.00000  Uiso   1.00
O792   O     0.83334   0.22774   0.87157   0.00000  Uiso   1.00
O793   O     0.75725   0.16666   0.86261   0.00000  Uiso   1.00
O794   O     0.90942   0.16667   0.80405   0.00000  Uiso   1.00
O795   O     0.75725   0.16667   0.78617   0.00000  Uiso   1.00
O796   O     0.90942   0.16666   0.88050   0.00000  Uiso   1.00
Zn797  Zn    0.83333   0.16666   0.88437   0.00000  Uiso   1.00
Zn798  Zn    0.83333   0.16667   0.78229   0.00000  Uiso   1.00
C799   C     0.16651   0.42002   0.83341   0.00000  Uiso   1.00
C800   C     0.17988   0.35452   0.87452   0.00000  Uiso   1.00
C801   C     0.16697   0.62416   0.83320   0.00000  Uiso   1.00
C802   C     0.16637   0.37584   0.83346   0.00000  Uiso   1.00
C803   C     0.19873   0.52682   0.69370   0.00000  Uiso   1.00
C804   C     0.13460   0.47318   0.97296   0.00000  Uiso   1.00
C805   C     0.19851   0.52664   0.97935   0.00000  Uiso   1.00
C806   C     0.13483   0.47336   0.68731   0.00000  Uiso   1.00
C807   C     0.16683   0.57998   0.83325   0.00000  Uiso   1.00
C808   C     0.06714   0.49985   0.82147   0.00000  Uiso   1.00
C809   C     0.26619   0.50015   0.84519   0.00000  Uiso   1.00
C810   C     0.01214   0.49920   0.81510   0.00000  Uiso   1.00
C811   C     0.32119   0.50080   0.85157   0.00000  Uiso   1.00
C812   C     0.15311   0.35480   0.79228   0.00000  Uiso   1.00
C813   C     0.18022   0.64520   0.87439   0.00000  Uiso   1.00
C814   C     0.15345   0.64548   0.79215   0.00000  Uiso   1.00
H815   H     0.32511   0.49716   0.78045   0.00000  Uiso   1.00
H816   H     0.00822   0.50284   0.88622   0.00000  Uiso   1.00
H817   H     0.14219   0.37119   0.76036   0.00000  Uiso   1.00
H818   H     0.19114   0.62881   0.90631   0.00000  Uiso   1.00
H819   H     0.14272   0.62930   0.76020   0.00000  Uiso   1.00
H820   H     0.19061   0.37070   0.90647   0.00000  Uiso   1.00
H821   H     0.22391   0.54789   0.96389   0.00000  Uiso   1.00
H822   H     0.10943   0.45211   0.70278   0.00000  Uiso   1.00
I823   I     0.25083   0.57040   0.73015   0.00000  Uiso   1.00
I824   I     0.08250   0.42960   0.93652   0.00000  Uiso   1.00
N825   N     0.16665   0.49999   0.95240   0.00000  Uiso   1.00
N826   N     0.16668   0.50001   0.71427   0.00000  Uiso   1.00
O827   O     0.16666   0.43892   0.87154   0.00000  Uiso   1.00
O828   O     0.16667   0.56108   0.79513   0.00000  Uiso   1.00
O829   O     0.16666   0.43893   0.79510   0.00000  Uiso   1.00
O830   O     0.16667   0.56107   0.87157   0.00000  Uiso   1.00
O831   O     0.09058   0.50000   0.86261   0.00000  Uiso   1.00
O832   O     0.24275   0.50000   0.80405   0.00000  Uiso   1.00
O833   O     0.09058   0.50000   0.78617   0.00000  Uiso   1.00
O834   O     0.24275   0.50000   0.88050   0.00000  Uiso   1.00
Zn835  Zn    0.16667   0.49999   0.88437   0.00000  Uiso   1.00
Zn836  Zn    0.16667   0.50001   0.78229   0.00000  Uiso   1.00
C837   C     0.49984   0.42002   0.83341   0.00000  Uiso   1.00
C838   C     0.51321   0.35452   0.87452   0.00000  Uiso   1.00
C839   C     0.50030   0.62416   0.83320   0.00000  Uiso   1.00
C840   C     0.49970   0.37584   0.83346   0.00000  Uiso   1.00
C841   C     0.53207   0.52682   0.69370   0.00000  Uiso   1.00
C842   C     0.46793   0.47318   0.97296   0.00000  Uiso   1.00
C843   C     0.53184   0.52664   0.97935   0.00000  Uiso   1.00
C844   C     0.46816   0.47336   0.68731   0.00000  Uiso   1.00
C845   C     0.50016   0.57998   0.83325   0.00000  Uiso   1.00
C846   C     0.40047   0.49985   0.82147   0.00000  Uiso   1.00
C847   C     0.59953   0.50015   0.84519   0.00000  Uiso   1.00
C848   C     0.34547   0.49920   0.81510   0.00000  Uiso   1.00
C849   C     0.65452   0.50080   0.85157   0.00000  Uiso   1.00
C850   C     0.48645   0.35480   0.79228   0.00000  Uiso   1.00
C851   C     0.51355   0.64520   0.87439   0.00000  Uiso   1.00
C852   C     0.48679   0.64548   0.79215   0.00000  Uiso   1.00
H853   H     0.65844   0.49716   0.78045   0.00000  Uiso   1.00
H854   H     0.34156   0.50284   0.88622   0.00000  Uiso   1.00
H855   H     0.47552   0.37119   0.76036   0.00000  Uiso   1.00
H856   H     0.52448   0.62881   0.90631   0.00000  Uiso   1.00
H857   H     0.47606   0.62930   0.76020   0.00000  Uiso   1.00
H858   H     0.52394   0.37070   0.90647   0.00000  Uiso   1.00
H859   H     0.55724   0.54789   0.96389   0.00000  Uiso   1.00
H860   H     0.44276   0.45211   0.70278   0.00000  Uiso   1.00
I861   I     0.58417   0.57040   0.73015   0.00000  Uiso   1.00
I862   I     0.41583   0.42960   0.93652   0.00000  Uiso   1.00
N863   N     0.49999   0.49999   0.95240   0.00000  Uiso   1.00
N864   N     0.50001   0.50001   0.71427   0.00000  Uiso   1.00
O865   O     0.50000   0.43892   0.87154   0.00000  Uiso   1.00
O866   O     0.50000   0.56108   0.79513   0.00000  Uiso   1.00
O867   O     0.50000   0.43893   0.79510   0.00000  Uiso   1.00
O868   O     0.50000   0.56107   0.87157   0.00000  Uiso   1.00
O869   O     0.42392   0.50000   0.86261   0.00000  Uiso   1.00
O870   O     0.57608   0.50000   0.80405   0.00000  Uiso   1.00
O871   O     0.42392   0.50000   0.78617   0.00000  Uiso   1.00
O872   O     0.57608   0.50000   0.88050   0.00000  Uiso   1.00
Zn873  Zn    0.50000   0.49999   0.88437   0.00000  Uiso   1.00
Zn874  Zn    0.50000   0.50001   0.78229   0.00000  Uiso   1.00
C875   C     0.83317   0.42002   0.83341   0.00000  Uiso   1.00
C876   C     0.84655   0.35452   0.87452   0.00000  Uiso   1.00
C877   C     0.83363   0.62416   0.83320   0.00000  Uiso   1.00
C878   C     0.83303   0.37584   0.83346   0.00000  Uiso   1.00
C879   C     0.86540   0.52682   0.69370   0.00000  Uiso   1.00
C880   C     0.80127   0.47318   0.97296   0.00000  Uiso   1.00
C881   C     0.86517   0.52664   0.97935   0.00000  Uiso   1.00
C882   C     0.80149   0.47336   0.68731   0.00000  Uiso   1.00
C883   C     0.83349   0.57998   0.83325   0.00000  Uiso   1.00
C884   C     0.73381   0.49985   0.82147   0.00000  Uiso   1.00
C885   C     0.93286   0.50015   0.84519   0.00000  Uiso   1.00
C886   C     0.67881   0.49920   0.81510   0.00000  Uiso   1.00
C887   C     0.98786   0.50080   0.85157   0.00000  Uiso   1.00
C888   C     0.81978   0.35480   0.79228   0.00000  Uiso   1.00
C889   C     0.84689   0.64520   0.87439   0.00000  Uiso   1.00
C890   C     0.82012   0.64548   0.79215   0.00000  Uiso   1.00
H891   H     0.99178   0.49716   0.78045   0.00000  Uiso   1.00
H892   H     0.67489   0.50284   0.88622   0.00000  Uiso   1.00
H893   H     0.80886   0.37119   0.76036   0.00000  Uiso   1.00
H894   H     0.85781   0.62881   0.90631   0.00000  Uiso   1.00
H895   H     0.80939   0.62930   0.76020   0.00000  Uiso   1.00
H896   H     0.85728   0.37070   0.90647   0.00000  Uiso   1.00
H897   H     0.89057   0.54789   0.96389   0.00000  Uiso   1.00
H898   H     0.77609   0.45211   0.70278   0.00000  Uiso   1.00
I899   I     0.91750   0.57040   0.73015   0.00000  Uiso   1.00
I900   I     0.74917   0.42960   0.93652   0.00000  Uiso   1.00
N901   N     0.83332   0.49999   0.95240   0.00000  Uiso   1.00
N902   N     0.83335   0.50001   0.71427   0.00000  Uiso   1.00
O903   O     0.83333   0.43892   0.87154   0.00000  Uiso   1.00
O904   O     0.83334   0.56108   0.79513   0.00000  Uiso   1.00
O905   O     0.83333   0.43893   0.79510   0.00000  Uiso   1.00
O906   O     0.83334   0.56107   0.87157   0.00000  Uiso   1.00
O907   O     0.75725   0.50000   0.86261   0.00000  Uiso   1.00
O908   O     0.90942   0.50000   0.80405   0.00000  Uiso   1.00
O909   O     0.75725   0.50000   0.78617   0.00000  Uiso   1.00
O910   O     0.90942   0.50000   0.88050   0.00000  Uiso   1.00
Zn911  Zn    0.83333   0.49999   0.88437   0.00000  Uiso   1.00
Zn912  Zn    0.83333   0.50001   0.78229   0.00000  Uiso   1.00
C913   C     0.16651   0.75335   0.83341   0.00000  Uiso   1.00
C914   C     0.17988   0.68786   0.87452   0.00000  Uiso   1.00
C915   C     0.16697   0.95749   0.83320   0.00000  Uiso   1.00
C916   C     0.16637   0.70918   0.83346   0.00000  Uiso   1.00
C917   C     0.19873   0.86015   0.69370   0.00000  Uiso   1.00
C918   C     0.13460   0.80651   0.97296   0.00000  Uiso   1.00
C919   C     0.19851   0.85997   0.97935   0.00000  Uiso   1.00
C920   C     0.13483   0.80670   0.68731   0.00000  Uiso   1.00
C921   C     0.16683   0.91331   0.83325   0.00000  Uiso   1.00
C922   C     0.06714   0.83319   0.82147   0.00000  Uiso   1.00
C923   C     0.26619   0.83348   0.84519   0.00000  Uiso   1.00
C924   C     0.01214   0.83253   0.81510   0.00000  Uiso   1.00
C925   C     0.32119   0.83413   0.85157   0.00000  Uiso   1.00
C926   C     0.15311   0.68814   0.79228   0.00000  Uiso   1.00
C927   C     0.18022   0.97853   0.87439   0.00000  Uiso   1.00
C928   C     0.15345   0.97881   0.79215   0.00000  Uiso   1.00
H929   H     0.32511   0.83050   0.78045   0.00000  Uiso   1.00
H930   H     0.00822   0.83617   0.88622   0.00000  Uiso   1.00
H931   H     0.14219   0.70453   0.76036   0.00000  Uiso   1.00
H932   H     0.19114   0.96214   0.90631   0.00000  Uiso   1.00
H933   H     0.14272   0.96264   0.76020   0.00000  Uiso   1.00
H934   H     0.19061   0.70403   0.90647   0.00000  Uiso   1.00
H935   H     0.22391   0.88123   0.96389   0.00000  Uiso   1.00
H936   H     0.10943   0.78544   0.70278   0.00000  Uiso   1.00
I937   I     0.25083   0.90374   0.73015   0.00000  Uiso   1.00
I938   I     0.08250   0.76293   0.93652   0.00000  Uiso   1.00
N939   N     0.16665   0.83332   0.95240   0.00000  Uiso   1.00
N940   N     0.16668   0.83334   0.71427   0.00000  Uiso   1.00
O941   O     0.16666   0.77225   0.87154   0.00000  Uiso   1.00
O942   O     0.16667   0.89442   0.79513   0.00000  Uiso   1.00
O943   O     0.16666   0.77226   0.79510   0.00000  Uiso   1.00
O944   O     0.16667   0.89441   0.87157   0.00000  Uiso   1.00
O945   O     0.09058   0.83333   0.86261   0.00000  Uiso   1.00
O946   O     0.24275   0.83334   0.80405   0.00000  Uiso   1.00
O947   O     0.09058   0.83334   0.78617   0.00000  Uiso   1.00
O948   O     0.24275   0.83333   0.88050   0.00000  Uiso   1.00
Zn949  Zn    0.16667   0.83333   0.88437   0.00000  Uiso   1.00
Zn950  Zn    0.16667   0.83334   0.78229   0.00000  Uiso   1.00
C951   C     0.49984   0.75335   0.83341   0.00000  Uiso   1.00
C952   C     0.51321   0.68786   0.87452   0.00000  Uiso   1.00
C953   C     0.50030   0.95749   0.83320   0.00000  Uiso   1.00
C954   C     0.49970   0.70918   0.83346   0.00000  Uiso   1.00
C955   C     0.53207   0.86015   0.69370   0.00000  Uiso   1.00
C956   C     0.46793   0.80651   0.97296   0.00000  Uiso   1.00
C957   C     0.53184   0.85997   0.97935   0.00000  Uiso   1.00
C958   C     0.46816   0.80670   0.68731   0.00000  Uiso   1.00
C959   C     0.50016   0.91331   0.83325   0.00000  Uiso   1.00
C960   C     0.40047   0.83319   0.82147   0.00000  Uiso   1.00
C961   C     0.59953   0.83348   0.84519   0.00000  Uiso   1.00
C962   C     0.34547   0.83253   0.81510   0.00000  Uiso   1.00
C963   C     0.65452   0.83413   0.85157   0.00000  Uiso   1.00
C964   C     0.48645   0.68814   0.79228   0.00000  Uiso   1.00
C965   C     0.51355   0.97853   0.87439   0.00000  Uiso   1.00
C966   C     0.48679   0.97881   0.79215   0.00000  Uiso   1.00
H967   H     0.65844   0.83050   0.78045   0.00000  Uiso   1.00
H968   H     0.34156   0.83617   0.88622   0.00000  Uiso   1.00
H969   H     0.47552   0.70453   0.76036   0.00000  Uiso   1.00
H970   H     0.52448   0.96214   0.90631   0.00000  Uiso   1.00
H971   H     0.47606   0.96264   0.76020   0.00000  Uiso   1.00
H972   H     0.52394   0.70403   0.90647   0.00000  Uiso   1.00
H973   H     0.55724   0.88123   0.96389   0.00000  Uiso   1.00
H974   H     0.44276   0.78544   0.70278   0.00000  Uiso   1.00
I975   I     0.58417   0.90374   0.73015   0.00000  Uiso   1.00
I976   I     0.41583   0.76293   0.93652   0.00000  Uiso   1.00
N977   N     0.49999   0.83332   0.95240   0.00000  Uiso   1.00
N978   N     0.50001   0.83334   0.71427   0.00000  Uiso   1.00
O979   O     0.50000   0.77225   0.87154   0.00000  Uiso   1.00
O980   O     0.50000   0.89442   0.79513   0.00000  Uiso   1.00
O981   O     0.50000   0.77226   0.79510   0.00000  Uiso   1.00
O982   O     0.50000   0.89441   0.87157   0.00000  Uiso   1.00
O983   O     0.42392   0.83333   0.86261   0.00000  Uiso   1.00
O984   O     0.57608   0.83334   0.80405   0.00000  Uiso   1.00
O985   O     0.42392   0.83334   0.78617   0.00000  Uiso   1.00
O986   O     0.57608   0.83333   0.88050   0.00000  Uiso   1.00
Zn987  Zn    0.50000   0.83333   0.88437   0.00000  Uiso   1.00
Zn988  Zn    0.50000   0.83334   0.78229   0.00000  Uiso   1.00
C989   C     0.83317   0.75335   0.83341   0.00000  Uiso   1.00
C990   C     0.84655   0.68786   0.87452   0.00000  Uiso   1.00
C991   C     0.83363   0.95749   0.83320   0.00000  Uiso   1.00
C992   C     0.83303   0.70918   0.83346   0.00000  Uiso   1.00
C993   C     0.86540   0.86015   0.69370   0.00000  Uiso   1.00
C994   C     0.80127   0.80651   0.97296   0.00000  Uiso   1.00
C995   C     0.86517   0.85997   0.97935   0.00000  Uiso   1.00
C996   C     0.80149   0.80670   0.68731   0.00000  Uiso   1.00
C997   C     0.83349   0.91331   0.83325   0.00000  Uiso   1.00
C998   C     0.73381   0.83319   0.82147   0.00000  Uiso   1.00
C999   C     0.93286   0.83348   0.84519   0.00000  Uiso   1.00
C1000  C     0.67881   0.83253   0.81510   0.00000  Uiso   1.00
C1001  C     0.98786   0.83413   0.85157   0.00000  Uiso   1.00
C1002  C     0.81978   0.68814   0.79228   0.00000  Uiso   1.00
C1003  C     0.84689   0.97853   0.87439   0.00000  Uiso   1.00
C1004  C     0.82012   0.97881   0.79215   0.00000  Uiso   1.00
H1005  H     0.99178   0.83050   0.78045   0.00000  Uiso   1.00
H1006  H     0.67489   0.83617   0.88622   0.00000  Uiso   1.00
H1007  H     0.80886   0.70453   0.76036   0.00000  Uiso   1.00
H1008  H     0.85781   0.96214   0.90631   0.00000  Uiso   1.00
H1009  H     0.80939   0.96264   0.76020   0.00000  Uiso   1.00
H1010  H     0.85728   0.70403   0.90647   0.00000  Uiso   1.00
H1011  H     0.89057   0.88123   0.96389   0.00000  Uiso   1.00
H1012  H     0.77609   0.78544   0.70278   0.00000  Uiso   1.00
I1013  I     0.91750   0.90374   0.73015   0.00000  Uiso   1.00
I1014  I     0.74917   0.76293   0.93652   0.00000  Uiso   1.00
N1015  N     0.83332   0.83332   0.95240   0.00000  Uiso   1.00
N1016  N     0.83335   0.83334   0.71427   0.00000  Uiso   1.00
O1017  O     0.83333   0.77225   0.87154   0.00000  Uiso   1.00
O1018  O     0.83334   0.89442   0.79513   0.00000  Uiso   1.00
O1019  O     0.83333   0.77226   0.79510   0.00000  Uiso   1.00
O1020  O     0.83334   0.89441   0.87157   0.00000  Uiso   1.00
O1021  O     0.75725   0.83333   0.86261   0.00000  Uiso   1.00
O1022  O     0.90942   0.83334   0.80405   0.00000  Uiso   1.00
O1023  O     0.75725   0.83334   0.78617   0.00000  Uiso   1.00
O1024  O     0.90942   0.83333   0.88050   0.00000  Uiso   1.00
Zn1025 Zn    0.83333   0.83333   0.88437   0.00000  Uiso   1.00
Zn1026 Zn    0.83333   0.83334   0.78229   0.00000  Uiso   1.00
loop_
_geom_bond_atom_site_label_1
_geom_bond_atom_site_label_2
_geom_bond_distance
_geom_bond_site_symmetry_2
_ccdc_geom_bond_type
C1     C4      1.418   .     S
C1     O29     1.288   .     A
C1     O31     1.285   .     A
C2     H22     1.084   .     S
C2     C4      1.396   .     A
C2     C243    1.370   1_545 S
C3     C9      1.418   .     S
C3     C15     1.398   .     A
C3     C16     1.396   .     A
C4     C14     1.398   .     A
C5     N28     1.381   .     A
C5     I25     2.115   .     S
C5     C691    1.415   1_554 S
C6     N27     1.381   .     A
C6     I26     2.116   .     S
C6     C350    1.415   .     S
C7     N27     1.358   .     A
C7     H23     1.082   .     S
C7     C347    1.415   .     S
C8     H24     1.082   .     S
C8     N28     1.358   .     A
C8     C690    1.415   1_554 S
C9     O30     1.288   .     A
C9     O32     1.285   .     A
C10    O35     1.283   .     A
C10    C12     1.402   .     S
C10    O33     1.283   .     A
C11    C13     1.402   .     S
C11    O36     1.283   .     A
C11    O34     1.283   .     A
C12    C89     1.328   1_455 S
C12    H93     1.088   1_455 S
C13    C50     1.328   .     S
C13    H56     1.088   .     S
C14    H19     1.084   .     S
C14    C244    1.370   1_545 S
C15    H20     1.084   .     S
C15    C116    1.370   .     S
C16    H21     1.084   .     S
C16    C128    1.370   .     S
H17    C50     1.088   .     S
H18    C89     1.088   1_455 S
N27    Zn37    2.020   .     S
N28    Zn38    2.020   .     S
O29    Zn37    2.001   .     S
O30    Zn38    2.001   .     S
O31    Zn38    1.995   .     S
O32    Zn37    1.995   .     S
O33    Zn37    1.973   .     S
O34    Zn38    1.973   .     S
O35    Zn38    1.979   .     S
O36    Zn37    1.979   .     S
C39    C42     1.418   .     S
C39    O67     1.288   .     A
C39    O69     1.285   .     A
C40    H60     1.084   .     S
C40    C42     1.396   .     A
C40    C281    1.370   1_545 S
C41    C47     1.418   .     S
C41    C53     1.398   .     A
C41    C54     1.396   .     A
C42    C52     1.398   .     A
C43    N66     1.381   .     A
C43    I63     2.115   .     S
C43    C729    1.415   1_554 S
C44    N65     1.381   .     A
C44    I64     2.116   .     S
C44    C388    1.415   .     S
C45    N65     1.358   .     A
C45    H61     1.082   .     S
C45    C385    1.415   .     S
C46    H62     1.082   .     S
C46    N66     1.358   .     A
C46    C728    1.415   1_554 S
C47    O68     1.288   .     A
C47    O70     1.285   .     A
C48    O73     1.283   .     A
C48    C50     1.402   .     S
C48    O71     1.283   .     A
C49    C51     1.402   .     S
C49    O74     1.283   .     A
C49    O72     1.283   .     A
C51    C88     1.328   .     S
C51    H94     1.088   .     S
C52    H57     1.084   .     S
C52    C282    1.370   1_545 S
C53    H58     1.084   .     S
C53    C154    1.370   .     S
C54    H59     1.084   .     S
C54    C166    1.370   .     S
H55    C88     1.088   .     S
N65    Zn75    2.020   .     S
N66    Zn76    2.020   .     S
O67    Zn75    2.001   .     S
O68    Zn76    2.001   .     S
O69    Zn76    1.995   .     S
O70    Zn75    1.995   .     S
O71    Zn75    1.973   .     S
O72    Zn76    1.973   .     S
O73    Zn76    1.979   .     S
O74    Zn75    1.979   .     S
C77    C80     1.418   .     S
C77    O105    1.288   .     A
C77    O107    1.285   .     A
C78    H98     1.084   .     S
C78    C80     1.396   .     A
C78    C319    1.370   1_545 S
C79    C85     1.418   .     S
C79    C91     1.398   .     A
C79    C92     1.396   .     A
C80    C90     1.398   .     A
C81    N104    1.381   .     A
C81    I101    2.115   .     S
C81    C767    1.415   1_554 S
C82    N103    1.381   .     A
C82    I102    2.116   .     S
C82    C426    1.415   .     S
C83    N103    1.358   .     A
C83    H99     1.082   .     S
C83    C423    1.415   .     S
C84    H100    1.082   .     S
C84    N104    1.358   .     A
C84    C766    1.415   1_554 S
C85    O106    1.288   .     A
C85    O108    1.285   .     A
C86    O111    1.283   .     A
C86    C88     1.402   .     S
C86    O109    1.283   .     A
C87    C89     1.402   .     S
C87    O112    1.283   .     A
C87    O110    1.283   .     A
C89    C12     1.328   1_655 S
C89    H18     1.088   1_655 S
C90    H95     1.084   .     S
C90    C320    1.370   1_545 S
C91    H96     1.084   .     S
C91    C192    1.370   .     S
C92    H97     1.084   .     S
C92    C204    1.370   .     S
H93    C12     1.088   1_655 S
N103   Zn113   2.020   .     S
N104   Zn114   2.020   .     S
O105   Zn113   2.001   .     S
O106   Zn114   2.001   .     S
O107   Zn114   1.995   .     S
O108   Zn113   1.995   .     S
O109   Zn113   1.973   .     S
O110   Zn114   1.973   .     S
O111   Zn114   1.979   .     S
O112   Zn113   1.979   .     S
C115   C118    1.418   .     S
C115   O143    1.288   .     A
C115   O145    1.285   .     A
C116   H136    1.084   .     S
C116   C118    1.396   .     A
C117   C123    1.418   .     S
C117   C129    1.398   .     A
C117   C130    1.396   .     A
C118   C128    1.398   .     A
C119   N142    1.381   .     A
C119   I139    2.115   .     S
C119   C805    1.415   1_554 S
C120   N141    1.381   .     A
C120   I140    2.116   .     S
C120   C464    1.415   .     S
C121   N141    1.358   .     A
C121   H137    1.082   .     S
C121   C461    1.415   .     S
C122   H138    1.082   .     S
C122   N142    1.358   .     A
C122   C804    1.415   1_554 S
C123   O144    1.288   .     A
C123   O146    1.285   .     A
C124   O149    1.283   .     A
C124   C126    1.402   .     S
C124   O147    1.283   .     A
C125   C127    1.402   .     S
C125   O150    1.283   .     A
C125   O148    1.283   .     A
C126   C203    1.328   1_455 S
C126   H207    1.088   1_455 S
C127   C164    1.328   .     S
C127   H170    1.088   .     S
C128   H133    1.084   .     S
C129   H134    1.084   .     S
C129   C230    1.370   .     S
C130   H135    1.084   .     S
C130   C242    1.370   .     S
H131   C164    1.088   .     S
H132   C203    1.088   1_455 S
N141   Zn151   2.020   .     S
N142   Zn152   2.020   .     S
O143   Zn151   2.001   .     S
O144   Zn152   2.001   .     S
O145   Zn152   1.995   .     S
O146   Zn151   1.995   .     S
O147   Zn151   1.973   .     S
O148   Zn152   1.973   .     S
O149   Zn152   1.979   .     S
O150   Zn151   1.979   .     S
C153   C156    1.418   .     S
C153   O181    1.288   .     A
C153   O183    1.285   .     A
C154   H174    1.084   .     S
C154   C156    1.396   .     A
C155   C161    1.418   .     S
C155   C167    1.398   .     A
C155   C168    1.396   .     A
C156   C166    1.398   .     A
C157   N180    1.381   .     A
C157   I177    2.115   .     S
C157   C843    1.415   1_554 S
C158   N179    1.381   .     A
C158   I178    2.116   .     S
C158   C502    1.415   .     S
C159   N179    1.358   .     A
C159   H175    1.082   .     S
C159   C499    1.415   .     S
C160   H176    1.082   .     S
C160   N180    1.358   .     A
C160   C842    1.415   1_554 S
C161   O182    1.288   .     A
C161   O184    1.285   .     A
C162   O187    1.283   .     A
C162   C164    1.402   .     S
C162   O185    1.283   .     A
C163   C165    1.402   .     S
C163   O188    1.283   .     A
C163   O186    1.283   .     A
C165   C202    1.328   .     S
C165   H208    1.088   .     S
C166   H171    1.084   .     S
C167   H172    1.084   .     S
C167   C268    1.370   .     S
C168   H173    1.084   .     S
C168   C280    1.370   .     S
H169   C202    1.088   .     S
N179   Zn189   2.020   .     S
N180   Zn190   2.020   .     S
O181   Zn189   2.001   .     S
O182   Zn190   2.001   .     S
O183   Zn190   1.995   .     S
O184   Zn189   1.995   .     S
O185   Zn189   1.973   .     S
O186   Zn190   1.973   .     S
O187   Zn190   1.979   .     S
O188   Zn189   1.979   .     S
C191   C194    1.418   .     S
C191   O219    1.288   .     A
C191   O221    1.285   .     A
C192   H212    1.084   .     S
C192   C194    1.396   .     A
C193   C199    1.418   .     S
C193   C205    1.398   .     A
C193   C206    1.396   .     A
C194   C204    1.398   .     A
C195   N218    1.381   .     A
C195   I215    2.115   .     S
C195   C881    1.415   1_554 S
C196   N217    1.381   .     A
C196   I216    2.116   .     S
C196   C540    1.415   .     S
C197   N217    1.358   .     A
C197   H213    1.082   .     S
C197   C537    1.415   .     S
C198   H214    1.082   .     S
C198   N218    1.358   .     A
C198   C880    1.415   1_554 S
C199   O220    1.288   .     A
C199   O222    1.285   .     A
C200   O225    1.283   .     A
C200   C202    1.402   .     S
C200   O223    1.283   .     A
C201   C203    1.402   .     S
C201   O226    1.283   .     A
C201   O224    1.283   .     A
C203   C126    1.328   1_655 S
C203   H132    1.088   1_655 S
C204   H209    1.084   .     S
C205   H210    1.084   .     S
C205   C306    1.370   .     S
C206   H211    1.084   .     S
C206   C318    1.370   .     S
H207   C126    1.088   1_655 S
N217   Zn227   2.020   .     S
N218   Zn228   2.020   .     S
O219   Zn227   2.001   .     S
O220   Zn228   2.001   .     S
O221   Zn228   1.995   .     S
O222   Zn227   1.995   .     S
O223   Zn227   1.973   .     S
O224   Zn228   1.973   .     S
O225   Zn228   1.979   .     S
O226   Zn227   1.979   .     S
C229   C232    1.418   .     S
C229   O257    1.288   .     A
C229   O259    1.285   .     A
C230   H250    1.084   .     S
C230   C232    1.396   .     A
C231   C237    1.418   .     S
C231   C243    1.398   .     A
C231   C244    1.396   .     A
C232   C242    1.398   .     A
C233   N256    1.381   .     A
C233   I253    2.115   .     S
C233   C919    1.415   1_554 S
C234   N255    1.381   .     A
C234   I254    2.116   .     S
C234   C578    1.415   .     S
C235   N255    1.358   .     A
C235   H251    1.082   .     S
C235   C575    1.415   .     S
C236   H252    1.082   .     S
C236   N256    1.358   .     A
C236   C918    1.415   1_554 S
C237   O258    1.288   .     A
C237   O260    1.285   .     A
C238   O263    1.283   .     A
C238   C240    1.402   .     S
C238   O261    1.283   .     A
C239   C241    1.402   .     S
C239   O264    1.283   .     A
C239   O262    1.283   .     A
C240   C317    1.328   1_455 S
C240   H321    1.088   1_455 S
C241   C278    1.328   .     S
C241   H284    1.088   .     S
C242   H247    1.084   .     S
C243   H248    1.084   .     S
C243   C2      1.370   1_565 S
C244   H249    1.084   .     S
C244   C14     1.370   1_565 S
H245   C278    1.088   .     S
H246   C317    1.088   1_455 S
N255   Zn265   2.020   .     S
N256   Zn266   2.020   .     S
O257   Zn265   2.001   .     S
O258   Zn266   2.001   .     S
O259   Zn266   1.995   .     S
O260   Zn265   1.995   .     S
O261   Zn265   1.973   .     S
O262   Zn266   1.973   .     S
O263   Zn266   1.979   .     S
O264   Zn265   1.979   .     S
C267   C270    1.418   .     S
C267   O295    1.288   .     A
C267   O297    1.285   .     A
C268   H288    1.084   .     S
C268   C270    1.396   .     A
C269   C275    1.418   .     S
C269   C281    1.398   .     A
C269   C282    1.396   .     A
C270   C280    1.398   .     A
C271   N294    1.381   .     A
C271   I291    2.115   .     S
C271   C957    1.415   1_554 S
C272   N293    1.381   .     A
C272   I292    2.116   .     S
C272   C616    1.415   .     S
C273   N293    1.358   .     A
C273   H289    1.082   .     S
C273   C613    1.415   .     S
C274   H290    1.082   .     S
C274   N294    1.358   .     A
C274   C956    1.415   1_554 S
C275   O296    1.288   .     A
C275   O298    1.285   .     A
C276   O301    1.283   .     A
C276   C278    1.402   .     S
C276   O299    1.283   .     A
C277   C279    1.402   .     S
C277   O302    1.283   .     A
C277   O300    1.283   .     A
C279   C316    1.328   .     S
C279   H322    1.088   .     S
C280   H285    1.084   .     S
C281   H286    1.084   .     S
C281   C40     1.370   1_565 S
C282   H287    1.084   .     S
C282   C52     1.370   1_565 S
H283   C316    1.088   .     S
N293   Zn303   2.020   .     S
N294   Zn304   2.020   .     S
O295   Zn303   2.001   .     S
O296   Zn304   2.001   .     S
O297   Zn304   1.995   .     S
O298   Zn303   1.995   .     S
O299   Zn303   1.973   .     S
O300   Zn304   1.973   .     S
O301   Zn304   1.979   .     S
O302   Zn303   1.979   .     S
C305   C308    1.418   .     S
C305   O333    1.288   .     A
C305   O335    1.285   .     A
C306   H326    1.084   .     S
C306   C308    1.396   .     A
C307   C313    1.418   .     S
C307   C319    1.398   .     A
C307   C320    1.396   .     A
C308   C318    1.398   .     A
C309   N332    1.381   .     A
C309   I329    2.115   .     S
C309   C995    1.415   1_554 S
C310   N331    1.381   .     A
C310   I330    2.116   .     S
C310   C654    1.415   .     S
C311   N331    1.358   .     A
C311   H327    1.082   .     S
C311   C651    1.415   .     S
C312   H328    1.082   .     S
C312   N332    1.358   .     A
C312   C994    1.415   1_554 S
C313   O334    1.288   .     A
C313   O336    1.285   .     A
C314   O339    1.283   .     A
C314   C316    1.402   .     S
C314   O337    1.283   .     A
C315   C317    1.402   .     S
C315   O340    1.283   .     A
C315   O338    1.283   .     A
C317   C240    1.328   1_655 S
C317   H246    1.088   1_655 S
C318   H323    1.084   .     S
C319   H324    1.084   .     S
C319   C78     1.370   1_565 S
C320   H325    1.084   .     S
C320   C90     1.370   1_565 S
H321   C240    1.088   1_655 S
N331   Zn341   2.020   .     S
N332   Zn342   2.020   .     S
O333   Zn341   2.001   .     S
O334   Zn342   2.001   .     S
O335   Zn342   1.995   .     S
O336   Zn341   1.995   .     S
O337   Zn341   1.973   .     S
O338   Zn342   1.973   .     S
O339   Zn342   1.979   .     S
O340   Zn341   1.979   .     S
C343   C346    1.418   .     S
C343   O371    1.288   .     A
C343   O373    1.285   .     A
C344   H364    1.084   .     S
C344   C346    1.396   .     A
C344   C585    1.370   1_545 S
C345   C351    1.418   .     S
C345   C357    1.398   .     A
C345   C358    1.396   .     A
C346   C356    1.398   .     A
C347   N370    1.381   .     A
C347   I367    2.115   .     S
C348   N369    1.381   .     A
C348   I368    2.116   .     S
C348   C692    1.415   .     S
C349   N369    1.358   .     A
C349   H365    1.082   .     S
C349   C689    1.415   .     S
C350   H366    1.082   .     S
C350   N370    1.358   .     A
C351   O372    1.288   .     A
C351   O374    1.285   .     A
C352   O377    1.283   .     A
C352   C354    1.402   .     S
C352   O375    1.283   .     A
C353   C355    1.402   .     S
C353   O378    1.283   .     A
C353   O376    1.283   .     A
C354   C431    1.328   1_455 S
C354   H435    1.088   1_455 S
C355   C392    1.328   .     S
C355   H398    1.088   .     S
C356   H361    1.084   .     S
C356   C586    1.370   1_545 S
C357   H362    1.084   .     S
C357   C458    1.370   .     S
C358   H363    1.084   .     S
C358   C470    1.370   .     S
H359   C392    1.088   .     S
H360   C431    1.088   1_455 S
N369   Zn379   2.020   .     S
N370   Zn380   2.020   .     S
O371   Zn379   2.001   .     S
O372   Zn380   2.001   .     S
O373   Zn380   1.995   .     S
O374   Zn379   1.995   .     S
O375   Zn379   1.973   .     S
O376   Zn380   1.973   .     S
O377   Zn380   1.979   .     S
O378   Zn379   1.979   .     S
C381   C384    1.418   .     S
C381   O409    1.288   .     A
C381   O411    1.285   .     A
C382   H402    1.084   .     S
C382   C384    1.396   .     A
C382   C623    1.370   1_545 S
C383   C389    1.418   .     S
C383   C395    1.398   .     A
C383   C396    1.396   .     A
C384   C394    1.398   .     A
C385   N408    1.381   .     A
C385   I405    2.115   .     S
C386   N407    1.381   .     A
C386   I406    2.116   .     S
C386   C730    1.415   .     S
C387   N407    1.358   .     A
C387   H403    1.082   .     S
C387   C727    1.415   .     S
C388   H404    1.082   .     S
C388   N408    1.358   .     A
C389   O410    1.288   .     A
C389   O412    1.285   .     A
C390   O415    1.283   .     A
C390   C392    1.402   .     S
C390   O413    1.283   .     A
C391   C393    1.402   .     S
C391   O416    1.283   .     A
C391   O414    1.283   .     A
C393   C430    1.328   .     S
C393   H436    1.088   .     S
C394   H399    1.084   .     S
C394   C624    1.370   1_545 S
C395   H400    1.084   .     S
C395   C496    1.370   .     S
C396   H401    1.084   .     S
C396   C508    1.370   .     S
H397   C430    1.088   .     S
N407   Zn417   2.020   .     S
N408   Zn418   2.020   .     S
O409   Zn417   2.001   .     S
O410   Zn418   2.001   .     S
O411   Zn418   1.995   .     S
O412   Zn417   1.995   .     S
O413   Zn417   1.973   .     S
O414   Zn418   1.973   .     S
O415   Zn418   1.979   .     S
O416   Zn417   1.979   .     S
C419   C422    1.418   .     S
C419   O447    1.288   .     A
C419   O449    1.285   .     A
C420   H440    1.084   .     S
C420   C422    1.396   .     A
C420   C661    1.370   1_545 S
C421   C427    1.418   .     S
C421   C433    1.398   .     A
C421   C434    1.396   .     A
C422   C432    1.398   .     A
C423   N446    1.381   .     A
C423   I443    2.115   .     S
C424   N445    1.381   .     A
C424   I444    2.116   .     S
C424   C768    1.415   .     S
C425   N445    1.358   .     A
C425   H441    1.082   .     S
C425   C765    1.415   .     S
C426   H442    1.082   .     S
C426   N446    1.358   .     A
C427   O448    1.288   .     A
C427   O450    1.285   .     A
C428   O453    1.283   .     A
C428   C430    1.402   .     S
C428   O451    1.283   .     A
C429   C431    1.402   .     S
C429   O454    1.283   .     A
C429   O452    1.283   .     A
C431   C354    1.328   1_655 S
C431   H360    1.088   1_655 S
C432   H437    1.084   .     S
C432   C662    1.370   1_545 S
C433   H438    1.084   .     S
C433   C534    1.370   .     S
C434   H439    1.084   .     S
C434   C546    1.370   .     S
H435   C354    1.088   1_655 S
N445   Zn455   2.020   .     S
N446   Zn456   2.020   .     S
O447   Zn455   2.001   .     S
O448   Zn456   2.001   .     S
O449   Zn456   1.995   .     S
O450   Zn455   1.995   .     S
O451   Zn455   1.973   .     S
O452   Zn456   1.973   .     S
O453   Zn456   1.979   .     S
O454   Zn455   1.979   .     S
C457   C460    1.418   .     S
C457   O485    1.288   .     A
C457   O487    1.285   .     A
C458   H478    1.084   .     S
C458   C460    1.396   .     A
C459   C465    1.418   .     S
C459   C471    1.398   .     A
C459   C472    1.396   .     A
C460   C470    1.398   .     A
C461   N484    1.381   .     A
C461   I481    2.115   .     S
C462   N483    1.381   .     A
C462   I482    2.116   .     S
C462   C806    1.415   .     S
C463   N483    1.358   .     A
C463   H479    1.082   .     S
C463   C803    1.415   .     S
C464   H480    1.082   .     S
C464   N484    1.358   .     A
C465   O486    1.288   .     A
C465   O488    1.285   .     A
C466   O491    1.283   .     A
C466   C468    1.402   .     S
C466   O489    1.283   .     A
C467   C469    1.402   .     S
C467   O492    1.283   .     A
C467   O490    1.283   .     A
C468   C545    1.328   1_455 S
C468   H549    1.088   1_455 S
C469   C506    1.328   .     S
C469   H512    1.088   .     S
C470   H475    1.084   .     S
C471   H476    1.084   .     S
C471   C572    1.370   .     S
C472   H477    1.084   .     S
C472   C584    1.370   .     S
H473   C506    1.088   .     S
H474   C545    1.088   1_455 S
N483   Zn493   2.020   .     S
N484   Zn494   2.020   .     S
O485   Zn493   2.001   .     S
O486   Zn494   2.001   .     S
O487   Zn494   1.995   .     S
O488   Zn493   1.995   .     S
O489   Zn493   1.973   .     S
O490   Zn494   1.973   .     S
O491   Zn494   1.979   .     S
O492   Zn493   1.979   .     S
C495   C498    1.418   .     S
C495   O523    1.288   .     A
C495   O525    1.285   .     A
C496   H516    1.084   .     S
C496   C498    1.396   .     A
C497   C503    1.418   .     S
C497   C509    1.398   .     A
C497   C510    1.396   .     A
C498   C508    1.398   .     A
C499   N522    1.381   .     A
C499   I519    2.115   .     S
C500   N521    1.381   .     A
C500   I520    2.116   .     S
C500   C844    1.415   .     S
C501   N521    1.358   .     A
C501   H517    1.082   .     S
C501   C841    1.415   .     S
C502   H518    1.082   .     S
C502   N522    1.358   .     A
C503   O524    1.288   .     A
C503   O526    1.285   .     A
C504   O529    1.283   .     A
C504   C506    1.402   .     S
C504   O527    1.283   .     A
C505   C507    1.402   .     S
C505   O530    1.283   .     A
C505   O528    1.283   .     A
C507   C544    1.328   .     S
C507   H550    1.088   .     S
C508   H513    1.084   .     S
C509   H514    1.084   .     S
C509   C610    1.370   .     S
C510   H515    1.084   .     S
C510   C622    1.370   .     S
H511   C544    1.088   .     S
N521   Zn531   2.020   .     S
N522   Zn532   2.020   .     S
O523   Zn531   2.001   .     S
O524   Zn532   2.001   .     S
O525   Zn532   1.995   .     S
O526   Zn531   1.995   .     S
O527   Zn531   1.973   .     S
O528   Zn532   1.973   .     S
O529   Zn532   1.979   .     S
O530   Zn531   1.979   .     S
C533   C536    1.418   .     S
C533   O561    1.288   .     A
C533   O563    1.285   .     A
C534   H554    1.084   .     S
C534   C536    1.396   .     A
C535   C541    1.418   .     S
C535   C547    1.398   .     A
C535   C548    1.396   .     A
C536   C546    1.398   .     A
C537   N560    1.381   .     A
C537   I557    2.115   .     S
C538   N559    1.381   .     A
C538   I558    2.116   .     S
C538   C882    1.415   .     S
C539   N559    1.358   .     A
C539   H555    1.082   .     S
C539   C879    1.415   .     S
C540   H556    1.082   .     S
C540   N560    1.358   .     A
C541   O562    1.288   .     A
C541   O564    1.285   .     A
C542   O567    1.283   .     A
C542   C544    1.402   .     S
C542   O565    1.283   .     A
C543   C545    1.402   .     S
C543   O568    1.283   .     A
C543   O566    1.283   .     A
C545   C468    1.328   1_655 S
C545   H474    1.088   1_655 S
C546   H551    1.084   .     S
C547   H552    1.084   .     S
C547   C648    1.370   .     S
C548   H553    1.084   .     S
C548   C660    1.370   .     S
H549   C468    1.088   1_655 S
N559   Zn569   2.020   .     S
N560   Zn570   2.020   .     S
O561   Zn569   2.001   .     S
O562   Zn570   2.001   .     S
O563   Zn570   1.995   .     S
O564   Zn569   1.995   .     S
O565   Zn569   1.973   .     S
O566   Zn570   1.973   .     S
O567   Zn570   1.979   .     S
O568   Zn569   1.979   .     S
C571   C574    1.418   .     S
C571   O599    1.288   .     A
C571   O601    1.285   .     A
C572   H592    1.084   .     S
C572   C574    1.396   .     A
C573   C579    1.418   .     S
C573   C585    1.398   .     A
C573   C586    1.396   .     A
C574   C584    1.398   .     A
C575   N598    1.381   .     A
C575   I595    2.115   .     S
C576   N597    1.381   .     A
C576   I596    2.116   .     S
C576   C920    1.415   .     S
C577   N597    1.358   .     A
C577   H593    1.082   .     S
C577   C917    1.415   .     S
C578   H594    1.082   .     S
C578   N598    1.358   .     A
C579   O600    1.288   .     A
C579   O602    1.285   .     A
C580   O605    1.283   .     A
C580   C582    1.402   .     S
C580   O603    1.283   .     A
C581   C583    1.402   .     S
C581   O606    1.283   .     A
C581   O604    1.283   .     A
C582   C659    1.328   1_455 S
C582   H663    1.088   1_455 S
C583   C620    1.328   .     S
C583   H626    1.088   .     S
C584   H589    1.084   .     S
C585   H590    1.084   .     S
C585   C344    1.370   1_565 S
C586   H591    1.084   .     S
C586   C356    1.370   1_565 S
H587   C620    1.088   .     S
H588   C659    1.088   1_455 S
N597   Zn607   2.020   .     S
N598   Zn608   2.020   .     S
O599   Zn607   2.001   .     S
O600   Zn608   2.001   .     S
O601   Zn608   1.995   .     S
O602   Zn607   1.995   .     S
O603   Zn607   1.973   .     S
O604   Zn608   1.973   .     S
O605   Zn608   1.979   .     S
O606   Zn607   1.979   .     S
C609   C612    1.418   .     S
C609   O637    1.288   .     A
C609   O639    1.285   .     A
C610   H630    1.084   .     S
C610   C612    1.396   .     A
C611   C617    1.418   .     S
C611   C623    1.398   .     A
C611   C624    1.396   .     A
C612   C622    1.398   .     A
C613   N636    1.381   .     A
C613   I633    2.115   .     S
C614   N635    1.381   .     A
C614   I634    2.116   .     S
C614   C958    1.415   .     S
C615   N635    1.358   .     A
C615   H631    1.082   .     S
C615   C955    1.415   .     S
C616   H632    1.082   .     S
C616   N636    1.358   .     A
C617   O638    1.288   .     A
C617   O640    1.285   .     A
C618   O643    1.283   .     A
C618   C620    1.402   .     S
C618   O641    1.283   .     A
C619   C621    1.402   .     S
C619   O644    1.283   .     A
C619   O642    1.283   .     A
C621   C658    1.328   .     S
C621   H664    1.088   .     S
C622   H627    1.084   .     S
C623   H628    1.084   .     S
C623   C382    1.370   1_565 S
C624   H629    1.084   .     S
C624   C394    1.370   1_565 S
H625   C658    1.088   .     S
N635   Zn645   2.020   .     S
N636   Zn646   2.020   .     S
O637   Zn645   2.001   .     S
O638   Zn646   2.001   .     S
O639   Zn646   1.995   .     S
O640   Zn645   1.995   .     S
O641   Zn645   1.973   .     S
O642   Zn646   1.973   .     S
O643   Zn646   1.979   .     S
O644   Zn645   1.979   .     S
C647   C650    1.418   .     S
C647   O675    1.288   .     A
C647   O677    1.285   .     A
C648   H668    1.084   .     S
C648   C650    1.396   .     A
C649   C655    1.418   .     S
C649   C661    1.398   .     A
C649   C662    1.396   .     A
C650   C660    1.398   .     A
C651   N674    1.381   .     A
C651   I671    2.115   .     S
C652   N673    1.381   .     A
C652   I672    2.116   .     S
C652   C996    1.415   .     S
C653   N673    1.358   .     A
C653   H669    1.082   .     S
C653   C993    1.415   .     S
C654   H670    1.082   .     S
C654   N674    1.358   .     A
C655   O676    1.288   .     A
C655   O678    1.285   .     A
C656   O681    1.283   .     A
C656   C658    1.402   .     S
C656   O679    1.283   .     A
C657   C659    1.402   .     S
C657   O682    1.283   .     A
C657   O680    1.283   .     A
C659   C582    1.328   1_655 S
C659   H588    1.088   1_655 S
C660   H665    1.084   .     S
C661   H666    1.084   .     S
C661   C420    1.370   1_565 S
C662   H667    1.084   .     S
C662   C432    1.370   1_565 S
H663   C582    1.088   1_655 S
N673   Zn683   2.020   .     S
N674   Zn684   2.020   .     S
O675   Zn683   2.001   .     S
O676   Zn684   2.001   .     S
O677   Zn684   1.995   .     S
O678   Zn683   1.995   .     S
O679   Zn683   1.973   .     S
O680   Zn684   1.973   .     S
O681   Zn684   1.979   .     S
O682   Zn683   1.979   .     S
C685   C688    1.418   .     S
C685   O713    1.288   .     A
C685   O715    1.285   .     A
C686   H706    1.084   .     S
C686   C688    1.396   .     A
C686   C927    1.370   1_545 S
C687   C693    1.418   .     S
C687   C699    1.398   .     A
C687   C700    1.396   .     A
C688   C698    1.398   .     A
C689   N712    1.381   .     A
C689   I709    2.115   .     S
C690   N711    1.381   .     A
C690   I710    2.116   .     S
C690   C8      1.415   1_556 S
C691   N711    1.358   .     A
C691   H707    1.082   .     S
C691   C5      1.415   1_556 S
C692   H708    1.082   .     S
C692   N712    1.358   .     A
C693   O714    1.288   .     A
C693   O716    1.285   .     A
C694   O719    1.283   .     A
C694   C696    1.402   .     S
C694   O717    1.283   .     A
C695   C697    1.402   .     S
C695   O720    1.283   .     A
C695   O718    1.283   .     A
C696   C773    1.328   1_455 S
C696   H777    1.088   1_455 S
C697   C734    1.328   .     S
C697   H740    1.088   .     S
C698   H703    1.084   .     S
C698   C928    1.370   1_545 S
C699   H704    1.084   .     S
C699   C800    1.370   .     S
C700   H705    1.084   .     S
C700   C812    1.370   .     S
H701   C734    1.088   .     S
H702   C773    1.088   1_455 S
N711   Zn721   2.020   .     S
N712   Zn722   2.020   .     S
O713   Zn721   2.001   .     S
O714   Zn722   2.001   .     S
O715   Zn722   1.995   .     S
O716   Zn721   1.995   .     S
O717   Zn721   1.973   .     S
O718   Zn722   1.973   .     S
O719   Zn722   1.979   .     S
O720   Zn721   1.979   .     S
C723   C726    1.418   .     S
C723   O751    1.288   .     A
C723   O753    1.285   .     A
C724   H744    1.084   .     S
C724   C726    1.396   .     A
C724   C965    1.370   1_545 S
C725   C731    1.418   .     S
C725   C737    1.398   .     A
C725   C738    1.396   .     A
C726   C736    1.398   .     A
C727   N750    1.381   .     A
C727   I747    2.115   .     S
C728   N749    1.381   .     A
C728   I748    2.116   .     S
C728   C46     1.415   1_556 S
C729   N749    1.358   .     A
C729   H745    1.082   .     S
C729   C43     1.415   1_556 S
C730   H746    1.082   .     S
C730   N750    1.358   .     A
C731   O752    1.288   .     A
C731   O754    1.285   .     A
C732   O757    1.283   .     A
C732   C734    1.402   .     S
C732   O755    1.283   .     A
C733   C735    1.402   .     S
C733   O758    1.283   .     A
C733   O756    1.283   .     A
C735   C772    1.328   .     S
C735   H778    1.088   .     S
C736   H741    1.084   .     S
C736   C966    1.370   1_545 S
C737   H742    1.084   .     S
C737   C838    1.370   .     S
C738   H743    1.084   .     S
C738   C850    1.370   .     S
H739   C772    1.088   .     S
N749   Zn759   2.020   .     S
N750   Zn760   2.020   .     S
O751   Zn759   2.001   .     S
O752   Zn760   2.001   .     S
O753   Zn760   1.995   .     S
O754   Zn759   1.995   .     S
O755   Zn759   1.973   .     S
O756   Zn760   1.973   .     S
O757   Zn760   1.979   .     S
O758   Zn759   1.979   .     S
C761   C764    1.418   .     S
C761   O789    1.288   .     A
C761   O791    1.285   .     A
C762   H782    1.084   .     S
C762   C764    1.396   .     A
C762   C1003   1.370   1_545 S
C763   C769    1.418   .     S
C763   C775    1.398   .     A
C763   C776    1.396   .     A
C764   C774    1.398   .     A
C765   N788    1.381   .     A
C765   I785    2.115   .     S
C766   N787    1.381   .     A
C766   I786    2.116   .     S
C766   C84     1.415   1_556 S
C767   N787    1.358   .     A
C767   H783    1.082   .     S
C767   C81     1.415   1_556 S
C768   H784    1.082   .     S
C768   N788    1.358   .     A
C769   O790    1.288   .     A
C769   O792    1.285   .     A
C770   O795    1.283   .     A
C770   C772    1.402   .     S
C770   O793    1.283   .     A
C771   C773    1.402   .     S
C771   O796    1.283   .     A
C771   O794    1.283   .     A
C773   C696    1.328   1_655 S
C773   H702    1.088   1_655 S
C774   H779    1.084   .     S
C774   C1004   1.370   1_545 S
C775   H780    1.084   .     S
C775   C876    1.370   .     S
C776   H781    1.084   .     S
C776   C888    1.370   .     S
H777   C696    1.088   1_655 S
N787   Zn797   2.020   .     S
N788   Zn798   2.020   .     S
O789   Zn797   2.001   .     S
O790   Zn798   2.001   .     S
O791   Zn798   1.995   .     S
O792   Zn797   1.995   .     S
O793   Zn797   1.973   .     S
O794   Zn798   1.973   .     S
O795   Zn798   1.979   .     S
O796   Zn797   1.979   .     S
C799   C802    1.418   .     S
C799   O827    1.288   .     A
C799   O829    1.285   .     A
C800   H820    1.084   .     S
C800   C802    1.396   .     A
C801   C807    1.418   .     S
C801   C813    1.398   .     A
C801   C814    1.396   .     A
C802   C812    1.398   .     A
C803   N826    1.381   .     A
C803   I823    2.115   .     S
C804   N825    1.381   .     A
C804   I824    2.116   .     S
C804   C122    1.415   1_556 S
C805   N825    1.358   .     A
C805   H821    1.082   .     S
C805   C119    1.415   1_556 S
C806   H822    1.082   .     S
C806   N826    1.358   .     A
C807   O828    1.288   .     A
C807   O830    1.285   .     A
C808   O833    1.283   .     A
C808   C810    1.402   .     S
C808   O831    1.283   .     A
C809   C811    1.402   .     S
C809   O834    1.283   .     A
C809   O832    1.283   .     A
C810   C887    1.328   1_455 S
C810   H891    1.088   1_455 S
C811   C848    1.328   .     S
C811   H854    1.088   .     S
C812   H817    1.084   .     S
C813   H818    1.084   .     S
C813   C914    1.370   .     S
C814   H819    1.084   .     S
C814   C926    1.370   .     S
H815   C848    1.088   .     S
H816   C887    1.088   1_455 S
N825   Zn835   2.020   .     S
N826   Zn836   2.020   .     S
O827   Zn835   2.001   .     S
O828   Zn836   2.001   .     S
O829   Zn836   1.995   .     S
O830   Zn835   1.995   .     S
O831   Zn835   1.973   .     S
O832   Zn836   1.973   .     S
O833   Zn836   1.979   .     S
O834   Zn835   1.979   .     S
C837   C840    1.418   .     S
C837   O865    1.288   .     A
C837   O867    1.285   .     A
C838   H858    1.084   .     S
C838   C840    1.396   .     A
C839   C845    1.418   .     S
C839   C851    1.398   .     A
C839   C852    1.396   .     A
C840   C850    1.398   .     A
C841   N864    1.381   .     A
C841   I861    2.115   .     S
C842   N863    1.381   .     A
C842   I862    2.116   .     S
C842   C160    1.415   1_556 S
C843   N863    1.358   .     A
C843   H859    1.082   .     S
C843   C157    1.415   1_556 S
C844   H860    1.082   .     S
C844   N864    1.358   .     A
C845   O866    1.288   .     A
C845   O868    1.285   .     A
C846   O871    1.283   .     A
C846   C848    1.402   .     S
C846   O869    1.283   .     A
C847   C849    1.402   .     S
C847   O872    1.283   .     A
C847   O870    1.283   .     A
C849   C886    1.328   .     S
C849   H892    1.088   .     S
C850   H855    1.084   .     S
C851   H856    1.084   .     S
C851   C952    1.370   .     S
C852   H857    1.084   .     S
C852   C964    1.370   .     S
H853   C886    1.088   .     S
N863   Zn873   2.020   .     S
N864   Zn874   2.020   .     S
O865   Zn873   2.001   .     S
O866   Zn874   2.001   .     S
O867   Zn874   1.995   .     S
O868   Zn873   1.995   .     S
O869   Zn873   1.973   .     S
O870   Zn874   1.973   .     S
O871   Zn874   1.979   .     S
O872   Zn873   1.979   .     S
C875   C878    1.418   .     S
C875   O903    1.288   .     A
C875   O905    1.285   .     A
C876   H896    1.084   .     S
C876   C878    1.396   .     A
C877   C883    1.418   .     S
C877   C889    1.398   .     A
C877   C890    1.396   .     A
C878   C888    1.398   .     A
C879   N902    1.381   .     A
C879   I899    2.115   .     S
C880   N901    1.381   .     A
C880   I900    2.116   .     S
C880   C198    1.415   1_556 S
C881   N901    1.358   .     A
C881   H897    1.082   .     S
C881   C195    1.415   1_556 S
C882   H898    1.082   .     S
C882   N902    1.358   .     A
C883   O904    1.288   .     A
C883   O906    1.285   .     A
C884   O909    1.283   .     A
C884   C886    1.402   .     S
C884   O907    1.283   .     A
C885   C887    1.402   .     S
C885   O910    1.283   .     A
C885   O908    1.283   .     A
C887   C810    1.328   1_655 S
C887   H816    1.088   1_655 S
C888   H893    1.084   .     S
C889   H894    1.084   .     S
C889   C990    1.370   .     S
C890   H895    1.084   .     S
C890   C1002   1.370   .     S
H891   C810    1.088   1_655 S
N901   Zn911   2.020   .     S
N902   Zn912   2.020   .     S
O903   Zn911   2.001   .     S
O904   Zn912   2.001   .     S
O905   Zn912   1.995   .     S
O906   Zn911   1.995   .     S
O907   Zn911   1.973   .     S
O908   Zn912   1.973   .     S
O909   Zn912   1.979   .     S
O910   Zn911   1.979   .     S
C913   C916    1.418   .     S
C913   O941    1.288   .     A
C913   O943    1.285   .     A
C914   H934    1.084   .     S
C914   C916    1.396   .     A
C915   C921    1.418   .     S
C915   C927    1.398   .     A
C915   C928    1.396   .     A
C916   C926    1.398   .     A
C917   N940    1.381   .     A
C917   I937    2.115   .     S
C918   N939    1.381   .     A
C918   I938    2.116   .     S
C918   C236    1.415   1_556 S
C919   N939    1.358   .     A
C919   H935    1.082   .     S
C919   C233    1.415   1_556 S
C920   H936    1.082   .     S
C920   N940    1.358   .     A
C921   O942    1.288   .     A
C921   O944    1.285   .     A
C922   O947    1.283   .     A
C922   C924    1.402   .     S
C922   O945    1.283   .     A
C923   C925    1.402   .     S
C923   O948    1.283   .     A
C923   O946    1.283   .     A
C924   C1001   1.328   1_455 S
C924   H1005   1.088   1_455 S
C925   C962    1.328   .     S
C925   H968    1.088   .     S
C926   H931    1.084   .     S
C927   H932    1.084   .     S
C927   C686    1.370   1_565 S
C928   H933    1.084   .     S
C928   C698    1.370   1_565 S
H929   C962    1.088   .     S
H930   C1001   1.088   1_455 S
N939   Zn949   2.020   .     S
N940   Zn950   2.020   .     S
O941   Zn949   2.001   .     S
O942   Zn950   2.001   .     S
O943   Zn950   1.995   .     S
O944   Zn949   1.995   .     S
O945   Zn949   1.973   .     S
O946   Zn950   1.973   .     S
O947   Zn950   1.979   .     S
O948   Zn949   1.979   .     S
C951   C954    1.418   .     S
C951   O979    1.288   .     A
C951   O981    1.285   .     A
C952   H972    1.084   .     S
C952   C954    1.396   .     A
C953   C959    1.418   .     S
C953   C965    1.398   .     A
C953   C966    1.396   .     A
C954   C964    1.398   .     A
C955   N978    1.381   .     A
C955   I975    2.115   .     S
C956   N977    1.381   .     A
C956   I976    2.116   .     S
C956   C274    1.415   1_556 S
C957   N977    1.358   .     A
C957   H973    1.082   .     S
C957   C271    1.415   1_556 S
C958   H974    1.082   .     S
C958   N978    1.358   .     A
C959   O980    1.288   .     A
C959   O982    1.285   .     A
C960   O985    1.283   .     A
C960   C962    1.402   .     S
C960   O983    1.283   .     A
C961   C963    1.402   .     S
C961   O986    1.283   .     A
C961   O984    1.283   .     A
C963   C1000   1.328   .     S
C963   H1006   1.088   .     S
C964   H969    1.084   .     S
C965   H970    1.084   .     S
C965   C724    1.370   1_565 S
C966   H971    1.084   .     S
C966   C736    1.370   1_565 S
H967   C1000   1.088   .     S
N977   Zn987   2.020   .     S
N978   Zn988   2.020   .     S
O979   Zn987   2.001   .     S
O980   Zn988   2.001   .     S
O981   Zn988   1.995   .     S
O982   Zn987   1.995   .     S
O983   Zn987   1.973   .     S
O984   Zn988   1.973   .     S
O985   Zn988   1.979   .     S
O986   Zn987   1.979   .     S
C989   C992    1.418   .     S
C989   O1017   1.288   .     A
C989   O1019   1.285   .     A
C990   H1010   1.084   .     S
C990   C992    1.396   .     A
C991   C997    1.418   .     S
C991   C1003   1.398   .     A
C991   C1004   1.396   .     A
C992   C1002   1.398   .     A
C993   N1016   1.381   .     A
C993   I1013   2.115   .     S
C994   N1015   1.381   .     A
C994   I1014   2.116   .     S
C994   C312    1.415   1_556 S
C995   N1015   1.358   .     A
C995   H1011   1.082   .     S
C995   C309    1.415   1_556 S
C996   H1012   1.082   .     S
C996   N1016   1.358   .     A
C997   O1018   1.288   .     A
C997   O1020   1.285   .     A
C998   O1023   1.283   .     A
C998   C1000   1.402   .     S
C998   O1021   1.283   .     A
C999   C1001   1.402   .     S
C999   O1024   1.283   .     A
C999   O1022   1.283   .     A
C1001  C924    1.328   1_655 S
C1001  H930    1.088   1_655 S
C1002  H1007   1.084   .     S
C1003  H1008   1.084   .     S
C1003  C762    1.370   1_565 S
C1004  H1009   1.084   .     S
C1004  C774    1.370   1_565 S
H1005  C924    1.088   1_655 S
N1015  Zn1025  2.020   .     S
N1016  Zn1026  2.020   .     S
O1017  Zn1025  2.001   .     S
O1018  Zn1026  2.001   .     S
O1019  Zn1026  1.995   .     S
O1020  Zn1025  1.995   .     S
O1021  Zn1025  1.973   .     S
O1022  Zn1026  1.973   .     S
O1023  Zn1026  1.979   .     S
O1024  Zn1025  1.979   .     S
