data_str_m3_o10_o17_pcu_sym.30
_audit_creation_date              2020-01-03
_audit_creation_method            'Materials Studio'
_symmetry_space_group_name_H-M    'P1'
_symmetry_Int_Tables_number       1
_symmetry_cell_setting            triclinic
loop_
_symmetry_equiv_pos_as_xyz
  x,y,z
_cell_length_a                    23.5878
_cell_length_b                    26.1010
_cell_length_c                    29.7775
_cell_angle_alpha                 93.8987
_cell_angle_beta                  85.7959
_cell_angle_gamma                 93.3335
loop_
_atom_site_label
_atom_site_type_symbol
_atom_site_fract_x
_atom_site_fract_y
_atom_site_fract_z
_atom_site_U_iso_or_equiv
_atom_site_adp_type
_atom_site_occupancy
C1     C     0.18149   0.26473   0.24902   0.00000  Uiso   1.00
C2     C     0.16980   0.21524   0.40947   0.00000  Uiso   1.00
C3     C     0.16528   0.16515   0.11607   0.00000  Uiso   1.00
C4     C     0.16805   0.16819   0.38393   0.00000  Uiso   1.00
C5     C     0.16931   0.21198   0.09635   0.00000  Uiso   1.00
C6     C     0.16403   0.12135   0.40365   0.00000  Uiso   1.00
C7     C     0.17144   0.21278   0.04993   0.00000  Uiso   1.00
C8     C     0.16190   0.12056   0.45007   0.00000  Uiso   1.00
C9     C     0.16635   0.16612   0.02344   0.00000  Uiso   1.00
C10    C     0.16698   0.16721   0.47656   0.00000  Uiso   1.00
C11    C     0.16122   0.11844   0.04378   0.00000  Uiso   1.00
C12    C     0.15184   0.06861   0.25098   0.00000  Uiso   1.00
C13    C     0.17211   0.21489   0.45622   0.00000  Uiso   1.00
C14    C     0.17908   0.25948   0.02969   0.00000  Uiso   1.00
C15    C     0.15425   0.07385   0.47031   0.00000  Uiso   1.00
C16    C     0.17941   0.26064   0.48321   0.00000  Uiso   1.00
C17    C     0.15392   0.07269   0.01679   0.00000  Uiso   1.00
C18    C     0.18841   0.31907   0.25458   0.00000  Uiso   1.00
C19    C     0.14492   0.01426   0.24542   0.00000  Uiso   1.00
C20    C     0.16717   0.16708   0.33626   0.00000  Uiso   1.00
C21    C     0.16616   0.16625   0.16374   0.00000  Uiso   1.00
C22    C     0.16354   0.11810   0.09053   0.00000  Uiso   1.00
H23    H     0.17220   0.24765   0.11727   0.00000  Uiso   1.00
H24    H     0.16113   0.08568   0.38273   0.00000  Uiso   1.00
H25    H     0.18551   0.29500   0.04987   0.00000  Uiso   1.00
H26    H     0.14783   0.03833   0.45013   0.00000  Uiso   1.00
H27    H     0.18660   0.29743   0.46886   0.00000  Uiso   1.00
H28    H     0.14673   0.03590   0.03114   0.00000  Uiso   1.00
I29    I     0.17059   0.04829   0.12280   0.00000  Uiso   1.00
I30    I     0.16275   0.28504   0.37720   0.00000  Uiso   1.00
I31    I     0.26380   0.01322   0.28793   0.00000  Uiso   1.00
I32    I     0.06953   0.32011   0.21208   0.00000  Uiso   1.00
I33    I     0.01133   0.10926   0.18065   0.00000  Uiso   1.00
I34    I     0.32200   0.22408   0.31935   0.00000  Uiso   1.00
N35    N     0.31678   0.15265   0.23783   0.00000  Uiso   1.00
N36    N     0.01656   0.18068   0.26217   0.00000  Uiso   1.00
O37    O     0.12975   0.24619   0.25299   0.00000  Uiso   1.00
O38    O     0.20358   0.08714   0.24702   0.00000  Uiso   1.00
O39    O     0.22613   0.23721   0.24519   0.00000  Uiso   1.00
O40    O     0.10720   0.09613   0.25481   0.00000  Uiso   1.00
O41    O     0.11847   0.17117   0.31997   0.00000  Uiso   1.00
O42    O     0.21486   0.16216   0.18003   0.00000  Uiso   1.00
O43    O     0.21485   0.16219   0.31218   0.00000  Uiso   1.00
O44    O     0.11848   0.17115   0.18783   0.00000  Uiso   1.00
Zn45   Zn    0.10231   0.17266   0.25521   0.00000  Uiso   1.00
Zn46   Zn    0.23102   0.16067   0.24479   0.00000  Uiso   1.00
C47    C     0.51482   0.26473   0.24902   0.00000  Uiso   1.00
C48    C     0.50313   0.21524   0.40947   0.00000  Uiso   1.00
C49    C     0.49861   0.16515   0.11607   0.00000  Uiso   1.00
C50    C     0.50139   0.16819   0.38393   0.00000  Uiso   1.00
C51    C     0.50264   0.21198   0.09635   0.00000  Uiso   1.00
C52    C     0.49736   0.12135   0.40365   0.00000  Uiso   1.00
C53    C     0.50477   0.21278   0.04993   0.00000  Uiso   1.00
C54    C     0.49523   0.12056   0.45007   0.00000  Uiso   1.00
C55    C     0.49969   0.16612   0.02344   0.00000  Uiso   1.00
C56    C     0.50031   0.16721   0.47656   0.00000  Uiso   1.00
C57    C     0.49456   0.11844   0.04378   0.00000  Uiso   1.00
C58    C     0.48518   0.06861   0.25098   0.00000  Uiso   1.00
C59    C     0.50544   0.21489   0.45622   0.00000  Uiso   1.00
C60    C     0.51242   0.25948   0.02969   0.00000  Uiso   1.00
C61    C     0.48758   0.07385   0.47031   0.00000  Uiso   1.00
C62    C     0.51274   0.26064   0.48321   0.00000  Uiso   1.00
C63    C     0.48725   0.07269   0.01679   0.00000  Uiso   1.00
C64    C     0.52174   0.31907   0.25458   0.00000  Uiso   1.00
C65    C     0.47826   0.01426   0.24542   0.00000  Uiso   1.00
C66    C     0.50050   0.16708   0.33626   0.00000  Uiso   1.00
C67    C     0.49950   0.16625   0.16374   0.00000  Uiso   1.00
C68    C     0.49687   0.11810   0.09053   0.00000  Uiso   1.00
H69    H     0.50554   0.24765   0.11727   0.00000  Uiso   1.00
H70    H     0.49446   0.08568   0.38273   0.00000  Uiso   1.00
H71    H     0.51884   0.29500   0.04987   0.00000  Uiso   1.00
H72    H     0.48116   0.03833   0.45013   0.00000  Uiso   1.00
H73    H     0.51994   0.29743   0.46886   0.00000  Uiso   1.00
H74    H     0.48006   0.03590   0.03114   0.00000  Uiso   1.00
I75    I     0.50392   0.04829   0.12280   0.00000  Uiso   1.00
I76    I     0.49608   0.28504   0.37720   0.00000  Uiso   1.00
I77    I     0.59713   0.01322   0.28793   0.00000  Uiso   1.00
I78    I     0.40286   0.32011   0.21208   0.00000  Uiso   1.00
I79    I     0.34466   0.10926   0.18065   0.00000  Uiso   1.00
I80    I     0.65534   0.22408   0.31935   0.00000  Uiso   1.00
N81    N     0.65011   0.15265   0.23783   0.00000  Uiso   1.00
N82    N     0.34989   0.18068   0.26217   0.00000  Uiso   1.00
O83    O     0.46308   0.24619   0.25299   0.00000  Uiso   1.00
O84    O     0.53692   0.08714   0.24702   0.00000  Uiso   1.00
O85    O     0.55946   0.23721   0.24519   0.00000  Uiso   1.00
O86    O     0.44054   0.09613   0.25481   0.00000  Uiso   1.00
O87    O     0.45181   0.17117   0.31997   0.00000  Uiso   1.00
O88    O     0.54819   0.16216   0.18003   0.00000  Uiso   1.00
O89    O     0.54819   0.16219   0.31218   0.00000  Uiso   1.00
O90    O     0.45181   0.17115   0.18783   0.00000  Uiso   1.00
Zn91   Zn    0.43565   0.17266   0.25521   0.00000  Uiso   1.00
Zn92   Zn    0.56435   0.16067   0.24479   0.00000  Uiso   1.00
C93    C     0.84816   0.26473   0.24902   0.00000  Uiso   1.00
C94    C     0.83646   0.21524   0.40947   0.00000  Uiso   1.00
C95    C     0.83195   0.16515   0.11607   0.00000  Uiso   1.00
C96    C     0.83472   0.16819   0.38393   0.00000  Uiso   1.00
C97    C     0.83597   0.21198   0.09635   0.00000  Uiso   1.00
C98    C     0.83069   0.12135   0.40365   0.00000  Uiso   1.00
C99    C     0.83810   0.21278   0.04993   0.00000  Uiso   1.00
C100   C     0.82856   0.12056   0.45007   0.00000  Uiso   1.00
C101   C     0.83302   0.16612   0.02344   0.00000  Uiso   1.00
C102   C     0.83365   0.16721   0.47656   0.00000  Uiso   1.00
C103   C     0.82789   0.11844   0.04378   0.00000  Uiso   1.00
C104   C     0.81851   0.06861   0.25098   0.00000  Uiso   1.00
C105   C     0.83878   0.21489   0.45622   0.00000  Uiso   1.00
C106   C     0.84575   0.25948   0.02969   0.00000  Uiso   1.00
C107   C     0.82092   0.07385   0.47031   0.00000  Uiso   1.00
C108   C     0.84608   0.26064   0.48321   0.00000  Uiso   1.00
C109   C     0.82059   0.07269   0.01679   0.00000  Uiso   1.00
C110   C     0.85508   0.31907   0.25458   0.00000  Uiso   1.00
C111   C     0.81159   0.01426   0.24542   0.00000  Uiso   1.00
C112   C     0.83384   0.16708   0.33626   0.00000  Uiso   1.00
C113   C     0.83283   0.16625   0.16374   0.00000  Uiso   1.00
C114   C     0.83020   0.11810   0.09053   0.00000  Uiso   1.00
H115   H     0.83887   0.24765   0.11727   0.00000  Uiso   1.00
H116   H     0.82780   0.08568   0.38273   0.00000  Uiso   1.00
H117   H     0.85217   0.29500   0.04987   0.00000  Uiso   1.00
H118   H     0.81449   0.03833   0.45013   0.00000  Uiso   1.00
H119   H     0.85327   0.29743   0.46886   0.00000  Uiso   1.00
H120   H     0.81339   0.03590   0.03114   0.00000  Uiso   1.00
I121   I     0.83725   0.04829   0.12280   0.00000  Uiso   1.00
I122   I     0.82941   0.28504   0.37720   0.00000  Uiso   1.00
I123   I     0.93047   0.01322   0.28793   0.00000  Uiso   1.00
I124   I     0.73620   0.32011   0.21208   0.00000  Uiso   1.00
I125   I     0.67800   0.10926   0.18065   0.00000  Uiso   1.00
I126   I     0.98867   0.22408   0.31935   0.00000  Uiso   1.00
N127   N     0.98344   0.15265   0.23783   0.00000  Uiso   1.00
N128   N     0.68322   0.18068   0.26217   0.00000  Uiso   1.00
O129   O     0.79642   0.24619   0.25299   0.00000  Uiso   1.00
O130   O     0.87025   0.08714   0.24702   0.00000  Uiso   1.00
O131   O     0.89280   0.23721   0.24519   0.00000  Uiso   1.00
O132   O     0.77387   0.09613   0.25481   0.00000  Uiso   1.00
O133   O     0.78514   0.17117   0.31997   0.00000  Uiso   1.00
O134   O     0.88153   0.16216   0.18003   0.00000  Uiso   1.00
O135   O     0.88152   0.16219   0.31218   0.00000  Uiso   1.00
O136   O     0.78515   0.17115   0.18783   0.00000  Uiso   1.00
Zn137  Zn    0.76898   0.17266   0.25521   0.00000  Uiso   1.00
Zn138  Zn    0.89769   0.16067   0.24479   0.00000  Uiso   1.00
C139   C     0.18149   0.59806   0.24902   0.00000  Uiso   1.00
C140   C     0.16980   0.54857   0.40947   0.00000  Uiso   1.00
C141   C     0.16528   0.49848   0.11607   0.00000  Uiso   1.00
C142   C     0.16805   0.50152   0.38393   0.00000  Uiso   1.00
C143   C     0.16931   0.54531   0.09635   0.00000  Uiso   1.00
C144   C     0.16403   0.45469   0.40365   0.00000  Uiso   1.00
C145   C     0.17144   0.54611   0.04993   0.00000  Uiso   1.00
C146   C     0.16190   0.45389   0.45007   0.00000  Uiso   1.00
C147   C     0.16635   0.49946   0.02344   0.00000  Uiso   1.00
C148   C     0.16698   0.50054   0.47656   0.00000  Uiso   1.00
C149   C     0.16122   0.45177   0.04378   0.00000  Uiso   1.00
C150   C     0.15184   0.40194   0.25098   0.00000  Uiso   1.00
C151   C     0.17211   0.54822   0.45622   0.00000  Uiso   1.00
C152   C     0.17908   0.59281   0.02969   0.00000  Uiso   1.00
C153   C     0.15425   0.40719   0.47031   0.00000  Uiso   1.00
C154   C     0.17941   0.59397   0.48321   0.00000  Uiso   1.00
C155   C     0.15392   0.40603   0.01679   0.00000  Uiso   1.00
C156   C     0.18841   0.65241   0.25458   0.00000  Uiso   1.00
C157   C     0.14492   0.34759   0.24542   0.00000  Uiso   1.00
C158   C     0.16717   0.50041   0.33626   0.00000  Uiso   1.00
C159   C     0.16616   0.49959   0.16374   0.00000  Uiso   1.00
C160   C     0.16354   0.45143   0.09053   0.00000  Uiso   1.00
H161   H     0.17220   0.58099   0.11727   0.00000  Uiso   1.00
H162   H     0.16113   0.41901   0.38273   0.00000  Uiso   1.00
H163   H     0.18551   0.62834   0.04987   0.00000  Uiso   1.00
H164   H     0.14783   0.37166   0.45013   0.00000  Uiso   1.00
H165   H     0.18660   0.63076   0.46886   0.00000  Uiso   1.00
H166   H     0.14673   0.36924   0.03114   0.00000  Uiso   1.00
I167   I     0.17059   0.38162   0.12280   0.00000  Uiso   1.00
I168   I     0.16275   0.61838   0.37720   0.00000  Uiso   1.00
I169   I     0.26380   0.34655   0.28793   0.00000  Uiso   1.00
I170   I     0.06953   0.65345   0.21208   0.00000  Uiso   1.00
I171   I     0.01133   0.44259   0.18065   0.00000  Uiso   1.00
I172   I     0.32200   0.55741   0.31935   0.00000  Uiso   1.00
N173   N     0.31678   0.48598   0.23783   0.00000  Uiso   1.00
N174   N     0.01656   0.51402   0.26217   0.00000  Uiso   1.00
O175   O     0.12975   0.57952   0.25299   0.00000  Uiso   1.00
O176   O     0.20358   0.42048   0.24702   0.00000  Uiso   1.00
O177   O     0.22613   0.57054   0.24519   0.00000  Uiso   1.00
O178   O     0.10720   0.42946   0.25481   0.00000  Uiso   1.00
O179   O     0.11847   0.50450   0.31997   0.00000  Uiso   1.00
O180   O     0.21486   0.49550   0.18003   0.00000  Uiso   1.00
O181   O     0.21485   0.49552   0.31218   0.00000  Uiso   1.00
O182   O     0.11848   0.50448   0.18783   0.00000  Uiso   1.00
Zn183  Zn    0.10231   0.50600   0.25521   0.00000  Uiso   1.00
Zn184  Zn    0.23102   0.49400   0.24479   0.00000  Uiso   1.00
C185   C     0.51482   0.59806   0.24902   0.00000  Uiso   1.00
C186   C     0.50313   0.54857   0.40947   0.00000  Uiso   1.00
C187   C     0.49861   0.49848   0.11607   0.00000  Uiso   1.00
C188   C     0.50139   0.50152   0.38393   0.00000  Uiso   1.00
C189   C     0.50264   0.54531   0.09635   0.00000  Uiso   1.00
C190   C     0.49736   0.45469   0.40365   0.00000  Uiso   1.00
C191   C     0.50477   0.54611   0.04993   0.00000  Uiso   1.00
C192   C     0.49523   0.45389   0.45007   0.00000  Uiso   1.00
C193   C     0.49969   0.49946   0.02344   0.00000  Uiso   1.00
C194   C     0.50031   0.50054   0.47656   0.00000  Uiso   1.00
C195   C     0.49456   0.45177   0.04378   0.00000  Uiso   1.00
C196   C     0.48518   0.40194   0.25098   0.00000  Uiso   1.00
C197   C     0.50544   0.54822   0.45622   0.00000  Uiso   1.00
C198   C     0.51242   0.59281   0.02969   0.00000  Uiso   1.00
C199   C     0.48758   0.40719   0.47031   0.00000  Uiso   1.00
C200   C     0.51274   0.59397   0.48321   0.00000  Uiso   1.00
C201   C     0.48725   0.40603   0.01679   0.00000  Uiso   1.00
C202   C     0.52174   0.65241   0.25458   0.00000  Uiso   1.00
C203   C     0.47826   0.34759   0.24542   0.00000  Uiso   1.00
C204   C     0.50050   0.50041   0.33626   0.00000  Uiso   1.00
C205   C     0.49950   0.49959   0.16374   0.00000  Uiso   1.00
C206   C     0.49687   0.45143   0.09053   0.00000  Uiso   1.00
H207   H     0.50554   0.58099   0.11727   0.00000  Uiso   1.00
H208   H     0.49446   0.41901   0.38273   0.00000  Uiso   1.00
H209   H     0.51884   0.62834   0.04987   0.00000  Uiso   1.00
H210   H     0.48116   0.37166   0.45013   0.00000  Uiso   1.00
H211   H     0.51994   0.63076   0.46886   0.00000  Uiso   1.00
H212   H     0.48006   0.36924   0.03114   0.00000  Uiso   1.00
I213   I     0.50392   0.38162   0.12280   0.00000  Uiso   1.00
I214   I     0.49608   0.61838   0.37720   0.00000  Uiso   1.00
I215   I     0.59713   0.34655   0.28793   0.00000  Uiso   1.00
I216   I     0.40286   0.65345   0.21208   0.00000  Uiso   1.00
I217   I     0.34466   0.44259   0.18065   0.00000  Uiso   1.00
I218   I     0.65534   0.55741   0.31935   0.00000  Uiso   1.00
N219   N     0.65011   0.48598   0.23783   0.00000  Uiso   1.00
N220   N     0.34989   0.51402   0.26217   0.00000  Uiso   1.00
O221   O     0.46308   0.57952   0.25299   0.00000  Uiso   1.00
O222   O     0.53692   0.42048   0.24702   0.00000  Uiso   1.00
O223   O     0.55946   0.57054   0.24519   0.00000  Uiso   1.00
O224   O     0.44054   0.42946   0.25481   0.00000  Uiso   1.00
O225   O     0.45181   0.50450   0.31997   0.00000  Uiso   1.00
O226   O     0.54819   0.49550   0.18003   0.00000  Uiso   1.00
O227   O     0.54819   0.49552   0.31218   0.00000  Uiso   1.00
O228   O     0.45181   0.50448   0.18783   0.00000  Uiso   1.00
Zn229  Zn    0.43565   0.50600   0.25521   0.00000  Uiso   1.00
Zn230  Zn    0.56435   0.49400   0.24479   0.00000  Uiso   1.00
C231   C     0.84816   0.59806   0.24902   0.00000  Uiso   1.00
C232   C     0.83646   0.54857   0.40947   0.00000  Uiso   1.00
C233   C     0.83195   0.49848   0.11607   0.00000  Uiso   1.00
C234   C     0.83472   0.50152   0.38393   0.00000  Uiso   1.00
C235   C     0.83597   0.54531   0.09635   0.00000  Uiso   1.00
C236   C     0.83069   0.45469   0.40365   0.00000  Uiso   1.00
C237   C     0.83810   0.54611   0.04993   0.00000  Uiso   1.00
C238   C     0.82856   0.45389   0.45007   0.00000  Uiso   1.00
C239   C     0.83302   0.49946   0.02344   0.00000  Uiso   1.00
C240   C     0.83365   0.50054   0.47656   0.00000  Uiso   1.00
C241   C     0.82789   0.45177   0.04378   0.00000  Uiso   1.00
C242   C     0.81851   0.40194   0.25098   0.00000  Uiso   1.00
C243   C     0.83878   0.54822   0.45622   0.00000  Uiso   1.00
C244   C     0.84575   0.59281   0.02969   0.00000  Uiso   1.00
C245   C     0.82092   0.40719   0.47031   0.00000  Uiso   1.00
C246   C     0.84608   0.59397   0.48321   0.00000  Uiso   1.00
C247   C     0.82059   0.40603   0.01679   0.00000  Uiso   1.00
C248   C     0.85508   0.65241   0.25458   0.00000  Uiso   1.00
C249   C     0.81159   0.34759   0.24542   0.00000  Uiso   1.00
C250   C     0.83384   0.50041   0.33626   0.00000  Uiso   1.00
C251   C     0.83283   0.49959   0.16374   0.00000  Uiso   1.00
C252   C     0.83020   0.45143   0.09053   0.00000  Uiso   1.00
H253   H     0.83887   0.58099   0.11727   0.00000  Uiso   1.00
H254   H     0.82780   0.41901   0.38273   0.00000  Uiso   1.00
H255   H     0.85217   0.62834   0.04987   0.00000  Uiso   1.00
H256   H     0.81449   0.37166   0.45013   0.00000  Uiso   1.00
H257   H     0.85327   0.63076   0.46886   0.00000  Uiso   1.00
H258   H     0.81339   0.36924   0.03114   0.00000  Uiso   1.00
I259   I     0.83725   0.38162   0.12280   0.00000  Uiso   1.00
I260   I     0.82941   0.61838   0.37720   0.00000  Uiso   1.00
I261   I     0.93047   0.34655   0.28793   0.00000  Uiso   1.00
I262   I     0.73620   0.65345   0.21208   0.00000  Uiso   1.00
I263   I     0.67800   0.44259   0.18065   0.00000  Uiso   1.00
I264   I     0.98867   0.55741   0.31935   0.00000  Uiso   1.00
N265   N     0.98344   0.48598   0.23783   0.00000  Uiso   1.00
N266   N     0.68322   0.51402   0.26217   0.00000  Uiso   1.00
O267   O     0.79642   0.57952   0.25299   0.00000  Uiso   1.00
O268   O     0.87025   0.42048   0.24702   0.00000  Uiso   1.00
O269   O     0.89280   0.57054   0.24519   0.00000  Uiso   1.00
O270   O     0.77387   0.42946   0.25481   0.00000  Uiso   1.00
O271   O     0.78514   0.50450   0.31997   0.00000  Uiso   1.00
O272   O     0.88153   0.49550   0.18003   0.00000  Uiso   1.00
O273   O     0.88152   0.49552   0.31218   0.00000  Uiso   1.00
O274   O     0.78515   0.50448   0.18783   0.00000  Uiso   1.00
Zn275  Zn    0.76898   0.50600   0.25521   0.00000  Uiso   1.00
Zn276  Zn    0.89769   0.49400   0.24479   0.00000  Uiso   1.00
C277   C     0.18149   0.93139   0.24902   0.00000  Uiso   1.00
C278   C     0.16980   0.88190   0.40947   0.00000  Uiso   1.00
C279   C     0.16528   0.83181   0.11607   0.00000  Uiso   1.00
C280   C     0.16805   0.83485   0.38393   0.00000  Uiso   1.00
C281   C     0.16931   0.87865   0.09635   0.00000  Uiso   1.00
C282   C     0.16403   0.78802   0.40365   0.00000  Uiso   1.00
C283   C     0.17144   0.87944   0.04993   0.00000  Uiso   1.00
C284   C     0.16190   0.78722   0.45007   0.00000  Uiso   1.00
C285   C     0.16635   0.83279   0.02344   0.00000  Uiso   1.00
C286   C     0.16698   0.83388   0.47656   0.00000  Uiso   1.00
C287   C     0.16122   0.78511   0.04378   0.00000  Uiso   1.00
C288   C     0.15184   0.73527   0.25098   0.00000  Uiso   1.00
C289   C     0.17211   0.88156   0.45622   0.00000  Uiso   1.00
C290   C     0.17908   0.92615   0.02969   0.00000  Uiso   1.00
C291   C     0.15425   0.74052   0.47031   0.00000  Uiso   1.00
C292   C     0.17941   0.92731   0.48321   0.00000  Uiso   1.00
C293   C     0.15392   0.73936   0.01679   0.00000  Uiso   1.00
C294   C     0.18841   0.98574   0.25458   0.00000  Uiso   1.00
C295   C     0.14492   0.68093   0.24542   0.00000  Uiso   1.00
C296   C     0.16717   0.83375   0.33626   0.00000  Uiso   1.00
C297   C     0.16616   0.83292   0.16374   0.00000  Uiso   1.00
C298   C     0.16354   0.78476   0.09053   0.00000  Uiso   1.00
H299   H     0.17220   0.91432   0.11727   0.00000  Uiso   1.00
H300   H     0.16113   0.75235   0.38273   0.00000  Uiso   1.00
H301   H     0.18551   0.96167   0.04987   0.00000  Uiso   1.00
H302   H     0.14783   0.70499   0.45013   0.00000  Uiso   1.00
H303   H     0.18660   0.96409   0.46886   0.00000  Uiso   1.00
H304   H     0.14673   0.70257   0.03114   0.00000  Uiso   1.00
I305   I     0.17059   0.71496   0.12280   0.00000  Uiso   1.00
I306   I     0.16275   0.95171   0.37720   0.00000  Uiso   1.00
I307   I     0.26380   0.67989   0.28793   0.00000  Uiso   1.00
I308   I     0.06953   0.98678   0.21208   0.00000  Uiso   1.00
I309   I     0.01133   0.77592   0.18065   0.00000  Uiso   1.00
I310   I     0.32200   0.89074   0.31935   0.00000  Uiso   1.00
N311   N     0.31678   0.81932   0.23783   0.00000  Uiso   1.00
N312   N     0.01656   0.84735   0.26217   0.00000  Uiso   1.00
O313   O     0.12975   0.91286   0.25299   0.00000  Uiso   1.00
O314   O     0.20358   0.75381   0.24702   0.00000  Uiso   1.00
O315   O     0.22613   0.90387   0.24519   0.00000  Uiso   1.00
O316   O     0.10720   0.76279   0.25481   0.00000  Uiso   1.00
O317   O     0.11847   0.83784   0.31997   0.00000  Uiso   1.00
O318   O     0.21486   0.82883   0.18003   0.00000  Uiso   1.00
O319   O     0.21485   0.82885   0.31218   0.00000  Uiso   1.00
O320   O     0.11848   0.83781   0.18783   0.00000  Uiso   1.00
Zn321  Zn    0.10231   0.83933   0.25521   0.00000  Uiso   1.00
Zn322  Zn    0.23102   0.82734   0.24479   0.00000  Uiso   1.00
C323   C     0.51482   0.93139   0.24902   0.00000  Uiso   1.00
C324   C     0.50313   0.88190   0.40947   0.00000  Uiso   1.00
C325   C     0.49861   0.83181   0.11607   0.00000  Uiso   1.00
C326   C     0.50139   0.83485   0.38393   0.00000  Uiso   1.00
C327   C     0.50264   0.87865   0.09635   0.00000  Uiso   1.00
C328   C     0.49736   0.78802   0.40365   0.00000  Uiso   1.00
C329   C     0.50477   0.87944   0.04993   0.00000  Uiso   1.00
C330   C     0.49523   0.78722   0.45007   0.00000  Uiso   1.00
C331   C     0.49969   0.83279   0.02344   0.00000  Uiso   1.00
C332   C     0.50031   0.83388   0.47656   0.00000  Uiso   1.00
C333   C     0.49456   0.78511   0.04378   0.00000  Uiso   1.00
C334   C     0.48518   0.73527   0.25098   0.00000  Uiso   1.00
C335   C     0.50544   0.88156   0.45622   0.00000  Uiso   1.00
C336   C     0.51242   0.92615   0.02969   0.00000  Uiso   1.00
C337   C     0.48758   0.74052   0.47031   0.00000  Uiso   1.00
C338   C     0.51274   0.92731   0.48321   0.00000  Uiso   1.00
C339   C     0.48725   0.73936   0.01679   0.00000  Uiso   1.00
C340   C     0.52174   0.98574   0.25458   0.00000  Uiso   1.00
C341   C     0.47826   0.68093   0.24542   0.00000  Uiso   1.00
C342   C     0.50050   0.83375   0.33626   0.00000  Uiso   1.00
C343   C     0.49950   0.83292   0.16374   0.00000  Uiso   1.00
C344   C     0.49687   0.78476   0.09053   0.00000  Uiso   1.00
H345   H     0.50554   0.91432   0.11727   0.00000  Uiso   1.00
H346   H     0.49446   0.75235   0.38273   0.00000  Uiso   1.00
H347   H     0.51884   0.96167   0.04987   0.00000  Uiso   1.00
H348   H     0.48116   0.70499   0.45013   0.00000  Uiso   1.00
H349   H     0.51994   0.96409   0.46886   0.00000  Uiso   1.00
H350   H     0.48006   0.70257   0.03114   0.00000  Uiso   1.00
I351   I     0.50392   0.71496   0.12280   0.00000  Uiso   1.00
I352   I     0.49608   0.95171   0.37720   0.00000  Uiso   1.00
I353   I     0.59713   0.67989   0.28793   0.00000  Uiso   1.00
I354   I     0.40286   0.98678   0.21208   0.00000  Uiso   1.00
I355   I     0.34466   0.77592   0.18065   0.00000  Uiso   1.00
I356   I     0.65534   0.89074   0.31935   0.00000  Uiso   1.00
N357   N     0.65011   0.81932   0.23783   0.00000  Uiso   1.00
N358   N     0.34989   0.84735   0.26217   0.00000  Uiso   1.00
O359   O     0.46308   0.91286   0.25299   0.00000  Uiso   1.00
O360   O     0.53692   0.75381   0.24702   0.00000  Uiso   1.00
O361   O     0.55946   0.90387   0.24519   0.00000  Uiso   1.00
O362   O     0.44054   0.76279   0.25481   0.00000  Uiso   1.00
O363   O     0.45181   0.83784   0.31997   0.00000  Uiso   1.00
O364   O     0.54819   0.82883   0.18003   0.00000  Uiso   1.00
O365   O     0.54819   0.82885   0.31218   0.00000  Uiso   1.00
O366   O     0.45181   0.83781   0.18783   0.00000  Uiso   1.00
Zn367  Zn    0.43565   0.83933   0.25521   0.00000  Uiso   1.00
Zn368  Zn    0.56435   0.82734   0.24479   0.00000  Uiso   1.00
C369   C     0.84816   0.93139   0.24902   0.00000  Uiso   1.00
C370   C     0.83646   0.88190   0.40947   0.00000  Uiso   1.00
C371   C     0.83195   0.83181   0.11607   0.00000  Uiso   1.00
C372   C     0.83472   0.83485   0.38393   0.00000  Uiso   1.00
C373   C     0.83597   0.87865   0.09635   0.00000  Uiso   1.00
C374   C     0.83069   0.78802   0.40365   0.00000  Uiso   1.00
C375   C     0.83810   0.87944   0.04993   0.00000  Uiso   1.00
C376   C     0.82856   0.78722   0.45007   0.00000  Uiso   1.00
C377   C     0.83302   0.83279   0.02344   0.00000  Uiso   1.00
C378   C     0.83365   0.83388   0.47656   0.00000  Uiso   1.00
C379   C     0.82789   0.78511   0.04378   0.00000  Uiso   1.00
C380   C     0.81851   0.73527   0.25098   0.00000  Uiso   1.00
C381   C     0.83878   0.88156   0.45622   0.00000  Uiso   1.00
C382   C     0.84575   0.92615   0.02969   0.00000  Uiso   1.00
C383   C     0.82092   0.74052   0.47031   0.00000  Uiso   1.00
C384   C     0.84608   0.92731   0.48321   0.00000  Uiso   1.00
C385   C     0.82059   0.73936   0.01679   0.00000  Uiso   1.00
C386   C     0.85508   0.98574   0.25458   0.00000  Uiso   1.00
C387   C     0.81159   0.68093   0.24542   0.00000  Uiso   1.00
C388   C     0.83384   0.83375   0.33626   0.00000  Uiso   1.00
C389   C     0.83283   0.83292   0.16374   0.00000  Uiso   1.00
C390   C     0.83020   0.78476   0.09053   0.00000  Uiso   1.00
H391   H     0.83887   0.91432   0.11727   0.00000  Uiso   1.00
H392   H     0.82780   0.75235   0.38273   0.00000  Uiso   1.00
H393   H     0.85217   0.96167   0.04987   0.00000  Uiso   1.00
H394   H     0.81449   0.70499   0.45013   0.00000  Uiso   1.00
H395   H     0.85327   0.96409   0.46886   0.00000  Uiso   1.00
H396   H     0.81339   0.70257   0.03114   0.00000  Uiso   1.00
I397   I     0.83725   0.71496   0.12280   0.00000  Uiso   1.00
I398   I     0.82941   0.95171   0.37720   0.00000  Uiso   1.00
I399   I     0.93047   0.67989   0.28793   0.00000  Uiso   1.00
I400   I     0.73620   0.98678   0.21208   0.00000  Uiso   1.00
I401   I     0.67800   0.77592   0.18065   0.00000  Uiso   1.00
I402   I     0.98867   0.89074   0.31935   0.00000  Uiso   1.00
N403   N     0.98344   0.81932   0.23783   0.00000  Uiso   1.00
N404   N     0.68322   0.84735   0.26217   0.00000  Uiso   1.00
O405   O     0.79642   0.91286   0.25299   0.00000  Uiso   1.00
O406   O     0.87025   0.75381   0.24702   0.00000  Uiso   1.00
O407   O     0.89280   0.90387   0.24519   0.00000  Uiso   1.00
O408   O     0.77387   0.76279   0.25481   0.00000  Uiso   1.00
O409   O     0.78514   0.83784   0.31997   0.00000  Uiso   1.00
O410   O     0.88153   0.82883   0.18003   0.00000  Uiso   1.00
O411   O     0.88152   0.82885   0.31218   0.00000  Uiso   1.00
O412   O     0.78515   0.83781   0.18783   0.00000  Uiso   1.00
Zn413  Zn    0.76898   0.83933   0.25521   0.00000  Uiso   1.00
Zn414  Zn    0.89769   0.82734   0.24479   0.00000  Uiso   1.00
C415   C     0.18149   0.26473   0.74902   0.00000  Uiso   1.00
C416   C     0.16980   0.21524   0.90947   0.00000  Uiso   1.00
C417   C     0.16528   0.16515   0.61607   0.00000  Uiso   1.00
C418   C     0.16805   0.16819   0.88393   0.00000  Uiso   1.00
C419   C     0.16931   0.21198   0.59635   0.00000  Uiso   1.00
C420   C     0.16403   0.12135   0.90365   0.00000  Uiso   1.00
C421   C     0.17144   0.21278   0.54993   0.00000  Uiso   1.00
C422   C     0.16190   0.12056   0.95007   0.00000  Uiso   1.00
C423   C     0.16635   0.16612   0.52344   0.00000  Uiso   1.00
C424   C     0.16698   0.16721   0.97656   0.00000  Uiso   1.00
C425   C     0.16122   0.11844   0.54378   0.00000  Uiso   1.00
C426   C     0.15184   0.06861   0.75098   0.00000  Uiso   1.00
C427   C     0.17211   0.21489   0.95622   0.00000  Uiso   1.00
C428   C     0.17908   0.25948   0.52969   0.00000  Uiso   1.00
C429   C     0.15425   0.07385   0.97031   0.00000  Uiso   1.00
C430   C     0.17941   0.26064   0.98321   0.00000  Uiso   1.00
C431   C     0.15392   0.07269   0.51679   0.00000  Uiso   1.00
C432   C     0.18841   0.31907   0.75458   0.00000  Uiso   1.00
C433   C     0.14492   0.01426   0.74542   0.00000  Uiso   1.00
C434   C     0.16717   0.16708   0.83626   0.00000  Uiso   1.00
C435   C     0.16616   0.16625   0.66374   0.00000  Uiso   1.00
C436   C     0.16354   0.11810   0.59053   0.00000  Uiso   1.00
H437   H     0.17220   0.24765   0.61727   0.00000  Uiso   1.00
H438   H     0.16113   0.08568   0.88273   0.00000  Uiso   1.00
H439   H     0.18551   0.29500   0.54987   0.00000  Uiso   1.00
H440   H     0.14783   0.03833   0.95013   0.00000  Uiso   1.00
H441   H     0.18660   0.29743   0.96886   0.00000  Uiso   1.00
H442   H     0.14673   0.03590   0.53114   0.00000  Uiso   1.00
I443   I     0.17059   0.04829   0.62280   0.00000  Uiso   1.00
I444   I     0.16275   0.28504   0.87720   0.00000  Uiso   1.00
I445   I     0.26380   0.01322   0.78793   0.00000  Uiso   1.00
I446   I     0.06953   0.32011   0.71208   0.00000  Uiso   1.00
I447   I     0.01133   0.10926   0.68065   0.00000  Uiso   1.00
I448   I     0.32200   0.22408   0.81935   0.00000  Uiso   1.00
N449   N     0.31678   0.15265   0.73783   0.00000  Uiso   1.00
N450   N     0.01656   0.18068   0.76217   0.00000  Uiso   1.00
O451   O     0.12975   0.24619   0.75299   0.00000  Uiso   1.00
O452   O     0.20358   0.08714   0.74702   0.00000  Uiso   1.00
O453   O     0.22613   0.23721   0.74519   0.00000  Uiso   1.00
O454   O     0.10720   0.09613   0.75481   0.00000  Uiso   1.00
O455   O     0.11847   0.17117   0.81997   0.00000  Uiso   1.00
O456   O     0.21486   0.16216   0.68003   0.00000  Uiso   1.00
O457   O     0.21485   0.16219   0.81218   0.00000  Uiso   1.00
O458   O     0.11848   0.17115   0.68783   0.00000  Uiso   1.00
Zn459  Zn    0.10231   0.17266   0.75521   0.00000  Uiso   1.00
Zn460  Zn    0.23102   0.16067   0.74479   0.00000  Uiso   1.00
C461   C     0.51482   0.26473   0.74902   0.00000  Uiso   1.00
C462   C     0.50313   0.21524   0.90947   0.00000  Uiso   1.00
C463   C     0.49861   0.16515   0.61607   0.00000  Uiso   1.00
C464   C     0.50139   0.16819   0.88393   0.00000  Uiso   1.00
C465   C     0.50264   0.21198   0.59635   0.00000  Uiso   1.00
C466   C     0.49736   0.12135   0.90365   0.00000  Uiso   1.00
C467   C     0.50477   0.21278   0.54993   0.00000  Uiso   1.00
C468   C     0.49523   0.12056   0.95007   0.00000  Uiso   1.00
C469   C     0.49969   0.16612   0.52344   0.00000  Uiso   1.00
C470   C     0.50031   0.16721   0.97656   0.00000  Uiso   1.00
C471   C     0.49456   0.11844   0.54378   0.00000  Uiso   1.00
C472   C     0.48518   0.06861   0.75098   0.00000  Uiso   1.00
C473   C     0.50544   0.21489   0.95622   0.00000  Uiso   1.00
C474   C     0.51242   0.25948   0.52969   0.00000  Uiso   1.00
C475   C     0.48758   0.07385   0.97031   0.00000  Uiso   1.00
C476   C     0.51274   0.26064   0.98321   0.00000  Uiso   1.00
C477   C     0.48725   0.07269   0.51679   0.00000  Uiso   1.00
C478   C     0.52174   0.31907   0.75458   0.00000  Uiso   1.00
C479   C     0.47826   0.01426   0.74542   0.00000  Uiso   1.00
C480   C     0.50050   0.16708   0.83626   0.00000  Uiso   1.00
C481   C     0.49950   0.16625   0.66374   0.00000  Uiso   1.00
C482   C     0.49687   0.11810   0.59053   0.00000  Uiso   1.00
H483   H     0.50554   0.24765   0.61727   0.00000  Uiso   1.00
H484   H     0.49446   0.08568   0.88273   0.00000  Uiso   1.00
H485   H     0.51884   0.29500   0.54987   0.00000  Uiso   1.00
H486   H     0.48116   0.03833   0.95013   0.00000  Uiso   1.00
H487   H     0.51994   0.29743   0.96886   0.00000  Uiso   1.00
H488   H     0.48006   0.03590   0.53114   0.00000  Uiso   1.00
I489   I     0.50392   0.04829   0.62280   0.00000  Uiso   1.00
I490   I     0.49608   0.28504   0.87720   0.00000  Uiso   1.00
I491   I     0.59713   0.01322   0.78793   0.00000  Uiso   1.00
I492   I     0.40286   0.32011   0.71208   0.00000  Uiso   1.00
I493   I     0.34466   0.10926   0.68065   0.00000  Uiso   1.00
I494   I     0.65534   0.22408   0.81935   0.00000  Uiso   1.00
N495   N     0.65011   0.15265   0.73783   0.00000  Uiso   1.00
N496   N     0.34989   0.18068   0.76217   0.00000  Uiso   1.00
O497   O     0.46308   0.24619   0.75299   0.00000  Uiso   1.00
O498   O     0.53692   0.08714   0.74702   0.00000  Uiso   1.00
O499   O     0.55946   0.23721   0.74519   0.00000  Uiso   1.00
O500   O     0.44054   0.09613   0.75481   0.00000  Uiso   1.00
O501   O     0.45181   0.17117   0.81997   0.00000  Uiso   1.00
O502   O     0.54819   0.16216   0.68003   0.00000  Uiso   1.00
O503   O     0.54819   0.16219   0.81218   0.00000  Uiso   1.00
O504   O     0.45181   0.17115   0.68783   0.00000  Uiso   1.00
Zn505  Zn    0.43565   0.17266   0.75521   0.00000  Uiso   1.00
Zn506  Zn    0.56435   0.16067   0.74479   0.00000  Uiso   1.00
C507   C     0.84816   0.26473   0.74902   0.00000  Uiso   1.00
C508   C     0.83646   0.21524   0.90947   0.00000  Uiso   1.00
C509   C     0.83195   0.16515   0.61607   0.00000  Uiso   1.00
C510   C     0.83472   0.16819   0.88393   0.00000  Uiso   1.00
C511   C     0.83597   0.21198   0.59635   0.00000  Uiso   1.00
C512   C     0.83069   0.12135   0.90365   0.00000  Uiso   1.00
C513   C     0.83810   0.21278   0.54993   0.00000  Uiso   1.00
C514   C     0.82856   0.12056   0.95007   0.00000  Uiso   1.00
C515   C     0.83302   0.16612   0.52344   0.00000  Uiso   1.00
C516   C     0.83365   0.16721   0.97656   0.00000  Uiso   1.00
C517   C     0.82789   0.11844   0.54378   0.00000  Uiso   1.00
C518   C     0.81851   0.06861   0.75098   0.00000  Uiso   1.00
C519   C     0.83878   0.21489   0.95622   0.00000  Uiso   1.00
C520   C     0.84575   0.25948   0.52969   0.00000  Uiso   1.00
C521   C     0.82092   0.07385   0.97031   0.00000  Uiso   1.00
C522   C     0.84608   0.26064   0.98321   0.00000  Uiso   1.00
C523   C     0.82059   0.07269   0.51679   0.00000  Uiso   1.00
C524   C     0.85508   0.31907   0.75458   0.00000  Uiso   1.00
C525   C     0.81159   0.01426   0.74542   0.00000  Uiso   1.00
C526   C     0.83384   0.16708   0.83626   0.00000  Uiso   1.00
C527   C     0.83283   0.16625   0.66374   0.00000  Uiso   1.00
C528   C     0.83020   0.11810   0.59053   0.00000  Uiso   1.00
H529   H     0.83887   0.24765   0.61727   0.00000  Uiso   1.00
H530   H     0.82780   0.08568   0.88273   0.00000  Uiso   1.00
H531   H     0.85217   0.29500   0.54987   0.00000  Uiso   1.00
H532   H     0.81449   0.03833   0.95013   0.00000  Uiso   1.00
H533   H     0.85327   0.29743   0.96886   0.00000  Uiso   1.00
H534   H     0.81339   0.03590   0.53114   0.00000  Uiso   1.00
I535   I     0.83725   0.04829   0.62280   0.00000  Uiso   1.00
I536   I     0.82941   0.28504   0.87720   0.00000  Uiso   1.00
I537   I     0.93047   0.01322   0.78793   0.00000  Uiso   1.00
I538   I     0.73620   0.32011   0.71208   0.00000  Uiso   1.00
I539   I     0.67800   0.10926   0.68065   0.00000  Uiso   1.00
I540   I     0.98867   0.22408   0.81935   0.00000  Uiso   1.00
N541   N     0.98344   0.15265   0.73783   0.00000  Uiso   1.00
N542   N     0.68322   0.18068   0.76217   0.00000  Uiso   1.00
O543   O     0.79642   0.24619   0.75299   0.00000  Uiso   1.00
O544   O     0.87025   0.08714   0.74702   0.00000  Uiso   1.00
O545   O     0.89280   0.23721   0.74519   0.00000  Uiso   1.00
O546   O     0.77387   0.09613   0.75481   0.00000  Uiso   1.00
O547   O     0.78514   0.17117   0.81997   0.00000  Uiso   1.00
O548   O     0.88153   0.16216   0.68003   0.00000  Uiso   1.00
O549   O     0.88152   0.16219   0.81218   0.00000  Uiso   1.00
O550   O     0.78515   0.17115   0.68783   0.00000  Uiso   1.00
Zn551  Zn    0.76898   0.17266   0.75521   0.00000  Uiso   1.00
Zn552  Zn    0.89769   0.16067   0.74479   0.00000  Uiso   1.00
C553   C     0.18149   0.59806   0.74902   0.00000  Uiso   1.00
C554   C     0.16980   0.54857   0.90947   0.00000  Uiso   1.00
C555   C     0.16528   0.49848   0.61607   0.00000  Uiso   1.00
C556   C     0.16805   0.50152   0.88393   0.00000  Uiso   1.00
C557   C     0.16931   0.54531   0.59635   0.00000  Uiso   1.00
C558   C     0.16403   0.45469   0.90365   0.00000  Uiso   1.00
C559   C     0.17144   0.54611   0.54993   0.00000  Uiso   1.00
C560   C     0.16190   0.45389   0.95007   0.00000  Uiso   1.00
C561   C     0.16635   0.49946   0.52344   0.00000  Uiso   1.00
C562   C     0.16698   0.50054   0.97656   0.00000  Uiso   1.00
C563   C     0.16122   0.45177   0.54378   0.00000  Uiso   1.00
C564   C     0.15184   0.40194   0.75098   0.00000  Uiso   1.00
C565   C     0.17211   0.54822   0.95622   0.00000  Uiso   1.00
C566   C     0.17908   0.59281   0.52969   0.00000  Uiso   1.00
C567   C     0.15425   0.40719   0.97031   0.00000  Uiso   1.00
C568   C     0.17941   0.59397   0.98321   0.00000  Uiso   1.00
C569   C     0.15392   0.40603   0.51679   0.00000  Uiso   1.00
C570   C     0.18841   0.65241   0.75458   0.00000  Uiso   1.00
C571   C     0.14492   0.34759   0.74542   0.00000  Uiso   1.00
C572   C     0.16717   0.50041   0.83626   0.00000  Uiso   1.00
C573   C     0.16616   0.49959   0.66374   0.00000  Uiso   1.00
C574   C     0.16354   0.45143   0.59053   0.00000  Uiso   1.00
H575   H     0.17220   0.58099   0.61727   0.00000  Uiso   1.00
H576   H     0.16113   0.41901   0.88273   0.00000  Uiso   1.00
H577   H     0.18551   0.62834   0.54987   0.00000  Uiso   1.00
H578   H     0.14783   0.37166   0.95013   0.00000  Uiso   1.00
H579   H     0.18660   0.63076   0.96886   0.00000  Uiso   1.00
H580   H     0.14673   0.36924   0.53114   0.00000  Uiso   1.00
I581   I     0.17059   0.38162   0.62280   0.00000  Uiso   1.00
I582   I     0.16275   0.61838   0.87720   0.00000  Uiso   1.00
I583   I     0.26380   0.34655   0.78793   0.00000  Uiso   1.00
I584   I     0.06953   0.65345   0.71208   0.00000  Uiso   1.00
I585   I     0.01133   0.44259   0.68065   0.00000  Uiso   1.00
I586   I     0.32200   0.55741   0.81935   0.00000  Uiso   1.00
N587   N     0.31678   0.48598   0.73783   0.00000  Uiso   1.00
N588   N     0.01656   0.51402   0.76217   0.00000  Uiso   1.00
O589   O     0.12975   0.57952   0.75299   0.00000  Uiso   1.00
O590   O     0.20358   0.42048   0.74702   0.00000  Uiso   1.00
O591   O     0.22613   0.57054   0.74519   0.00000  Uiso   1.00
O592   O     0.10720   0.42946   0.75481   0.00000  Uiso   1.00
O593   O     0.11847   0.50450   0.81997   0.00000  Uiso   1.00
O594   O     0.21486   0.49550   0.68003   0.00000  Uiso   1.00
O595   O     0.21485   0.49552   0.81218   0.00000  Uiso   1.00
O596   O     0.11848   0.50448   0.68783   0.00000  Uiso   1.00
Zn597  Zn    0.10231   0.50600   0.75521   0.00000  Uiso   1.00
Zn598  Zn    0.23102   0.49400   0.74479   0.00000  Uiso   1.00
C599   C     0.51482   0.59806   0.74902   0.00000  Uiso   1.00
C600   C     0.50313   0.54857   0.90947   0.00000  Uiso   1.00
C601   C     0.49861   0.49848   0.61607   0.00000  Uiso   1.00
C602   C     0.50139   0.50152   0.88393   0.00000  Uiso   1.00
C603   C     0.50264   0.54531   0.59635   0.00000  Uiso   1.00
C604   C     0.49736   0.45469   0.90365   0.00000  Uiso   1.00
C605   C     0.50477   0.54611   0.54993   0.00000  Uiso   1.00
C606   C     0.49523   0.45389   0.95007   0.00000  Uiso   1.00
C607   C     0.49969   0.49946   0.52344   0.00000  Uiso   1.00
C608   C     0.50031   0.50054   0.97656   0.00000  Uiso   1.00
C609   C     0.49456   0.45177   0.54378   0.00000  Uiso   1.00
C610   C     0.48518   0.40194   0.75098   0.00000  Uiso   1.00
C611   C     0.50544   0.54822   0.95622   0.00000  Uiso   1.00
C612   C     0.51242   0.59281   0.52969   0.00000  Uiso   1.00
C613   C     0.48758   0.40719   0.97031   0.00000  Uiso   1.00
C614   C     0.51274   0.59397   0.98321   0.00000  Uiso   1.00
C615   C     0.48725   0.40603   0.51679   0.00000  Uiso   1.00
C616   C     0.52174   0.65241   0.75458   0.00000  Uiso   1.00
C617   C     0.47826   0.34759   0.74542   0.00000  Uiso   1.00
C618   C     0.50050   0.50041   0.83626   0.00000  Uiso   1.00
C619   C     0.49950   0.49959   0.66374   0.00000  Uiso   1.00
C620   C     0.49687   0.45143   0.59053   0.00000  Uiso   1.00
H621   H     0.50554   0.58099   0.61727   0.00000  Uiso   1.00
H622   H     0.49446   0.41901   0.88273   0.00000  Uiso   1.00
H623   H     0.51884   0.62834   0.54987   0.00000  Uiso   1.00
H624   H     0.48116   0.37166   0.95013   0.00000  Uiso   1.00
H625   H     0.51994   0.63076   0.96886   0.00000  Uiso   1.00
H626   H     0.48006   0.36924   0.53114   0.00000  Uiso   1.00
I627   I     0.50392   0.38162   0.62280   0.00000  Uiso   1.00
I628   I     0.49608   0.61838   0.87720   0.00000  Uiso   1.00
I629   I     0.59713   0.34655   0.78793   0.00000  Uiso   1.00
I630   I     0.40286   0.65345   0.71208   0.00000  Uiso   1.00
I631   I     0.34466   0.44259   0.68065   0.00000  Uiso   1.00
I632   I     0.65534   0.55741   0.81935   0.00000  Uiso   1.00
N633   N     0.65011   0.48598   0.73783   0.00000  Uiso   1.00
N634   N     0.34989   0.51402   0.76217   0.00000  Uiso   1.00
O635   O     0.46308   0.57952   0.75299   0.00000  Uiso   1.00
O636   O     0.53692   0.42048   0.74702   0.00000  Uiso   1.00
O637   O     0.55946   0.57054   0.74519   0.00000  Uiso   1.00
O638   O     0.44054   0.42946   0.75481   0.00000  Uiso   1.00
O639   O     0.45181   0.50450   0.81997   0.00000  Uiso   1.00
O640   O     0.54819   0.49550   0.68003   0.00000  Uiso   1.00
O641   O     0.54819   0.49552   0.81218   0.00000  Uiso   1.00
O642   O     0.45181   0.50448   0.68783   0.00000  Uiso   1.00
Zn643  Zn    0.43565   0.50600   0.75521   0.00000  Uiso   1.00
Zn644  Zn    0.56435   0.49400   0.74479   0.00000  Uiso   1.00
C645   C     0.84816   0.59806   0.74902   0.00000  Uiso   1.00
C646   C     0.83646   0.54857   0.90947   0.00000  Uiso   1.00
C647   C     0.83195   0.49848   0.61607   0.00000  Uiso   1.00
C648   C     0.83472   0.50152   0.88393   0.00000  Uiso   1.00
C649   C     0.83597   0.54531   0.59635   0.00000  Uiso   1.00
C650   C     0.83069   0.45469   0.90365   0.00000  Uiso   1.00
C651   C     0.83810   0.54611   0.54993   0.00000  Uiso   1.00
C652   C     0.82856   0.45389   0.95007   0.00000  Uiso   1.00
C653   C     0.83302   0.49946   0.52344   0.00000  Uiso   1.00
C654   C     0.83365   0.50054   0.97656   0.00000  Uiso   1.00
C655   C     0.82789   0.45177   0.54378   0.00000  Uiso   1.00
C656   C     0.81851   0.40194   0.75098   0.00000  Uiso   1.00
C657   C     0.83878   0.54822   0.95622   0.00000  Uiso   1.00
C658   C     0.84575   0.59281   0.52969   0.00000  Uiso   1.00
C659   C     0.82092   0.40719   0.97031   0.00000  Uiso   1.00
C660   C     0.84608   0.59397   0.98321   0.00000  Uiso   1.00
C661   C     0.82059   0.40603   0.51679   0.00000  Uiso   1.00
C662   C     0.85508   0.65241   0.75458   0.00000  Uiso   1.00
C663   C     0.81159   0.34759   0.74542   0.00000  Uiso   1.00
C664   C     0.83384   0.50041   0.83626   0.00000  Uiso   1.00
C665   C     0.83283   0.49959   0.66374   0.00000  Uiso   1.00
C666   C     0.83020   0.45143   0.59053   0.00000  Uiso   1.00
H667   H     0.83887   0.58099   0.61727   0.00000  Uiso   1.00
H668   H     0.82780   0.41901   0.88273   0.00000  Uiso   1.00
H669   H     0.85217   0.62834   0.54987   0.00000  Uiso   1.00
H670   H     0.81449   0.37166   0.95013   0.00000  Uiso   1.00
H671   H     0.85327   0.63076   0.96886   0.00000  Uiso   1.00
H672   H     0.81339   0.36924   0.53114   0.00000  Uiso   1.00
I673   I     0.83725   0.38162   0.62280   0.00000  Uiso   1.00
I674   I     0.82941   0.61838   0.87720   0.00000  Uiso   1.00
I675   I     0.93047   0.34655   0.78793   0.00000  Uiso   1.00
I676   I     0.73620   0.65345   0.71208   0.00000  Uiso   1.00
I677   I     0.67800   0.44259   0.68065   0.00000  Uiso   1.00
I678   I     0.98867   0.55741   0.81935   0.00000  Uiso   1.00
N679   N     0.98344   0.48598   0.73783   0.00000  Uiso   1.00
N680   N     0.68322   0.51402   0.76217   0.00000  Uiso   1.00
O681   O     0.79642   0.57952   0.75299   0.00000  Uiso   1.00
O682   O     0.87025   0.42048   0.74702   0.00000  Uiso   1.00
O683   O     0.89280   0.57054   0.74519   0.00000  Uiso   1.00
O684   O     0.77387   0.42946   0.75481   0.00000  Uiso   1.00
O685   O     0.78514   0.50450   0.81997   0.00000  Uiso   1.00
O686   O     0.88153   0.49550   0.68003   0.00000  Uiso   1.00
O687   O     0.88152   0.49552   0.81218   0.00000  Uiso   1.00
O688   O     0.78515   0.50448   0.68783   0.00000  Uiso   1.00
Zn689  Zn    0.76898   0.50600   0.75521   0.00000  Uiso   1.00
Zn690  Zn    0.89769   0.49400   0.74479   0.00000  Uiso   1.00
C691   C     0.18149   0.93139   0.74902   0.00000  Uiso   1.00
C692   C     0.16980   0.88190   0.90947   0.00000  Uiso   1.00
C693   C     0.16528   0.83181   0.61607   0.00000  Uiso   1.00
C694   C     0.16805   0.83485   0.88393   0.00000  Uiso   1.00
C695   C     0.16931   0.87865   0.59635   0.00000  Uiso   1.00
C696   C     0.16403   0.78802   0.90365   0.00000  Uiso   1.00
C697   C     0.17144   0.87944   0.54993   0.00000  Uiso   1.00
C698   C     0.16190   0.78722   0.95007   0.00000  Uiso   1.00
C699   C     0.16635   0.83279   0.52344   0.00000  Uiso   1.00
C700   C     0.16698   0.83388   0.97656   0.00000  Uiso   1.00
C701   C     0.16122   0.78511   0.54378   0.00000  Uiso   1.00
C702   C     0.15184   0.73527   0.75098   0.00000  Uiso   1.00
C703   C     0.17211   0.88156   0.95622   0.00000  Uiso   1.00
C704   C     0.17908   0.92615   0.52969   0.00000  Uiso   1.00
C705   C     0.15425   0.74052   0.97031   0.00000  Uiso   1.00
C706   C     0.17941   0.92731   0.98321   0.00000  Uiso   1.00
C707   C     0.15392   0.73936   0.51679   0.00000  Uiso   1.00
C708   C     0.18841   0.98574   0.75458   0.00000  Uiso   1.00
C709   C     0.14492   0.68093   0.74542   0.00000  Uiso   1.00
C710   C     0.16717   0.83375   0.83626   0.00000  Uiso   1.00
C711   C     0.16616   0.83292   0.66374   0.00000  Uiso   1.00
C712   C     0.16354   0.78476   0.59053   0.00000  Uiso   1.00
H713   H     0.17220   0.91432   0.61727   0.00000  Uiso   1.00
H714   H     0.16113   0.75235   0.88273   0.00000  Uiso   1.00
H715   H     0.18551   0.96167   0.54987   0.00000  Uiso   1.00
H716   H     0.14783   0.70499   0.95013   0.00000  Uiso   1.00
H717   H     0.18660   0.96409   0.96886   0.00000  Uiso   1.00
H718   H     0.14673   0.70257   0.53114   0.00000  Uiso   1.00
I719   I     0.17059   0.71496   0.62280   0.00000  Uiso   1.00
I720   I     0.16275   0.95171   0.87720   0.00000  Uiso   1.00
I721   I     0.26380   0.67989   0.78793   0.00000  Uiso   1.00
I722   I     0.06953   0.98678   0.71208   0.00000  Uiso   1.00
I723   I     0.01133   0.77592   0.68065   0.00000  Uiso   1.00
I724   I     0.32200   0.89074   0.81935   0.00000  Uiso   1.00
N725   N     0.31678   0.81932   0.73783   0.00000  Uiso   1.00
N726   N     0.01656   0.84735   0.76217   0.00000  Uiso   1.00
O727   O     0.12975   0.91286   0.75299   0.00000  Uiso   1.00
O728   O     0.20358   0.75381   0.74702   0.00000  Uiso   1.00
O729   O     0.22613   0.90387   0.74519   0.00000  Uiso   1.00
O730   O     0.10720   0.76279   0.75481   0.00000  Uiso   1.00
O731   O     0.11847   0.83784   0.81997   0.00000  Uiso   1.00
O732   O     0.21486   0.82883   0.68003   0.00000  Uiso   1.00
O733   O     0.21485   0.82885   0.81218   0.00000  Uiso   1.00
O734   O     0.11848   0.83781   0.68783   0.00000  Uiso   1.00
Zn735  Zn    0.10231   0.83933   0.75521   0.00000  Uiso   1.00
Zn736  Zn    0.23102   0.82734   0.74479   0.00000  Uiso   1.00
C737   C     0.51482   0.93139   0.74902   0.00000  Uiso   1.00
C738   C     0.50313   0.88190   0.90947   0.00000  Uiso   1.00
C739   C     0.49861   0.83181   0.61607   0.00000  Uiso   1.00
C740   C     0.50139   0.83485   0.88393   0.00000  Uiso   1.00
C741   C     0.50264   0.87865   0.59635   0.00000  Uiso   1.00
C742   C     0.49736   0.78802   0.90365   0.00000  Uiso   1.00
C743   C     0.50477   0.87944   0.54993   0.00000  Uiso   1.00
C744   C     0.49523   0.78722   0.95007   0.00000  Uiso   1.00
C745   C     0.49969   0.83279   0.52344   0.00000  Uiso   1.00
C746   C     0.50031   0.83388   0.97656   0.00000  Uiso   1.00
C747   C     0.49456   0.78511   0.54378   0.00000  Uiso   1.00
C748   C     0.48518   0.73527   0.75098   0.00000  Uiso   1.00
C749   C     0.50544   0.88156   0.95622   0.00000  Uiso   1.00
C750   C     0.51242   0.92615   0.52969   0.00000  Uiso   1.00
C751   C     0.48758   0.74052   0.97031   0.00000  Uiso   1.00
C752   C     0.51274   0.92731   0.98321   0.00000  Uiso   1.00
C753   C     0.48725   0.73936   0.51679   0.00000  Uiso   1.00
C754   C     0.52174   0.98574   0.75458   0.00000  Uiso   1.00
C755   C     0.47826   0.68093   0.74542   0.00000  Uiso   1.00
C756   C     0.50050   0.83375   0.83626   0.00000  Uiso   1.00
C757   C     0.49950   0.83292   0.66374   0.00000  Uiso   1.00
C758   C     0.49687   0.78476   0.59053   0.00000  Uiso   1.00
H759   H     0.50554   0.91432   0.61727   0.00000  Uiso   1.00
H760   H     0.49446   0.75235   0.88273   0.00000  Uiso   1.00
H761   H     0.51884   0.96167   0.54987   0.00000  Uiso   1.00
H762   H     0.48116   0.70499   0.95013   0.00000  Uiso   1.00
H763   H     0.51994   0.96409   0.96886   0.00000  Uiso   1.00
H764   H     0.48006   0.70257   0.53114   0.00000  Uiso   1.00
I765   I     0.50392   0.71496   0.62280   0.00000  Uiso   1.00
I766   I     0.49608   0.95171   0.87720   0.00000  Uiso   1.00
I767   I     0.59713   0.67989   0.78793   0.00000  Uiso   1.00
I768   I     0.40286   0.98678   0.71208   0.00000  Uiso   1.00
I769   I     0.34466   0.77592   0.68065   0.00000  Uiso   1.00
I770   I     0.65534   0.89074   0.81935   0.00000  Uiso   1.00
N771   N     0.65011   0.81932   0.73783   0.00000  Uiso   1.00
N772   N     0.34989   0.84735   0.76217   0.00000  Uiso   1.00
O773   O     0.46308   0.91286   0.75299   0.00000  Uiso   1.00
O774   O     0.53692   0.75381   0.74702   0.00000  Uiso   1.00
O775   O     0.55946   0.90387   0.74519   0.00000  Uiso   1.00
O776   O     0.44054   0.76279   0.75481   0.00000  Uiso   1.00
O777   O     0.45181   0.83784   0.81997   0.00000  Uiso   1.00
O778   O     0.54819   0.82883   0.68003   0.00000  Uiso   1.00
O779   O     0.54819   0.82885   0.81218   0.00000  Uiso   1.00
O780   O     0.45181   0.83781   0.68783   0.00000  Uiso   1.00
Zn781  Zn    0.43565   0.83933   0.75521   0.00000  Uiso   1.00
Zn782  Zn    0.56435   0.82734   0.74479   0.00000  Uiso   1.00
C783   C     0.84816   0.93139   0.74902   0.00000  Uiso   1.00
C784   C     0.83646   0.88190   0.90947   0.00000  Uiso   1.00
C785   C     0.83195   0.83181   0.61607   0.00000  Uiso   1.00
C786   C     0.83472   0.83485   0.88393   0.00000  Uiso   1.00
C787   C     0.83597   0.87865   0.59635   0.00000  Uiso   1.00
C788   C     0.83069   0.78802   0.90365   0.00000  Uiso   1.00
C789   C     0.83810   0.87944   0.54993   0.00000  Uiso   1.00
C790   C     0.82856   0.78722   0.95007   0.00000  Uiso   1.00
C791   C     0.83302   0.83279   0.52344   0.00000  Uiso   1.00
C792   C     0.83365   0.83388   0.97656   0.00000  Uiso   1.00
C793   C     0.82789   0.78511   0.54378   0.00000  Uiso   1.00
C794   C     0.81851   0.73527   0.75098   0.00000  Uiso   1.00
C795   C     0.83878   0.88156   0.95622   0.00000  Uiso   1.00
C796   C     0.84575   0.92615   0.52969   0.00000  Uiso   1.00
C797   C     0.82092   0.74052   0.97031   0.00000  Uiso   1.00
C798   C     0.84608   0.92731   0.98321   0.00000  Uiso   1.00
C799   C     0.82059   0.73936   0.51679   0.00000  Uiso   1.00
C800   C     0.85508   0.98574   0.75458   0.00000  Uiso   1.00
C801   C     0.81159   0.68093   0.74542   0.00000  Uiso   1.00
C802   C     0.83384   0.83375   0.83626   0.00000  Uiso   1.00
C803   C     0.83283   0.83292   0.66374   0.00000  Uiso   1.00
C804   C     0.83020   0.78476   0.59053   0.00000  Uiso   1.00
H805   H     0.83887   0.91432   0.61727   0.00000  Uiso   1.00
H806   H     0.82780   0.75235   0.88273   0.00000  Uiso   1.00
H807   H     0.85217   0.96167   0.54987   0.00000  Uiso   1.00
H808   H     0.81449   0.70499   0.95013   0.00000  Uiso   1.00
H809   H     0.85327   0.96409   0.96886   0.00000  Uiso   1.00
H810   H     0.81339   0.70257   0.53114   0.00000  Uiso   1.00
I811   I     0.83725   0.71496   0.62280   0.00000  Uiso   1.00
I812   I     0.82941   0.95171   0.87720   0.00000  Uiso   1.00
I813   I     0.93047   0.67989   0.78793   0.00000  Uiso   1.00
I814   I     0.73620   0.98678   0.71208   0.00000  Uiso   1.00
I815   I     0.67800   0.77592   0.68065   0.00000  Uiso   1.00
I816   I     0.98867   0.89074   0.81935   0.00000  Uiso   1.00
N817   N     0.98344   0.81932   0.73783   0.00000  Uiso   1.00
N818   N     0.68322   0.84735   0.76217   0.00000  Uiso   1.00
O819   O     0.79642   0.91286   0.75299   0.00000  Uiso   1.00
O820   O     0.87025   0.75381   0.74702   0.00000  Uiso   1.00
O821   O     0.89280   0.90387   0.74519   0.00000  Uiso   1.00
O822   O     0.77387   0.76279   0.75481   0.00000  Uiso   1.00
O823   O     0.78514   0.83784   0.81997   0.00000  Uiso   1.00
O824   O     0.88153   0.82883   0.68003   0.00000  Uiso   1.00
O825   O     0.88152   0.82885   0.81218   0.00000  Uiso   1.00
O826   O     0.78515   0.83781   0.68783   0.00000  Uiso   1.00
Zn827  Zn    0.76898   0.83933   0.75521   0.00000  Uiso   1.00
Zn828  Zn    0.89769   0.82734   0.74479   0.00000  Uiso   1.00
loop_
_geom_bond_atom_site_label_1
_geom_bond_atom_site_label_2
_geom_bond_distance
_geom_bond_site_symmetry_2
_ccdc_geom_bond_type
C1     O37     1.287   .     A
C1     C18     1.418   .     S
C1     O39     1.303   .     A
C2     C4      1.400   .     A
C2     I30     2.137   .     S
C2     C13     1.398   .     A
C3     C21     1.419   .     S
C3     C5      1.387   .     A
C3     C22     1.400   .     A
C4     C20     1.419   .     S
C4     C6      1.387   .     A
C5     C7      1.381   .     A
C5     H23     1.086   .     S
C6     H24     1.086   .     S
C6     C8      1.381   .     A
C7     C9      1.409   .     A
C7     C14     1.393   .     A
C8     C10     1.409   .     A
C8     C15     1.393   .     A
C9     C11     1.416   .     A
C9     C424    1.397   1_554 S
C10    C13     1.416   .     A
C10    C423    1.397   .     S
C11    C22     1.398   .     A
C11    C17     1.403   .     A
C12    O40     1.303   .     A
C12    C19     1.418   .     S
C12    O38     1.287   .     A
C13    C16     1.403   .     A
C14    H25     1.079   .     S
C14    C430    1.386   1_554 S
C15    H26     1.079   .     S
C15    C431    1.386   .     S
C16    H27     1.077   .     S
C16    C428    1.386   .     S
C17    H28     1.077   .     S
C17    C429    1.386   1_554 S
C18    C157    1.356   .     S
C18    I169    2.163   .     S
C19    C294    1.356   1_545 S
C19    I308    2.163   1_545 S
C20    O41     1.292   .     A
C20    O43     1.297   .     A
C21    O44     1.297   .     A
C21    O42     1.292   .     A
C22    I29     2.137   .     S
I31    C294    2.163   1_545 S
I32    C157    2.163   .     S
I33    N127    2.068   1_455 S
I34    N82     2.068   .     S
N35    Zn46    2.040   .     S
N35    I79     2.068   .     S
N35    N82     1.271   .     S
N36    Zn45    2.040   .     S
N36    I126    2.068   1_455 S
N36    N127    1.271   1_455 S
O37    Zn45    1.993   .     S
O38    Zn46    1.993   .     S
O39    Zn46    2.007   .     S
O40    Zn45    2.007   .     S
O41    Zn45    1.996   .     S
O42    Zn46    1.996   .     S
O43    Zn46    2.013   .     S
O44    Zn45    2.013   .     S
C47    O83     1.287   .     A
C47    C64     1.418   .     S
C47    O85     1.303   .     A
C48    C50     1.400   .     A
C48    I76     2.137   .     S
C48    C59     1.398   .     A
C49    C67     1.419   .     S
C49    C51     1.387   .     A
C49    C68     1.400   .     A
C50    C66     1.419   .     S
C50    C52     1.387   .     A
C51    C53     1.381   .     A
C51    H69     1.086   .     S
C52    H70     1.086   .     S
C52    C54     1.381   .     A
C53    C55     1.409   .     A
C53    C60     1.393   .     A
C54    C56     1.409   .     A
C54    C61     1.393   .     A
C55    C57     1.416   .     A
C55    C470    1.397   1_554 S
C56    C59     1.416   .     A
C56    C469    1.397   .     S
C57    C68     1.398   .     A
C57    C63     1.403   .     A
C58    O86     1.303   .     A
C58    C65     1.418   .     S
C58    O84     1.287   .     A
C59    C62     1.403   .     A
C60    H71     1.079   .     S
C60    C476    1.386   1_554 S
C61    H72     1.079   .     S
C61    C477    1.386   .     S
C62    H73     1.077   .     S
C62    C474    1.386   .     S
C63    H74     1.077   .     S
C63    C475    1.386   1_554 S
C64    C203    1.356   .     S
C64    I215    2.163   .     S
C65    C340    1.356   1_545 S
C65    I354    2.163   1_545 S
C66    O87     1.292   .     A
C66    O89     1.297   .     A
C67    O90     1.297   .     A
C67    O88     1.292   .     A
C68    I75     2.137   .     S
I77    C340    2.163   1_545 S
I78    C203    2.163   .     S
I80    N128    2.068   .     S
N81    Zn92    2.040   .     S
N81    I125    2.068   .     S
N81    N128    1.271   .     S
N82    Zn91    2.040   .     S
O83    Zn91    1.993   .     S
O84    Zn92    1.993   .     S
O85    Zn92    2.007   .     S
O86    Zn91    2.007   .     S
O87    Zn91    1.996   .     S
O88    Zn92    1.996   .     S
O89    Zn92    2.013   .     S
O90    Zn91    2.013   .     S
C93    O129    1.287   .     A
C93    C110    1.418   .     S
C93    O131    1.303   .     A
C94    C96     1.400   .     A
C94    I122    2.137   .     S
C94    C105    1.398   .     A
C95    C113    1.419   .     S
C95    C97     1.387   .     A
C95    C114    1.400   .     A
C96    C112    1.419   .     S
C96    C98     1.387   .     A
C97    C99     1.381   .     A
C97    H115    1.086   .     S
C98    H116    1.086   .     S
C98    C100    1.381   .     A
C99    C101    1.409   .     A
C99    C106    1.393   .     A
C100   C102    1.409   .     A
C100   C107    1.393   .     A
C101   C103    1.416   .     A
C101   C516    1.397   1_554 S
C102   C105    1.416   .     A
C102   C515    1.397   .     S
C103   C114    1.398   .     A
C103   C109    1.403   .     A
C104   O132    1.303   .     A
C104   C111    1.418   .     S
C104   O130    1.287   .     A
C105   C108    1.403   .     A
C106   H117    1.079   .     S
C106   C522    1.386   1_554 S
C107   H118    1.079   .     S
C107   C523    1.386   .     S
C108   H119    1.077   .     S
C108   C520    1.386   .     S
C109   H120    1.077   .     S
C109   C521    1.386   1_554 S
C110   C249    1.356   .     S
C110   I261    2.163   .     S
C111   C386    1.356   1_545 S
C111   I400    2.163   1_545 S
C112   O133    1.292   .     A
C112   O135    1.297   .     A
C113   O136    1.297   .     A
C113   O134    1.292   .     A
C114   I121    2.137   .     S
I123   C386    2.163   1_545 S
I124   C249    2.163   .     S
I126   N36     2.068   1_655 S
N127   Zn138   2.040   .     S
N127   I33     2.068   1_655 S
N127   N36     1.271   1_655 S
N128   Zn137   2.040   .     S
O129   Zn137   1.993   .     S
O130   Zn138   1.993   .     S
O131   Zn138   2.007   .     S
O132   Zn137   2.007   .     S
O133   Zn137   1.996   .     S
O134   Zn138   1.996   .     S
O135   Zn138   2.013   .     S
O136   Zn137   2.013   .     S
C139   O175    1.287   .     A
C139   C156    1.418   .     S
C139   O177    1.303   .     A
C140   C142    1.400   .     A
C140   I168    2.137   .     S
C140   C151    1.398   .     A
C141   C159    1.419   .     S
C141   C143    1.387   .     A
C141   C160    1.400   .     A
C142   C158    1.419   .     S
C142   C144    1.387   .     A
C143   C145    1.381   .     A
C143   H161    1.086   .     S
C144   H162    1.086   .     S
C144   C146    1.381   .     A
C145   C147    1.409   .     A
C145   C152    1.393   .     A
C146   C148    1.409   .     A
C146   C153    1.393   .     A
C147   C149    1.416   .     A
C147   C562    1.397   1_554 S
C148   C151    1.416   .     A
C148   C561    1.397   .     S
C149   C160    1.398   .     A
C149   C155    1.403   .     A
C150   O178    1.303   .     A
C150   C157    1.418   .     S
C150   O176    1.287   .     A
C151   C154    1.403   .     A
C152   H163    1.079   .     S
C152   C568    1.386   1_554 S
C153   H164    1.079   .     S
C153   C569    1.386   .     S
C154   H165    1.077   .     S
C154   C566    1.386   .     S
C155   H166    1.077   .     S
C155   C567    1.386   1_554 S
C156   C295    1.356   .     S
C156   I307    2.163   .     S
C158   O179    1.292   .     A
C158   O181    1.297   .     A
C159   O182    1.297   .     A
C159   O180    1.292   .     A
C160   I167    2.137   .     S
I170   C295    2.163   .     S
I171   N265    2.068   1_455 S
I172   N220    2.068   .     S
N173   Zn184   2.040   .     S
N173   I217    2.068   .     S
N173   N220    1.271   .     S
N174   Zn183   2.040   .     S
N174   I264    2.068   1_455 S
N174   N265    1.271   1_455 S
O175   Zn183   1.993   .     S
O176   Zn184   1.993   .     S
O177   Zn184   2.007   .     S
O178   Zn183   2.007   .     S
O179   Zn183   1.996   .     S
O180   Zn184   1.996   .     S
O181   Zn184   2.013   .     S
O182   Zn183   2.013   .     S
C185   O221    1.287   .     A
C185   C202    1.418   .     S
C185   O223    1.303   .     A
C186   C188    1.400   .     A
C186   I214    2.137   .     S
C186   C197    1.398   .     A
C187   C205    1.419   .     S
C187   C189    1.387   .     A
C187   C206    1.400   .     A
C188   C204    1.419   .     S
C188   C190    1.387   .     A
C189   C191    1.381   .     A
C189   H207    1.086   .     S
C190   H208    1.086   .     S
C190   C192    1.381   .     A
C191   C193    1.409   .     A
C191   C198    1.393   .     A
C192   C194    1.409   .     A
C192   C199    1.393   .     A
C193   C195    1.416   .     A
C193   C608    1.397   1_554 S
C194   C197    1.416   .     A
C194   C607    1.397   .     S
C195   C206    1.398   .     A
C195   C201    1.403   .     A
C196   O224    1.303   .     A
C196   C203    1.418   .     S
C196   O222    1.287   .     A
C197   C200    1.403   .     A
C198   H209    1.079   .     S
C198   C614    1.386   1_554 S
C199   H210    1.079   .     S
C199   C615    1.386   .     S
C200   H211    1.077   .     S
C200   C612    1.386   .     S
C201   H212    1.077   .     S
C201   C613    1.386   1_554 S
C202   C341    1.356   .     S
C202   I353    2.163   .     S
C204   O225    1.292   .     A
C204   O227    1.297   .     A
C205   O228    1.297   .     A
C205   O226    1.292   .     A
C206   I213    2.137   .     S
I216   C341    2.163   .     S
I218   N266    2.068   .     S
N219   Zn230   2.040   .     S
N219   I263    2.068   .     S
N219   N266    1.271   .     S
N220   Zn229   2.040   .     S
O221   Zn229   1.993   .     S
O222   Zn230   1.993   .     S
O223   Zn230   2.007   .     S
O224   Zn229   2.007   .     S
O225   Zn229   1.996   .     S
O226   Zn230   1.996   .     S
O227   Zn230   2.013   .     S
O228   Zn229   2.013   .     S
C231   O267    1.287   .     A
C231   C248    1.418   .     S
C231   O269    1.303   .     A
C232   C234    1.400   .     A
C232   I260    2.137   .     S
C232   C243    1.398   .     A
C233   C251    1.419   .     S
C233   C235    1.387   .     A
C233   C252    1.400   .     A
C234   C250    1.419   .     S
C234   C236    1.387   .     A
C235   C237    1.381   .     A
C235   H253    1.086   .     S
C236   H254    1.086   .     S
C236   C238    1.381   .     A
C237   C239    1.409   .     A
C237   C244    1.393   .     A
C238   C240    1.409   .     A
C238   C245    1.393   .     A
C239   C241    1.416   .     A
C239   C654    1.397   1_554 S
C240   C243    1.416   .     A
C240   C653    1.397   .     S
C241   C252    1.398   .     A
C241   C247    1.403   .     A
C242   O270    1.303   .     A
C242   C249    1.418   .     S
C242   O268    1.287   .     A
C243   C246    1.403   .     A
C244   H255    1.079   .     S
C244   C660    1.386   1_554 S
C245   H256    1.079   .     S
C245   C661    1.386   .     S
C246   H257    1.077   .     S
C246   C658    1.386   .     S
C247   H258    1.077   .     S
C247   C659    1.386   1_554 S
C248   C387    1.356   .     S
C248   I399    2.163   .     S
C250   O271    1.292   .     A
C250   O273    1.297   .     A
C251   O274    1.297   .     A
C251   O272    1.292   .     A
C252   I259    2.137   .     S
I262   C387    2.163   .     S
I264   N174    2.068   1_655 S
N265   Zn276   2.040   .     S
N265   I171    2.068   1_655 S
N265   N174    1.271   1_655 S
N266   Zn275   2.040   .     S
O267   Zn275   1.993   .     S
O268   Zn276   1.993   .     S
O269   Zn276   2.007   .     S
O270   Zn275   2.007   .     S
O271   Zn275   1.996   .     S
O272   Zn276   1.996   .     S
O273   Zn276   2.013   .     S
O274   Zn275   2.013   .     S
C277   O313    1.287   .     A
C277   C294    1.418   .     S
C277   O315    1.303   .     A
C278   C280    1.400   .     A
C278   I306    2.137   .     S
C278   C289    1.398   .     A
C279   C297    1.419   .     S
C279   C281    1.387   .     A
C279   C298    1.400   .     A
C280   C296    1.419   .     S
C280   C282    1.387   .     A
C281   C283    1.381   .     A
C281   H299    1.086   .     S
C282   H300    1.086   .     S
C282   C284    1.381   .     A
C283   C285    1.409   .     A
C283   C290    1.393   .     A
C284   C286    1.409   .     A
C284   C291    1.393   .     A
C285   C287    1.416   .     A
C285   C700    1.397   1_554 S
C286   C289    1.416   .     A
C286   C699    1.397   .     S
C287   C298    1.398   .     A
C287   C293    1.403   .     A
C288   O316    1.303   .     A
C288   C295    1.418   .     S
C288   O314    1.287   .     A
C289   C292    1.403   .     A
C290   H301    1.079   .     S
C290   C706    1.386   1_554 S
C291   H302    1.079   .     S
C291   C707    1.386   .     S
C292   H303    1.077   .     S
C292   C704    1.386   .     S
C293   H304    1.077   .     S
C293   C705    1.386   1_554 S
C294   C19     1.356   1_565 S
C294   I31     2.163   1_565 S
C296   O317    1.292   .     A
C296   O319    1.297   .     A
C297   O320    1.297   .     A
C297   O318    1.292   .     A
C298   I305    2.137   .     S
I308   C19     2.163   1_565 S
I309   N403    2.068   1_455 S
I310   N358    2.068   .     S
N311   Zn322   2.040   .     S
N311   I355    2.068   .     S
N311   N358    1.271   .     S
N312   Zn321   2.040   .     S
N312   I402    2.068   1_455 S
N312   N403    1.271   1_455 S
O313   Zn321   1.993   .     S
O314   Zn322   1.993   .     S
O315   Zn322   2.007   .     S
O316   Zn321   2.007   .     S
O317   Zn321   1.996   .     S
O318   Zn322   1.996   .     S
O319   Zn322   2.013   .     S
O320   Zn321   2.013   .     S
C323   O359    1.287   .     A
C323   C340    1.418   .     S
C323   O361    1.303   .     A
C324   C326    1.400   .     A
C324   I352    2.137   .     S
C324   C335    1.398   .     A
C325   C343    1.419   .     S
C325   C327    1.387   .     A
C325   C344    1.400   .     A
C326   C342    1.419   .     S
C326   C328    1.387   .     A
C327   C329    1.381   .     A
C327   H345    1.086   .     S
C328   H346    1.086   .     S
C328   C330    1.381   .     A
C329   C331    1.409   .     A
C329   C336    1.393   .     A
C330   C332    1.409   .     A
C330   C337    1.393   .     A
C331   C333    1.416   .     A
C331   C746    1.397   1_554 S
C332   C335    1.416   .     A
C332   C745    1.397   .     S
C333   C344    1.398   .     A
C333   C339    1.403   .     A
C334   O362    1.303   .     A
C334   C341    1.418   .     S
C334   O360    1.287   .     A
C335   C338    1.403   .     A
C336   H347    1.079   .     S
C336   C752    1.386   1_554 S
C337   H348    1.079   .     S
C337   C753    1.386   .     S
C338   H349    1.077   .     S
C338   C750    1.386   .     S
C339   H350    1.077   .     S
C339   C751    1.386   1_554 S
C340   C65     1.356   1_565 S
C340   I77     2.163   1_565 S
C342   O363    1.292   .     A
C342   O365    1.297   .     A
C343   O366    1.297   .     A
C343   O364    1.292   .     A
C344   I351    2.137   .     S
I354   C65     2.163   1_565 S
I356   N404    2.068   .     S
N357   Zn368   2.040   .     S
N357   I401    2.068   .     S
N357   N404    1.271   .     S
N358   Zn367   2.040   .     S
O359   Zn367   1.993   .     S
O360   Zn368   1.993   .     S
O361   Zn368   2.007   .     S
O362   Zn367   2.007   .     S
O363   Zn367   1.996   .     S
O364   Zn368   1.996   .     S
O365   Zn368   2.013   .     S
O366   Zn367   2.013   .     S
C369   O405    1.287   .     A
C369   C386    1.418   .     S
C369   O407    1.303   .     A
C370   C372    1.400   .     A
C370   I398    2.137   .     S
C370   C381    1.398   .     A
C371   C389    1.419   .     S
C371   C373    1.387   .     A
C371   C390    1.400   .     A
C372   C388    1.419   .     S
C372   C374    1.387   .     A
C373   C375    1.381   .     A
C373   H391    1.086   .     S
C374   H392    1.086   .     S
C374   C376    1.381   .     A
C375   C377    1.409   .     A
C375   C382    1.393   .     A
C376   C378    1.409   .     A
C376   C383    1.393   .     A
C377   C379    1.416   .     A
C377   C792    1.397   1_554 S
C378   C381    1.416   .     A
C378   C791    1.397   .     S
C379   C390    1.398   .     A
C379   C385    1.403   .     A
C380   O408    1.303   .     A
C380   C387    1.418   .     S
C380   O406    1.287   .     A
C381   C384    1.403   .     A
C382   H393    1.079   .     S
C382   C798    1.386   1_554 S
C383   H394    1.079   .     S
C383   C799    1.386   .     S
C384   H395    1.077   .     S
C384   C796    1.386   .     S
C385   H396    1.077   .     S
C385   C797    1.386   1_554 S
C386   C111    1.356   1_565 S
C386   I123    2.163   1_565 S
C388   O409    1.292   .     A
C388   O411    1.297   .     A
C389   O412    1.297   .     A
C389   O410    1.292   .     A
C390   I397    2.137   .     S
I400   C111    2.163   1_565 S
I402   N312    2.068   1_655 S
N403   Zn414   2.040   .     S
N403   I309    2.068   1_655 S
N403   N312    1.271   1_655 S
N404   Zn413   2.040   .     S
O405   Zn413   1.993   .     S
O406   Zn414   1.993   .     S
O407   Zn414   2.007   .     S
O408   Zn413   2.007   .     S
O409   Zn413   1.996   .     S
O410   Zn414   1.996   .     S
O411   Zn414   2.013   .     S
O412   Zn413   2.013   .     S
C415   O451    1.287   .     A
C415   C432    1.418   .     S
C415   O453    1.303   .     A
C416   C418    1.400   .     A
C416   I444    2.137   .     S
C416   C427    1.398   .     A
C417   C435    1.419   .     S
C417   C419    1.387   .     A
C417   C436    1.400   .     A
C418   C434    1.419   .     S
C418   C420    1.387   .     A
C419   C421    1.381   .     A
C419   H437    1.086   .     S
C420   H438    1.086   .     S
C420   C422    1.381   .     A
C421   C423    1.409   .     A
C421   C428    1.393   .     A
C422   C424    1.409   .     A
C422   C429    1.393   .     A
C423   C425    1.416   .     A
C424   C427    1.416   .     A
C424   C9      1.397   1_556 S
C425   C436    1.398   .     A
C425   C431    1.403   .     A
C426   O454    1.303   .     A
C426   C433    1.418   .     S
C426   O452    1.287   .     A
C427   C430    1.403   .     A
C428   H439    1.079   .     S
C429   H440    1.079   .     S
C429   C17     1.386   1_556 S
C430   H441    1.077   .     S
C430   C14     1.386   1_556 S
C431   H442    1.077   .     S
C432   C571    1.356   .     S
C432   I583    2.163   .     S
C433   C708    1.356   1_545 S
C433   I722    2.163   1_545 S
C434   O455    1.292   .     A
C434   O457    1.297   .     A
C435   O458    1.297   .     A
C435   O456    1.292   .     A
C436   I443    2.137   .     S
I445   C708    2.163   1_545 S
I446   C571    2.163   .     S
I447   N541    2.068   1_455 S
I448   N496    2.068   .     S
N449   Zn460   2.040   .     S
N449   I493    2.068   .     S
N449   N496    1.271   .     S
N450   Zn459   2.040   .     S
N450   I540    2.068   1_455 S
N450   N541    1.271   1_455 S
O451   Zn459   1.993   .     S
O452   Zn460   1.993   .     S
O453   Zn460   2.007   .     S
O454   Zn459   2.007   .     S
O455   Zn459   1.996   .     S
O456   Zn460   1.996   .     S
O457   Zn460   2.013   .     S
O458   Zn459   2.013   .     S
C461   O497    1.287   .     A
C461   C478    1.418   .     S
C461   O499    1.303   .     A
C462   C464    1.400   .     A
C462   I490    2.137   .     S
C462   C473    1.398   .     A
C463   C481    1.419   .     S
C463   C465    1.387   .     A
C463   C482    1.400   .     A
C464   C480    1.419   .     S
C464   C466    1.387   .     A
C465   C467    1.381   .     A
C465   H483    1.086   .     S
C466   H484    1.086   .     S
C466   C468    1.381   .     A
C467   C469    1.409   .     A
C467   C474    1.393   .     A
C468   C470    1.409   .     A
C468   C475    1.393   .     A
C469   C471    1.416   .     A
C470   C473    1.416   .     A
C470   C55     1.397   1_556 S
C471   C482    1.398   .     A
C471   C477    1.403   .     A
C472   O500    1.303   .     A
C472   C479    1.418   .     S
C472   O498    1.287   .     A
C473   C476    1.403   .     A
C474   H485    1.079   .     S
C475   H486    1.079   .     S
C475   C63     1.386   1_556 S
C476   H487    1.077   .     S
C476   C60     1.386   1_556 S
C477   H488    1.077   .     S
C478   C617    1.356   .     S
C478   I629    2.163   .     S
C479   C754    1.356   1_545 S
C479   I768    2.163   1_545 S
C480   O501    1.292   .     A
C480   O503    1.297   .     A
C481   O504    1.297   .     A
C481   O502    1.292   .     A
C482   I489    2.137   .     S
I491   C754    2.163   1_545 S
I492   C617    2.163   .     S
I494   N542    2.068   .     S
N495   Zn506   2.040   .     S
N495   I539    2.068   .     S
N495   N542    1.271   .     S
N496   Zn505   2.040   .     S
O497   Zn505   1.993   .     S
O498   Zn506   1.993   .     S
O499   Zn506   2.007   .     S
O500   Zn505   2.007   .     S
O501   Zn505   1.996   .     S
O502   Zn506   1.996   .     S
O503   Zn506   2.013   .     S
O504   Zn505   2.013   .     S
C507   O543    1.287   .     A
C507   C524    1.418   .     S
C507   O545    1.303   .     A
C508   C510    1.400   .     A
C508   I536    2.137   .     S
C508   C519    1.398   .     A
C509   C527    1.419   .     S
C509   C511    1.387   .     A
C509   C528    1.400   .     A
C510   C526    1.419   .     S
C510   C512    1.387   .     A
C511   C513    1.381   .     A
C511   H529    1.086   .     S
C512   H530    1.086   .     S
C512   C514    1.381   .     A
C513   C515    1.409   .     A
C513   C520    1.393   .     A
C514   C516    1.409   .     A
C514   C521    1.393   .     A
C515   C517    1.416   .     A
C516   C519    1.416   .     A
C516   C101    1.397   1_556 S
C517   C528    1.398   .     A
C517   C523    1.403   .     A
C518   O546    1.303   .     A
C518   C525    1.418   .     S
C518   O544    1.287   .     A
C519   C522    1.403   .     A
C520   H531    1.079   .     S
C521   H532    1.079   .     S
C521   C109    1.386   1_556 S
C522   H533    1.077   .     S
C522   C106    1.386   1_556 S
C523   H534    1.077   .     S
C524   C663    1.356   .     S
C524   I675    2.163   .     S
C525   C800    1.356   1_545 S
C525   I814    2.163   1_545 S
C526   O547    1.292   .     A
C526   O549    1.297   .     A
C527   O550    1.297   .     A
C527   O548    1.292   .     A
C528   I535    2.137   .     S
I537   C800    2.163   1_545 S
I538   C663    2.163   .     S
I540   N450    2.068   1_655 S
N541   Zn552   2.040   .     S
N541   I447    2.068   1_655 S
N541   N450    1.271   1_655 S
N542   Zn551   2.040   .     S
O543   Zn551   1.993   .     S
O544   Zn552   1.993   .     S
O545   Zn552   2.007   .     S
O546   Zn551   2.007   .     S
O547   Zn551   1.996   .     S
O548   Zn552   1.996   .     S
O549   Zn552   2.013   .     S
O550   Zn551   2.013   .     S
C553   O589    1.287   .     A
C553   C570    1.418   .     S
C553   O591    1.303   .     A
C554   C556    1.400   .     A
C554   I582    2.137   .     S
C554   C565    1.398   .     A
C555   C573    1.419   .     S
C555   C557    1.387   .     A
C555   C574    1.400   .     A
C556   C572    1.419   .     S
C556   C558    1.387   .     A
C557   C559    1.381   .     A
C557   H575    1.086   .     S
C558   H576    1.086   .     S
C558   C560    1.381   .     A
C559   C561    1.409   .     A
C559   C566    1.393   .     A
C560   C562    1.409   .     A
C560   C567    1.393   .     A
C561   C563    1.416   .     A
C562   C565    1.416   .     A
C562   C147    1.397   1_556 S
C563   C574    1.398   .     A
C563   C569    1.403   .     A
C564   O592    1.303   .     A
C564   C571    1.418   .     S
C564   O590    1.287   .     A
C565   C568    1.403   .     A
C566   H577    1.079   .     S
C567   H578    1.079   .     S
C567   C155    1.386   1_556 S
C568   H579    1.077   .     S
C568   C152    1.386   1_556 S
C569   H580    1.077   .     S
C570   C709    1.356   .     S
C570   I721    2.163   .     S
C572   O593    1.292   .     A
C572   O595    1.297   .     A
C573   O596    1.297   .     A
C573   O594    1.292   .     A
C574   I581    2.137   .     S
I584   C709    2.163   .     S
I585   N679    2.068   1_455 S
I586   N634    2.068   .     S
N587   Zn598   2.040   .     S
N587   I631    2.068   .     S
N587   N634    1.271   .     S
N588   Zn597   2.040   .     S
N588   I678    2.068   1_455 S
N588   N679    1.271   1_455 S
O589   Zn597   1.993   .     S
O590   Zn598   1.993   .     S
O591   Zn598   2.007   .     S
O592   Zn597   2.007   .     S
O593   Zn597   1.996   .     S
O594   Zn598   1.996   .     S
O595   Zn598   2.013   .     S
O596   Zn597   2.013   .     S
C599   O635    1.287   .     A
C599   C616    1.418   .     S
C599   O637    1.303   .     A
C600   C602    1.400   .     A
C600   I628    2.137   .     S
C600   C611    1.398   .     A
C601   C619    1.419   .     S
C601   C603    1.387   .     A
C601   C620    1.400   .     A
C602   C618    1.419   .     S
C602   C604    1.387   .     A
C603   C605    1.381   .     A
C603   H621    1.086   .     S
C604   H622    1.086   .     S
C604   C606    1.381   .     A
C605   C607    1.409   .     A
C605   C612    1.393   .     A
C606   C608    1.409   .     A
C606   C613    1.393   .     A
C607   C609    1.416   .     A
C608   C611    1.416   .     A
C608   C193    1.397   1_556 S
C609   C620    1.398   .     A
C609   C615    1.403   .     A
C610   O638    1.303   .     A
C610   C617    1.418   .     S
C610   O636    1.287   .     A
C611   C614    1.403   .     A
C612   H623    1.079   .     S
C613   H624    1.079   .     S
C613   C201    1.386   1_556 S
C614   H625    1.077   .     S
C614   C198    1.386   1_556 S
C615   H626    1.077   .     S
C616   C755    1.356   .     S
C616   I767    2.163   .     S
C618   O639    1.292   .     A
C618   O641    1.297   .     A
C619   O642    1.297   .     A
C619   O640    1.292   .     A
C620   I627    2.137   .     S
I630   C755    2.163   .     S
I632   N680    2.068   .     S
N633   Zn644   2.040   .     S
N633   I677    2.068   .     S
N633   N680    1.271   .     S
N634   Zn643   2.040   .     S
O635   Zn643   1.993   .     S
O636   Zn644   1.993   .     S
O637   Zn644   2.007   .     S
O638   Zn643   2.007   .     S
O639   Zn643   1.996   .     S
O640   Zn644   1.996   .     S
O641   Zn644   2.013   .     S
O642   Zn643   2.013   .     S
C645   O681    1.287   .     A
C645   C662    1.418   .     S
C645   O683    1.303   .     A
C646   C648    1.400   .     A
C646   I674    2.137   .     S
C646   C657    1.398   .     A
C647   C665    1.419   .     S
C647   C649    1.387   .     A
C647   C666    1.400   .     A
C648   C664    1.419   .     S
C648   C650    1.387   .     A
C649   C651    1.381   .     A
C649   H667    1.086   .     S
C650   H668    1.086   .     S
C650   C652    1.381   .     A
C651   C653    1.409   .     A
C651   C658    1.393   .     A
C652   C654    1.409   .     A
C652   C659    1.393   .     A
C653   C655    1.416   .     A
C654   C657    1.416   .     A
C654   C239    1.397   1_556 S
C655   C666    1.398   .     A
C655   C661    1.403   .     A
C656   O684    1.303   .     A
C656   C663    1.418   .     S
C656   O682    1.287   .     A
C657   C660    1.403   .     A
C658   H669    1.079   .     S
C659   H670    1.079   .     S
C659   C247    1.386   1_556 S
C660   H671    1.077   .     S
C660   C244    1.386   1_556 S
C661   H672    1.077   .     S
C662   C801    1.356   .     S
C662   I813    2.163   .     S
C664   O685    1.292   .     A
C664   O687    1.297   .     A
C665   O688    1.297   .     A
C665   O686    1.292   .     A
C666   I673    2.137   .     S
I676   C801    2.163   .     S
I678   N588    2.068   1_655 S
N679   Zn690   2.040   .     S
N679   I585    2.068   1_655 S
N679   N588    1.271   1_655 S
N680   Zn689   2.040   .     S
O681   Zn689   1.993   .     S
O682   Zn690   1.993   .     S
O683   Zn690   2.007   .     S
O684   Zn689   2.007   .     S
O685   Zn689   1.996   .     S
O686   Zn690   1.996   .     S
O687   Zn690   2.013   .     S
O688   Zn689   2.013   .     S
C691   O727    1.287   .     A
C691   C708    1.418   .     S
C691   O729    1.303   .     A
C692   C694    1.400   .     A
C692   I720    2.137   .     S
C692   C703    1.398   .     A
C693   C711    1.419   .     S
C693   C695    1.387   .     A
C693   C712    1.400   .     A
C694   C710    1.419   .     S
C694   C696    1.387   .     A
C695   C697    1.381   .     A
C695   H713    1.086   .     S
C696   H714    1.086   .     S
C696   C698    1.381   .     A
C697   C699    1.409   .     A
C697   C704    1.393   .     A
C698   C700    1.409   .     A
C698   C705    1.393   .     A
C699   C701    1.416   .     A
C700   C703    1.416   .     A
C700   C285    1.397   1_556 S
C701   C712    1.398   .     A
C701   C707    1.403   .     A
C702   O730    1.303   .     A
C702   C709    1.418   .     S
C702   O728    1.287   .     A
C703   C706    1.403   .     A
C704   H715    1.079   .     S
C705   H716    1.079   .     S
C705   C293    1.386   1_556 S
C706   H717    1.077   .     S
C706   C290    1.386   1_556 S
C707   H718    1.077   .     S
C708   C433    1.356   1_565 S
C708   I445    2.163   1_565 S
C710   O731    1.292   .     A
C710   O733    1.297   .     A
C711   O734    1.297   .     A
C711   O732    1.292   .     A
C712   I719    2.137   .     S
I722   C433    2.163   1_565 S
I723   N817    2.068   1_455 S
I724   N772    2.068   .     S
N725   Zn736   2.040   .     S
N725   I769    2.068   .     S
N725   N772    1.271   .     S
N726   Zn735   2.040   .     S
N726   I816    2.068   1_455 S
N726   N817    1.271   1_455 S
O727   Zn735   1.993   .     S
O728   Zn736   1.993   .     S
O729   Zn736   2.007   .     S
O730   Zn735   2.007   .     S
O731   Zn735   1.996   .     S
O732   Zn736   1.996   .     S
O733   Zn736   2.013   .     S
O734   Zn735   2.013   .     S
C737   O773    1.287   .     A
C737   C754    1.418   .     S
C737   O775    1.303   .     A
C738   C740    1.400   .     A
C738   I766    2.137   .     S
C738   C749    1.398   .     A
C739   C757    1.419   .     S
C739   C741    1.387   .     A
C739   C758    1.400   .     A
C740   C756    1.419   .     S
C740   C742    1.387   .     A
C741   C743    1.381   .     A
C741   H759    1.086   .     S
C742   H760    1.086   .     S
C742   C744    1.381   .     A
C743   C745    1.409   .     A
C743   C750    1.393   .     A
C744   C746    1.409   .     A
C744   C751    1.393   .     A
C745   C747    1.416   .     A
C746   C749    1.416   .     A
C746   C331    1.397   1_556 S
C747   C758    1.398   .     A
C747   C753    1.403   .     A
C748   O776    1.303   .     A
C748   C755    1.418   .     S
C748   O774    1.287   .     A
C749   C752    1.403   .     A
C750   H761    1.079   .     S
C751   H762    1.079   .     S
C751   C339    1.386   1_556 S
C752   H763    1.077   .     S
C752   C336    1.386   1_556 S
C753   H764    1.077   .     S
C754   C479    1.356   1_565 S
C754   I491    2.163   1_565 S
C756   O777    1.292   .     A
C756   O779    1.297   .     A
C757   O780    1.297   .     A
C757   O778    1.292   .     A
C758   I765    2.137   .     S
I768   C479    2.163   1_565 S
I770   N818    2.068   .     S
N771   Zn782   2.040   .     S
N771   I815    2.068   .     S
N771   N818    1.271   .     S
N772   Zn781   2.040   .     S
O773   Zn781   1.993   .     S
O774   Zn782   1.993   .     S
O775   Zn782   2.007   .     S
O776   Zn781   2.007   .     S
O777   Zn781   1.996   .     S
O778   Zn782   1.996   .     S
O779   Zn782   2.013   .     S
O780   Zn781   2.013   .     S
C783   O819    1.287   .     A
C783   C800    1.418   .     S
C783   O821    1.303   .     A
C784   C786    1.400   .     A
C784   I812    2.137   .     S
C784   C795    1.398   .     A
C785   C803    1.419   .     S
C785   C787    1.387   .     A
C785   C804    1.400   .     A
C786   C802    1.419   .     S
C786   C788    1.387   .     A
C787   C789    1.381   .     A
C787   H805    1.086   .     S
C788   H806    1.086   .     S
C788   C790    1.381   .     A
C789   C791    1.409   .     A
C789   C796    1.393   .     A
C790   C792    1.409   .     A
C790   C797    1.393   .     A
C791   C793    1.416   .     A
C792   C795    1.416   .     A
C792   C377    1.397   1_556 S
C793   C804    1.398   .     A
C793   C799    1.403   .     A
C794   O822    1.303   .     A
C794   C801    1.418   .     S
C794   O820    1.287   .     A
C795   C798    1.403   .     A
C796   H807    1.079   .     S
C797   H808    1.079   .     S
C797   C385    1.386   1_556 S
C798   H809    1.077   .     S
C798   C382    1.386   1_556 S
C799   H810    1.077   .     S
C800   C525    1.356   1_565 S
C800   I537    2.163   1_565 S
C802   O823    1.292   .     A
C802   O825    1.297   .     A
C803   O826    1.297   .     A
C803   O824    1.292   .     A
C804   I811    2.137   .     S
I814   C525    2.163   1_565 S
I816   N726    2.068   1_655 S
N817   Zn828   2.040   .     S
N817   I723    2.068   1_655 S
N817   N726    1.271   1_655 S
N818   Zn827   2.040   .     S
O819   Zn827   1.993   .     S
O820   Zn828   1.993   .     S
O821   Zn828   2.007   .     S
O822   Zn827   2.007   .     S
O823   Zn827   1.996   .     S
O824   Zn828   1.996   .     S
O825   Zn828   2.013   .     S
O826   Zn827   2.013   .     S
