data_str_m2_o2_o5_pcu_sym.44
_audit_creation_date              2020-01-03
_audit_creation_method            'Materials Studio'
_symmetry_space_group_name_H-M    'P1'
_symmetry_Int_Tables_number       1
_symmetry_cell_setting            triclinic
loop_
_symmetry_equiv_pos_as_xyz
  x,y,z
_cell_length_a                    30.1926
_cell_length_b                    27.7552
_cell_length_c                    27.2448
_cell_angle_alpha                 89.9960
_cell_angle_beta                  90.1681
_cell_angle_gamma                 90.0549
loop_
_atom_site_label
_atom_site_type_symbol
_atom_site_fract_x
_atom_site_fract_y
_atom_site_fract_z
_atom_site_U_iso_or_equiv
_atom_site_adp_type
_atom_site_occupancy
C1     C     0.16503   0.24996   0.16724   0.00000  Uiso   1.00
C2     C     0.27079   0.44605   0.20437   0.00000  Uiso   1.00
C3     C     0.24996   0.25000   0.07352   0.00000  Uiso   1.00
C4     C     0.25001   0.25000   0.25982   0.00000  Uiso   1.00
C5     C     0.24998   0.02734   0.16668   0.00000  Uiso   1.00
C6     C     0.24998   0.47266   0.16668   0.00000  Uiso   1.00
C7     C     0.25000   0.25001   0.02184   0.00000  Uiso   1.00
C8     C     0.25002   0.25001   0.31149   0.00000  Uiso   1.00
C9     C     0.04720   0.27679   0.20287   0.00000  Uiso   1.00
C10    C     0.45245   0.25984   0.12347   0.00000  Uiso   1.00
C11    C     0.45253   0.24105   0.21028   0.00000  Uiso   1.00
C12    C     0.33485   0.25002   0.16663   0.00000  Uiso   1.00
C13    C     0.04729   0.22403   0.13201   0.00000  Uiso   1.00
C14    C     0.09327   0.27633   0.20438   0.00000  Uiso   1.00
C15    C     0.40636   0.25975   0.12262   0.00000  Uiso   1.00
C16    C     0.40646   0.24063   0.21087   0.00000  Uiso   1.00
C17    C     0.09369   0.22330   0.13234   0.00000  Uiso   1.00
C18    C     0.11675   0.24977   0.16837   0.00000  Uiso   1.00
C19    C     0.38297   0.25009   0.16669   0.00000  Uiso   1.00
C20    C     0.02413   0.25067   0.16712   0.00000  Uiso   1.00
C21    C     0.47560   0.25060   0.16694   0.00000  Uiso   1.00
C22    C     0.28330   0.10471   0.18944   0.00000  Uiso   1.00
C23    C     0.22929   0.39530   0.12988   0.00000  Uiso   1.00
C24    C     0.21669   0.10465   0.14391   0.00000  Uiso   1.00
C25    C     0.27069   0.39534   0.20347   0.00000  Uiso   1.00
C26    C     0.28410   0.05400   0.18957   0.00000  Uiso   1.00
C27    C     0.22917   0.44601   0.12899   0.00000  Uiso   1.00
C28    C     0.21587   0.05394   0.14379   0.00000  Uiso   1.00
Cu29   Cu    0.25000   0.29821   0.16667   0.00000  Uiso   1.00
Cu30   Cu    0.25000   0.20178   0.16667   0.00000  Uiso   1.00
H31    H     0.30964   0.12433   0.20755   0.00000  Uiso   1.00
H32    H     0.21330   0.46395   0.09842   0.00000  Uiso   1.00
H33    H     0.18821   0.03597   0.12635   0.00000  Uiso   1.00
H34    H     0.28666   0.46401   0.23495   0.00000  Uiso   1.00
H35    H     0.14452   0.29047   0.24587   0.00000  Uiso   1.00
H36    H     0.35358   0.26564   0.08087   0.00000  Uiso   1.00
H37    H     0.35375   0.23377   0.25229   0.00000  Uiso   1.00
H38    H     0.09604   0.18154   0.07494   0.00000  Uiso   1.00
H39    H     0.21282   0.37570   0.10077   0.00000  Uiso   1.00
H40    H     0.19034   0.12422   0.12581   0.00000  Uiso   1.00
H41    H     0.28716   0.37576   0.23257   0.00000  Uiso   1.00
H42    H     0.02927   0.29743   0.23010   0.00000  Uiso   1.00
H43    H     0.47033   0.26750   0.08991   0.00000  Uiso   1.00
H44    H     0.47047   0.23349   0.24392   0.00000  Uiso   1.00
H45    H     0.02919   0.20354   0.10466   0.00000  Uiso   1.00
H46    H     0.31175   0.03608   0.20702   0.00000  Uiso   1.00
N47    N     0.25000   0.12935   0.16667   0.00000  Uiso   1.00
N48    N     0.25000   0.37065   0.16667   0.00000  Uiso   1.00
O49    O     0.18573   0.29071   0.16667   0.00000  Uiso   1.00
O50    O     0.38606   0.26893   0.07800   0.00000  Uiso   1.00
O51    O     0.38627   0.23117   0.25538   0.00000  Uiso   1.00
O52    O     0.11716   0.19784   0.09742   0.00000  Uiso   1.00
O53    O     0.31427   0.20929   0.16666   0.00000  Uiso   1.00
O54    O     0.31427   0.29071   0.16666   0.00000  Uiso   1.00
O55    O     0.18573   0.20928   0.16667   0.00000  Uiso   1.00
O56    O     0.25000   0.29071   0.09613   0.00000  Uiso   1.00
O57    O     0.25000   0.20929   0.23720   0.00000  Uiso   1.00
O58    O     0.25000   0.29071   0.23720   0.00000  Uiso   1.00
O59    O     0.25000   0.20929   0.09613   0.00000  Uiso   1.00
O60    O     0.11356   0.30147   0.24203   0.00000  Uiso   1.00
C61    C     0.66503   0.24996   0.16724   0.00000  Uiso   1.00
C62    C     0.77079   0.44605   0.20437   0.00000  Uiso   1.00
C63    C     0.74996   0.25000   0.07352   0.00000  Uiso   1.00
C64    C     0.75001   0.25000   0.25982   0.00000  Uiso   1.00
C65    C     0.74998   0.02734   0.16668   0.00000  Uiso   1.00
C66    C     0.74998   0.47266   0.16668   0.00000  Uiso   1.00
C67    C     0.75000   0.25001   0.02184   0.00000  Uiso   1.00
C68    C     0.75002   0.25001   0.31149   0.00000  Uiso   1.00
C69    C     0.54720   0.27679   0.20287   0.00000  Uiso   1.00
C70    C     0.95245   0.25984   0.12347   0.00000  Uiso   1.00
C71    C     0.95253   0.24105   0.21028   0.00000  Uiso   1.00
C72    C     0.83485   0.25002   0.16663   0.00000  Uiso   1.00
C73    C     0.54729   0.22403   0.13201   0.00000  Uiso   1.00
C74    C     0.59327   0.27633   0.20438   0.00000  Uiso   1.00
C75    C     0.90636   0.25975   0.12262   0.00000  Uiso   1.00
C76    C     0.90646   0.24063   0.21087   0.00000  Uiso   1.00
C77    C     0.59369   0.22330   0.13234   0.00000  Uiso   1.00
C78    C     0.61675   0.24977   0.16837   0.00000  Uiso   1.00
C79    C     0.88297   0.25009   0.16669   0.00000  Uiso   1.00
C80    C     0.52413   0.25067   0.16712   0.00000  Uiso   1.00
C81    C     0.97560   0.25060   0.16694   0.00000  Uiso   1.00
C82    C     0.78330   0.10471   0.18944   0.00000  Uiso   1.00
C83    C     0.72929   0.39530   0.12988   0.00000  Uiso   1.00
C84    C     0.71669   0.10465   0.14391   0.00000  Uiso   1.00
C85    C     0.77069   0.39534   0.20347   0.00000  Uiso   1.00
C86    C     0.78410   0.05400   0.18957   0.00000  Uiso   1.00
C87    C     0.72917   0.44601   0.12899   0.00000  Uiso   1.00
C88    C     0.71587   0.05394   0.14379   0.00000  Uiso   1.00
Cu89   Cu    0.75000   0.29821   0.16667   0.00000  Uiso   1.00
Cu90   Cu    0.75000   0.20178   0.16667   0.00000  Uiso   1.00
H91    H     0.80964   0.12433   0.20755   0.00000  Uiso   1.00
H92    H     0.71330   0.46395   0.09842   0.00000  Uiso   1.00
H93    H     0.68821   0.03597   0.12635   0.00000  Uiso   1.00
H94    H     0.78666   0.46401   0.23495   0.00000  Uiso   1.00
H95    H     0.64452   0.29047   0.24587   0.00000  Uiso   1.00
H96    H     0.85358   0.26564   0.08087   0.00000  Uiso   1.00
H97    H     0.85375   0.23377   0.25229   0.00000  Uiso   1.00
H98    H     0.59604   0.18154   0.07494   0.00000  Uiso   1.00
H99    H     0.71282   0.37570   0.10077   0.00000  Uiso   1.00
H100   H     0.69034   0.12422   0.12581   0.00000  Uiso   1.00
H101   H     0.78716   0.37576   0.23257   0.00000  Uiso   1.00
H102   H     0.52927   0.29743   0.23010   0.00000  Uiso   1.00
H103   H     0.97033   0.26750   0.08991   0.00000  Uiso   1.00
H104   H     0.97047   0.23349   0.24392   0.00000  Uiso   1.00
H105   H     0.52919   0.20354   0.10466   0.00000  Uiso   1.00
H106   H     0.81175   0.03608   0.20702   0.00000  Uiso   1.00
N107   N     0.75000   0.12935   0.16667   0.00000  Uiso   1.00
N108   N     0.75000   0.37065   0.16667   0.00000  Uiso   1.00
O109   O     0.68573   0.29071   0.16667   0.00000  Uiso   1.00
O110   O     0.88606   0.26893   0.07800   0.00000  Uiso   1.00
O111   O     0.88627   0.23117   0.25538   0.00000  Uiso   1.00
O112   O     0.61716   0.19784   0.09742   0.00000  Uiso   1.00
O113   O     0.81427   0.20929   0.16666   0.00000  Uiso   1.00
O114   O     0.81427   0.29071   0.16666   0.00000  Uiso   1.00
O115   O     0.68573   0.20928   0.16667   0.00000  Uiso   1.00
O116   O     0.75000   0.29071   0.09613   0.00000  Uiso   1.00
O117   O     0.75000   0.20929   0.23720   0.00000  Uiso   1.00
O118   O     0.75000   0.29071   0.23720   0.00000  Uiso   1.00
O119   O     0.75000   0.20929   0.09613   0.00000  Uiso   1.00
O120   O     0.61356   0.30147   0.24203   0.00000  Uiso   1.00
C121   C     0.16503   0.74996   0.16724   0.00000  Uiso   1.00
C122   C     0.27079   0.94605   0.20437   0.00000  Uiso   1.00
C123   C     0.24996   0.75000   0.07352   0.00000  Uiso   1.00
C124   C     0.25001   0.75000   0.25982   0.00000  Uiso   1.00
C125   C     0.24998   0.52734   0.16668   0.00000  Uiso   1.00
C126   C     0.24998   0.97266   0.16668   0.00000  Uiso   1.00
C127   C     0.25000   0.75001   0.02184   0.00000  Uiso   1.00
C128   C     0.25002   0.75001   0.31149   0.00000  Uiso   1.00
C129   C     0.04720   0.77679   0.20287   0.00000  Uiso   1.00
C130   C     0.45245   0.75984   0.12347   0.00000  Uiso   1.00
C131   C     0.45253   0.74105   0.21028   0.00000  Uiso   1.00
C132   C     0.33485   0.75002   0.16663   0.00000  Uiso   1.00
C133   C     0.04729   0.72403   0.13201   0.00000  Uiso   1.00
C134   C     0.09327   0.77633   0.20438   0.00000  Uiso   1.00
C135   C     0.40636   0.75975   0.12262   0.00000  Uiso   1.00
C136   C     0.40646   0.74063   0.21087   0.00000  Uiso   1.00
C137   C     0.09369   0.72330   0.13234   0.00000  Uiso   1.00
C138   C     0.11675   0.74977   0.16837   0.00000  Uiso   1.00
C139   C     0.38297   0.75009   0.16669   0.00000  Uiso   1.00
C140   C     0.02413   0.75067   0.16712   0.00000  Uiso   1.00
C141   C     0.47560   0.75060   0.16694   0.00000  Uiso   1.00
C142   C     0.28330   0.60471   0.18944   0.00000  Uiso   1.00
C143   C     0.22929   0.89530   0.12988   0.00000  Uiso   1.00
C144   C     0.21669   0.60465   0.14391   0.00000  Uiso   1.00
C145   C     0.27069   0.89534   0.20347   0.00000  Uiso   1.00
C146   C     0.28410   0.55400   0.18957   0.00000  Uiso   1.00
C147   C     0.22917   0.94601   0.12899   0.00000  Uiso   1.00
C148   C     0.21587   0.55394   0.14379   0.00000  Uiso   1.00
Cu149  Cu    0.25000   0.79821   0.16667   0.00000  Uiso   1.00
Cu150  Cu    0.25000   0.70178   0.16667   0.00000  Uiso   1.00
H151   H     0.30964   0.62433   0.20755   0.00000  Uiso   1.00
H152   H     0.21330   0.96395   0.09842   0.00000  Uiso   1.00
H153   H     0.18821   0.53597   0.12635   0.00000  Uiso   1.00
H154   H     0.28666   0.96401   0.23495   0.00000  Uiso   1.00
H155   H     0.14452   0.79047   0.24587   0.00000  Uiso   1.00
H156   H     0.35358   0.76564   0.08087   0.00000  Uiso   1.00
H157   H     0.35375   0.73377   0.25229   0.00000  Uiso   1.00
H158   H     0.09604   0.68154   0.07494   0.00000  Uiso   1.00
H159   H     0.21282   0.87570   0.10077   0.00000  Uiso   1.00
H160   H     0.19034   0.62422   0.12581   0.00000  Uiso   1.00
H161   H     0.28716   0.87576   0.23257   0.00000  Uiso   1.00
H162   H     0.02927   0.79743   0.23010   0.00000  Uiso   1.00
H163   H     0.47033   0.76750   0.08991   0.00000  Uiso   1.00
H164   H     0.47047   0.73349   0.24392   0.00000  Uiso   1.00
H165   H     0.02919   0.70354   0.10466   0.00000  Uiso   1.00
H166   H     0.31175   0.53608   0.20702   0.00000  Uiso   1.00
N167   N     0.25000   0.62935   0.16667   0.00000  Uiso   1.00
N168   N     0.25000   0.87065   0.16667   0.00000  Uiso   1.00
O169   O     0.18573   0.79071   0.16667   0.00000  Uiso   1.00
O170   O     0.38606   0.76893   0.07800   0.00000  Uiso   1.00
O171   O     0.38627   0.73117   0.25538   0.00000  Uiso   1.00
O172   O     0.11716   0.69784   0.09742   0.00000  Uiso   1.00
O173   O     0.31427   0.70929   0.16666   0.00000  Uiso   1.00
O174   O     0.31427   0.79071   0.16666   0.00000  Uiso   1.00
O175   O     0.18573   0.70928   0.16667   0.00000  Uiso   1.00
O176   O     0.25000   0.79071   0.09613   0.00000  Uiso   1.00
O177   O     0.25000   0.70929   0.23720   0.00000  Uiso   1.00
O178   O     0.25000   0.79071   0.23720   0.00000  Uiso   1.00
O179   O     0.25000   0.70929   0.09613   0.00000  Uiso   1.00
O180   O     0.11356   0.80147   0.24203   0.00000  Uiso   1.00
C181   C     0.66503   0.74996   0.16724   0.00000  Uiso   1.00
C182   C     0.77079   0.94605   0.20437   0.00000  Uiso   1.00
C183   C     0.74996   0.75000   0.07352   0.00000  Uiso   1.00
C184   C     0.75001   0.75000   0.25982   0.00000  Uiso   1.00
C185   C     0.74998   0.52734   0.16668   0.00000  Uiso   1.00
C186   C     0.74998   0.97266   0.16668   0.00000  Uiso   1.00
C187   C     0.75000   0.75001   0.02184   0.00000  Uiso   1.00
C188   C     0.75002   0.75001   0.31149   0.00000  Uiso   1.00
C189   C     0.54720   0.77679   0.20287   0.00000  Uiso   1.00
C190   C     0.95245   0.75984   0.12347   0.00000  Uiso   1.00
C191   C     0.95253   0.74105   0.21028   0.00000  Uiso   1.00
C192   C     0.83485   0.75002   0.16663   0.00000  Uiso   1.00
C193   C     0.54729   0.72403   0.13201   0.00000  Uiso   1.00
C194   C     0.59327   0.77633   0.20438   0.00000  Uiso   1.00
C195   C     0.90636   0.75975   0.12262   0.00000  Uiso   1.00
C196   C     0.90646   0.74063   0.21087   0.00000  Uiso   1.00
C197   C     0.59369   0.72330   0.13234   0.00000  Uiso   1.00
C198   C     0.61675   0.74977   0.16837   0.00000  Uiso   1.00
C199   C     0.88297   0.75009   0.16669   0.00000  Uiso   1.00
C200   C     0.52413   0.75067   0.16712   0.00000  Uiso   1.00
C201   C     0.97560   0.75060   0.16694   0.00000  Uiso   1.00
C202   C     0.78330   0.60471   0.18944   0.00000  Uiso   1.00
C203   C     0.72929   0.89530   0.12988   0.00000  Uiso   1.00
C204   C     0.71669   0.60465   0.14391   0.00000  Uiso   1.00
C205   C     0.77069   0.89534   0.20347   0.00000  Uiso   1.00
C206   C     0.78410   0.55400   0.18957   0.00000  Uiso   1.00
C207   C     0.72917   0.94601   0.12899   0.00000  Uiso   1.00
C208   C     0.71587   0.55394   0.14379   0.00000  Uiso   1.00
Cu209  Cu    0.75000   0.79821   0.16667   0.00000  Uiso   1.00
Cu210  Cu    0.75000   0.70178   0.16667   0.00000  Uiso   1.00
H211   H     0.80964   0.62433   0.20755   0.00000  Uiso   1.00
H212   H     0.71330   0.96395   0.09842   0.00000  Uiso   1.00
H213   H     0.68821   0.53597   0.12635   0.00000  Uiso   1.00
H214   H     0.78666   0.96401   0.23495   0.00000  Uiso   1.00
H215   H     0.64452   0.79047   0.24587   0.00000  Uiso   1.00
H216   H     0.85358   0.76564   0.08087   0.00000  Uiso   1.00
H217   H     0.85375   0.73377   0.25229   0.00000  Uiso   1.00
H218   H     0.59604   0.68154   0.07494   0.00000  Uiso   1.00
H219   H     0.71282   0.87570   0.10077   0.00000  Uiso   1.00
H220   H     0.69034   0.62422   0.12581   0.00000  Uiso   1.00
H221   H     0.78716   0.87576   0.23257   0.00000  Uiso   1.00
H222   H     0.52927   0.79743   0.23010   0.00000  Uiso   1.00
H223   H     0.97033   0.76750   0.08991   0.00000  Uiso   1.00
H224   H     0.97047   0.73349   0.24392   0.00000  Uiso   1.00
H225   H     0.52919   0.70354   0.10466   0.00000  Uiso   1.00
H226   H     0.81175   0.53608   0.20702   0.00000  Uiso   1.00
N227   N     0.75000   0.62935   0.16667   0.00000  Uiso   1.00
N228   N     0.75000   0.87065   0.16667   0.00000  Uiso   1.00
O229   O     0.68573   0.79071   0.16667   0.00000  Uiso   1.00
O230   O     0.88606   0.76893   0.07800   0.00000  Uiso   1.00
O231   O     0.88627   0.73117   0.25538   0.00000  Uiso   1.00
O232   O     0.61716   0.69784   0.09742   0.00000  Uiso   1.00
O233   O     0.81427   0.70929   0.16666   0.00000  Uiso   1.00
O234   O     0.81427   0.79071   0.16666   0.00000  Uiso   1.00
O235   O     0.68573   0.70928   0.16667   0.00000  Uiso   1.00
O236   O     0.75000   0.79071   0.09613   0.00000  Uiso   1.00
O237   O     0.75000   0.70929   0.23720   0.00000  Uiso   1.00
O238   O     0.75000   0.79071   0.23720   0.00000  Uiso   1.00
O239   O     0.75000   0.70929   0.09613   0.00000  Uiso   1.00
O240   O     0.61356   0.80147   0.24203   0.00000  Uiso   1.00
C241   C     0.16503   0.24996   0.50058   0.00000  Uiso   1.00
C242   C     0.27079   0.44605   0.53771   0.00000  Uiso   1.00
C243   C     0.24996   0.25000   0.40685   0.00000  Uiso   1.00
C244   C     0.25001   0.25000   0.59315   0.00000  Uiso   1.00
C245   C     0.24998   0.02734   0.50002   0.00000  Uiso   1.00
C246   C     0.24998   0.47266   0.50002   0.00000  Uiso   1.00
C247   C     0.25000   0.25001   0.35517   0.00000  Uiso   1.00
C248   C     0.25002   0.25001   0.64483   0.00000  Uiso   1.00
C249   C     0.04720   0.27679   0.53620   0.00000  Uiso   1.00
C250   C     0.45245   0.25984   0.45680   0.00000  Uiso   1.00
C251   C     0.45253   0.24105   0.54361   0.00000  Uiso   1.00
C252   C     0.33485   0.25002   0.49996   0.00000  Uiso   1.00
C253   C     0.04729   0.22403   0.46535   0.00000  Uiso   1.00
C254   C     0.09327   0.27633   0.53772   0.00000  Uiso   1.00
C255   C     0.40636   0.25975   0.45595   0.00000  Uiso   1.00
C256   C     0.40646   0.24063   0.54421   0.00000  Uiso   1.00
C257   C     0.09369   0.22330   0.46567   0.00000  Uiso   1.00
C258   C     0.11675   0.24977   0.50171   0.00000  Uiso   1.00
C259   C     0.38297   0.25009   0.50003   0.00000  Uiso   1.00
C260   C     0.02413   0.25067   0.50045   0.00000  Uiso   1.00
C261   C     0.47560   0.25060   0.50028   0.00000  Uiso   1.00
C262   C     0.28330   0.10471   0.52277   0.00000  Uiso   1.00
C263   C     0.22929   0.39530   0.46321   0.00000  Uiso   1.00
C264   C     0.21669   0.10465   0.47724   0.00000  Uiso   1.00
C265   C     0.27069   0.39534   0.53680   0.00000  Uiso   1.00
C266   C     0.28410   0.05400   0.52290   0.00000  Uiso   1.00
C267   C     0.22917   0.44601   0.46232   0.00000  Uiso   1.00
C268   C     0.21587   0.05394   0.47713   0.00000  Uiso   1.00
Cu269  Cu    0.25000   0.29821   0.50000   0.00000  Uiso   1.00
Cu270  Cu    0.25000   0.20178   0.50000   0.00000  Uiso   1.00
H271   H     0.30964   0.12433   0.54089   0.00000  Uiso   1.00
H272   H     0.21330   0.46395   0.43175   0.00000  Uiso   1.00
H273   H     0.18821   0.03597   0.45968   0.00000  Uiso   1.00
H274   H     0.28666   0.46401   0.56828   0.00000  Uiso   1.00
H275   H     0.14452   0.29047   0.57920   0.00000  Uiso   1.00
H276   H     0.35358   0.26564   0.41421   0.00000  Uiso   1.00
H277   H     0.35375   0.23377   0.58562   0.00000  Uiso   1.00
H278   H     0.09604   0.18154   0.40827   0.00000  Uiso   1.00
H279   H     0.21282   0.37570   0.43411   0.00000  Uiso   1.00
H280   H     0.19034   0.12422   0.45914   0.00000  Uiso   1.00
H281   H     0.28716   0.37576   0.56590   0.00000  Uiso   1.00
H282   H     0.02927   0.29743   0.56344   0.00000  Uiso   1.00
H283   H     0.47033   0.26750   0.42325   0.00000  Uiso   1.00
H284   H     0.47047   0.23349   0.57725   0.00000  Uiso   1.00
H285   H     0.02919   0.20354   0.43799   0.00000  Uiso   1.00
H286   H     0.31175   0.03608   0.54035   0.00000  Uiso   1.00
N287   N     0.25000   0.12935   0.50000   0.00000  Uiso   1.00
N288   N     0.25000   0.37065   0.50000   0.00000  Uiso   1.00
O289   O     0.18573   0.29071   0.50000   0.00000  Uiso   1.00
O290   O     0.38606   0.26893   0.41134   0.00000  Uiso   1.00
O291   O     0.38627   0.23117   0.58871   0.00000  Uiso   1.00
O292   O     0.11716   0.19784   0.43075   0.00000  Uiso   1.00
O293   O     0.31427   0.20929   0.50000   0.00000  Uiso   1.00
O294   O     0.31427   0.29071   0.50000   0.00000  Uiso   1.00
O295   O     0.18573   0.20928   0.50000   0.00000  Uiso   1.00
O296   O     0.25000   0.29071   0.42946   0.00000  Uiso   1.00
O297   O     0.25000   0.20929   0.57054   0.00000  Uiso   1.00
O298   O     0.25000   0.29071   0.57054   0.00000  Uiso   1.00
O299   O     0.25000   0.20929   0.42946   0.00000  Uiso   1.00
O300   O     0.11356   0.30147   0.57537   0.00000  Uiso   1.00
C301   C     0.66503   0.24996   0.50058   0.00000  Uiso   1.00
C302   C     0.77079   0.44605   0.53771   0.00000  Uiso   1.00
C303   C     0.74996   0.25000   0.40685   0.00000  Uiso   1.00
C304   C     0.75001   0.25000   0.59315   0.00000  Uiso   1.00
C305   C     0.74998   0.02734   0.50002   0.00000  Uiso   1.00
C306   C     0.74998   0.47266   0.50002   0.00000  Uiso   1.00
C307   C     0.75000   0.25001   0.35517   0.00000  Uiso   1.00
C308   C     0.75002   0.25001   0.64483   0.00000  Uiso   1.00
C309   C     0.54720   0.27679   0.53620   0.00000  Uiso   1.00
C310   C     0.95245   0.25984   0.45680   0.00000  Uiso   1.00
C311   C     0.95253   0.24105   0.54361   0.00000  Uiso   1.00
C312   C     0.83485   0.25002   0.49996   0.00000  Uiso   1.00
C313   C     0.54729   0.22403   0.46535   0.00000  Uiso   1.00
C314   C     0.59327   0.27633   0.53772   0.00000  Uiso   1.00
C315   C     0.90636   0.25975   0.45595   0.00000  Uiso   1.00
C316   C     0.90646   0.24063   0.54421   0.00000  Uiso   1.00
C317   C     0.59369   0.22330   0.46567   0.00000  Uiso   1.00
C318   C     0.61675   0.24977   0.50171   0.00000  Uiso   1.00
C319   C     0.88297   0.25009   0.50003   0.00000  Uiso   1.00
C320   C     0.52413   0.25067   0.50045   0.00000  Uiso   1.00
C321   C     0.97560   0.25060   0.50028   0.00000  Uiso   1.00
C322   C     0.78330   0.10471   0.52277   0.00000  Uiso   1.00
C323   C     0.72929   0.39530   0.46321   0.00000  Uiso   1.00
C324   C     0.71669   0.10465   0.47724   0.00000  Uiso   1.00
C325   C     0.77069   0.39534   0.53680   0.00000  Uiso   1.00
C326   C     0.78410   0.05400   0.52290   0.00000  Uiso   1.00
C327   C     0.72917   0.44601   0.46232   0.00000  Uiso   1.00
C328   C     0.71587   0.05394   0.47713   0.00000  Uiso   1.00
Cu329  Cu    0.75000   0.29821   0.50000   0.00000  Uiso   1.00
Cu330  Cu    0.75000   0.20178   0.50000   0.00000  Uiso   1.00
H331   H     0.80964   0.12433   0.54089   0.00000  Uiso   1.00
H332   H     0.71330   0.46395   0.43175   0.00000  Uiso   1.00
H333   H     0.68821   0.03597   0.45968   0.00000  Uiso   1.00
H334   H     0.78666   0.46401   0.56828   0.00000  Uiso   1.00
H335   H     0.64452   0.29047   0.57920   0.00000  Uiso   1.00
H336   H     0.85358   0.26564   0.41421   0.00000  Uiso   1.00
H337   H     0.85375   0.23377   0.58562   0.00000  Uiso   1.00
H338   H     0.59604   0.18154   0.40827   0.00000  Uiso   1.00
H339   H     0.71282   0.37570   0.43411   0.00000  Uiso   1.00
H340   H     0.69034   0.12422   0.45914   0.00000  Uiso   1.00
H341   H     0.78716   0.37576   0.56590   0.00000  Uiso   1.00
H342   H     0.52927   0.29743   0.56344   0.00000  Uiso   1.00
H343   H     0.97033   0.26750   0.42325   0.00000  Uiso   1.00
H344   H     0.97047   0.23349   0.57725   0.00000  Uiso   1.00
H345   H     0.52919   0.20354   0.43799   0.00000  Uiso   1.00
H346   H     0.81175   0.03608   0.54035   0.00000  Uiso   1.00
N347   N     0.75000   0.12935   0.50000   0.00000  Uiso   1.00
N348   N     0.75000   0.37065   0.50000   0.00000  Uiso   1.00
O349   O     0.68573   0.29071   0.50000   0.00000  Uiso   1.00
O350   O     0.88606   0.26893   0.41134   0.00000  Uiso   1.00
O351   O     0.88627   0.23117   0.58871   0.00000  Uiso   1.00
O352   O     0.61716   0.19784   0.43075   0.00000  Uiso   1.00
O353   O     0.81427   0.20929   0.50000   0.00000  Uiso   1.00
O354   O     0.81427   0.29071   0.50000   0.00000  Uiso   1.00
O355   O     0.68573   0.20928   0.50000   0.00000  Uiso   1.00
O356   O     0.75000   0.29071   0.42946   0.00000  Uiso   1.00
O357   O     0.75000   0.20929   0.57054   0.00000  Uiso   1.00
O358   O     0.75000   0.29071   0.57054   0.00000  Uiso   1.00
O359   O     0.75000   0.20929   0.42946   0.00000  Uiso   1.00
O360   O     0.61356   0.30147   0.57537   0.00000  Uiso   1.00
C361   C     0.16503   0.74996   0.50058   0.00000  Uiso   1.00
C362   C     0.27079   0.94605   0.53771   0.00000  Uiso   1.00
C363   C     0.24996   0.75000   0.40685   0.00000  Uiso   1.00
C364   C     0.25001   0.75000   0.59315   0.00000  Uiso   1.00
C365   C     0.24998   0.52734   0.50002   0.00000  Uiso   1.00
C366   C     0.24998   0.97266   0.50002   0.00000  Uiso   1.00
C367   C     0.25000   0.75001   0.35517   0.00000  Uiso   1.00
C368   C     0.25002   0.75001   0.64483   0.00000  Uiso   1.00
C369   C     0.04720   0.77679   0.53620   0.00000  Uiso   1.00
C370   C     0.45245   0.75984   0.45680   0.00000  Uiso   1.00
C371   C     0.45253   0.74105   0.54361   0.00000  Uiso   1.00
C372   C     0.33485   0.75002   0.49996   0.00000  Uiso   1.00
C373   C     0.04729   0.72403   0.46535   0.00000  Uiso   1.00
C374   C     0.09327   0.77633   0.53772   0.00000  Uiso   1.00
C375   C     0.40636   0.75975   0.45595   0.00000  Uiso   1.00
C376   C     0.40646   0.74063   0.54421   0.00000  Uiso   1.00
C377   C     0.09369   0.72330   0.46567   0.00000  Uiso   1.00
C378   C     0.11675   0.74977   0.50171   0.00000  Uiso   1.00
C379   C     0.38297   0.75009   0.50003   0.00000  Uiso   1.00
C380   C     0.02413   0.75067   0.50045   0.00000  Uiso   1.00
C381   C     0.47560   0.75060   0.50028   0.00000  Uiso   1.00
C382   C     0.28330   0.60471   0.52277   0.00000  Uiso   1.00
C383   C     0.22929   0.89530   0.46321   0.00000  Uiso   1.00
C384   C     0.21669   0.60465   0.47724   0.00000  Uiso   1.00
C385   C     0.27069   0.89534   0.53680   0.00000  Uiso   1.00
C386   C     0.28410   0.55400   0.52290   0.00000  Uiso   1.00
C387   C     0.22917   0.94601   0.46232   0.00000  Uiso   1.00
C388   C     0.21587   0.55394   0.47713   0.00000  Uiso   1.00
Cu389  Cu    0.25000   0.79821   0.50000   0.00000  Uiso   1.00
Cu390  Cu    0.25000   0.70178   0.50000   0.00000  Uiso   1.00
H391   H     0.30964   0.62433   0.54089   0.00000  Uiso   1.00
H392   H     0.21330   0.96395   0.43175   0.00000  Uiso   1.00
H393   H     0.18821   0.53597   0.45968   0.00000  Uiso   1.00
H394   H     0.28666   0.96401   0.56828   0.00000  Uiso   1.00
H395   H     0.14452   0.79047   0.57920   0.00000  Uiso   1.00
H396   H     0.35358   0.76564   0.41421   0.00000  Uiso   1.00
H397   H     0.35375   0.73377   0.58562   0.00000  Uiso   1.00
H398   H     0.09604   0.68154   0.40827   0.00000  Uiso   1.00
H399   H     0.21282   0.87570   0.43411   0.00000  Uiso   1.00
H400   H     0.19034   0.62422   0.45914   0.00000  Uiso   1.00
H401   H     0.28716   0.87576   0.56590   0.00000  Uiso   1.00
H402   H     0.02927   0.79743   0.56344   0.00000  Uiso   1.00
H403   H     0.47033   0.76750   0.42325   0.00000  Uiso   1.00
H404   H     0.47047   0.73349   0.57725   0.00000  Uiso   1.00
H405   H     0.02919   0.70354   0.43799   0.00000  Uiso   1.00
H406   H     0.31175   0.53608   0.54035   0.00000  Uiso   1.00
N407   N     0.25000   0.62935   0.50000   0.00000  Uiso   1.00
N408   N     0.25000   0.87065   0.50000   0.00000  Uiso   1.00
O409   O     0.18573   0.79071   0.50000   0.00000  Uiso   1.00
O410   O     0.38606   0.76893   0.41134   0.00000  Uiso   1.00
O411   O     0.38627   0.73117   0.58871   0.00000  Uiso   1.00
O412   O     0.11716   0.69784   0.43075   0.00000  Uiso   1.00
O413   O     0.31427   0.70929   0.50000   0.00000  Uiso   1.00
O414   O     0.31427   0.79071   0.50000   0.00000  Uiso   1.00
O415   O     0.18573   0.70928   0.50000   0.00000  Uiso   1.00
O416   O     0.25000   0.79071   0.42946   0.00000  Uiso   1.00
O417   O     0.25000   0.70929   0.57054   0.00000  Uiso   1.00
O418   O     0.25000   0.79071   0.57054   0.00000  Uiso   1.00
O419   O     0.25000   0.70929   0.42946   0.00000  Uiso   1.00
O420   O     0.11356   0.80147   0.57537   0.00000  Uiso   1.00
C421   C     0.66503   0.74996   0.50058   0.00000  Uiso   1.00
C422   C     0.77079   0.94605   0.53771   0.00000  Uiso   1.00
C423   C     0.74996   0.75000   0.40685   0.00000  Uiso   1.00
C424   C     0.75001   0.75000   0.59315   0.00000  Uiso   1.00
C425   C     0.74998   0.52734   0.50002   0.00000  Uiso   1.00
C426   C     0.74998   0.97266   0.50002   0.00000  Uiso   1.00
C427   C     0.75000   0.75001   0.35517   0.00000  Uiso   1.00
C428   C     0.75002   0.75001   0.64483   0.00000  Uiso   1.00
C429   C     0.54720   0.77679   0.53620   0.00000  Uiso   1.00
C430   C     0.95245   0.75984   0.45680   0.00000  Uiso   1.00
C431   C     0.95253   0.74105   0.54361   0.00000  Uiso   1.00
C432   C     0.83485   0.75002   0.49996   0.00000  Uiso   1.00
C433   C     0.54729   0.72403   0.46535   0.00000  Uiso   1.00
C434   C     0.59327   0.77633   0.53772   0.00000  Uiso   1.00
C435   C     0.90636   0.75975   0.45595   0.00000  Uiso   1.00
C436   C     0.90646   0.74063   0.54421   0.00000  Uiso   1.00
C437   C     0.59369   0.72330   0.46567   0.00000  Uiso   1.00
C438   C     0.61675   0.74977   0.50171   0.00000  Uiso   1.00
C439   C     0.88297   0.75009   0.50003   0.00000  Uiso   1.00
C440   C     0.52413   0.75067   0.50045   0.00000  Uiso   1.00
C441   C     0.97560   0.75060   0.50028   0.00000  Uiso   1.00
C442   C     0.78330   0.60471   0.52277   0.00000  Uiso   1.00
C443   C     0.72929   0.89530   0.46321   0.00000  Uiso   1.00
C444   C     0.71669   0.60465   0.47724   0.00000  Uiso   1.00
C445   C     0.77069   0.89534   0.53680   0.00000  Uiso   1.00
C446   C     0.78410   0.55400   0.52290   0.00000  Uiso   1.00
C447   C     0.72917   0.94601   0.46232   0.00000  Uiso   1.00
C448   C     0.71587   0.55394   0.47713   0.00000  Uiso   1.00
Cu449  Cu    0.75000   0.79821   0.50000   0.00000  Uiso   1.00
Cu450  Cu    0.75000   0.70178   0.50000   0.00000  Uiso   1.00
H451   H     0.80964   0.62433   0.54089   0.00000  Uiso   1.00
H452   H     0.71330   0.96395   0.43175   0.00000  Uiso   1.00
H453   H     0.68821   0.53597   0.45968   0.00000  Uiso   1.00
H454   H     0.78666   0.96401   0.56828   0.00000  Uiso   1.00
H455   H     0.64452   0.79047   0.57920   0.00000  Uiso   1.00
H456   H     0.85358   0.76564   0.41421   0.00000  Uiso   1.00
H457   H     0.85375   0.73377   0.58562   0.00000  Uiso   1.00
H458   H     0.59604   0.68154   0.40827   0.00000  Uiso   1.00
H459   H     0.71282   0.87570   0.43411   0.00000  Uiso   1.00
H460   H     0.69034   0.62422   0.45914   0.00000  Uiso   1.00
H461   H     0.78716   0.87576   0.56590   0.00000  Uiso   1.00
H462   H     0.52927   0.79743   0.56344   0.00000  Uiso   1.00
H463   H     0.97033   0.76750   0.42325   0.00000  Uiso   1.00
H464   H     0.97047   0.73349   0.57725   0.00000  Uiso   1.00
H465   H     0.52919   0.70354   0.43799   0.00000  Uiso   1.00
H466   H     0.81175   0.53608   0.54035   0.00000  Uiso   1.00
N467   N     0.75000   0.62935   0.50000   0.00000  Uiso   1.00
N468   N     0.75000   0.87065   0.50000   0.00000  Uiso   1.00
O469   O     0.68573   0.79071   0.50000   0.00000  Uiso   1.00
O470   O     0.88606   0.76893   0.41134   0.00000  Uiso   1.00
O471   O     0.88627   0.73117   0.58871   0.00000  Uiso   1.00
O472   O     0.61716   0.69784   0.43075   0.00000  Uiso   1.00
O473   O     0.81427   0.70929   0.50000   0.00000  Uiso   1.00
O474   O     0.81427   0.79071   0.50000   0.00000  Uiso   1.00
O475   O     0.68573   0.70928   0.50000   0.00000  Uiso   1.00
O476   O     0.75000   0.79071   0.42946   0.00000  Uiso   1.00
O477   O     0.75000   0.70929   0.57054   0.00000  Uiso   1.00
O478   O     0.75000   0.79071   0.57054   0.00000  Uiso   1.00
O479   O     0.75000   0.70929   0.42946   0.00000  Uiso   1.00
O480   O     0.61356   0.80147   0.57537   0.00000  Uiso   1.00
C481   C     0.16503   0.24996   0.83391   0.00000  Uiso   1.00
C482   C     0.27079   0.44605   0.87104   0.00000  Uiso   1.00
C483   C     0.24996   0.25000   0.74018   0.00000  Uiso   1.00
C484   C     0.25001   0.25000   0.92648   0.00000  Uiso   1.00
C485   C     0.24998   0.02734   0.83335   0.00000  Uiso   1.00
C486   C     0.24998   0.47266   0.83335   0.00000  Uiso   1.00
C487   C     0.25000   0.25001   0.68850   0.00000  Uiso   1.00
C488   C     0.25002   0.25001   0.97816   0.00000  Uiso   1.00
C489   C     0.04720   0.27679   0.86954   0.00000  Uiso   1.00
C490   C     0.45245   0.25984   0.79013   0.00000  Uiso   1.00
C491   C     0.45253   0.24105   0.87694   0.00000  Uiso   1.00
C492   C     0.33485   0.25002   0.83329   0.00000  Uiso   1.00
C493   C     0.04729   0.22403   0.79868   0.00000  Uiso   1.00
C494   C     0.09327   0.27633   0.87105   0.00000  Uiso   1.00
C495   C     0.40636   0.25975   0.78929   0.00000  Uiso   1.00
C496   C     0.40646   0.24063   0.87754   0.00000  Uiso   1.00
C497   C     0.09369   0.22330   0.79901   0.00000  Uiso   1.00
C498   C     0.11675   0.24977   0.83504   0.00000  Uiso   1.00
C499   C     0.38297   0.25009   0.83336   0.00000  Uiso   1.00
C500   C     0.02413   0.25067   0.83378   0.00000  Uiso   1.00
C501   C     0.47560   0.25060   0.83361   0.00000  Uiso   1.00
C502   C     0.28330   0.10471   0.85611   0.00000  Uiso   1.00
C503   C     0.22929   0.39530   0.79654   0.00000  Uiso   1.00
C504   C     0.21669   0.10465   0.81058   0.00000  Uiso   1.00
C505   C     0.27069   0.39534   0.87014   0.00000  Uiso   1.00
C506   C     0.28410   0.05400   0.85623   0.00000  Uiso   1.00
C507   C     0.22917   0.44601   0.79565   0.00000  Uiso   1.00
C508   C     0.21587   0.05394   0.81046   0.00000  Uiso   1.00
Cu509  Cu    0.25000   0.29821   0.83333   0.00000  Uiso   1.00
Cu510  Cu    0.25000   0.20178   0.83333   0.00000  Uiso   1.00
H511   H     0.30964   0.12433   0.87422   0.00000  Uiso   1.00
H512   H     0.21330   0.46395   0.76508   0.00000  Uiso   1.00
H513   H     0.18821   0.03597   0.79301   0.00000  Uiso   1.00
H514   H     0.28666   0.46401   0.90162   0.00000  Uiso   1.00
H515   H     0.14452   0.29047   0.91253   0.00000  Uiso   1.00
H516   H     0.35358   0.26564   0.74754   0.00000  Uiso   1.00
H517   H     0.35375   0.23377   0.91895   0.00000  Uiso   1.00
H518   H     0.09604   0.18154   0.74160   0.00000  Uiso   1.00
H519   H     0.21282   0.37570   0.76744   0.00000  Uiso   1.00
H520   H     0.19034   0.12422   0.79247   0.00000  Uiso   1.00
H521   H     0.28716   0.37576   0.89924   0.00000  Uiso   1.00
H522   H     0.02927   0.29743   0.89677   0.00000  Uiso   1.00
H523   H     0.47033   0.26750   0.75658   0.00000  Uiso   1.00
H524   H     0.47047   0.23349   0.91059   0.00000  Uiso   1.00
H525   H     0.02919   0.20354   0.77132   0.00000  Uiso   1.00
H526   H     0.31175   0.03608   0.87369   0.00000  Uiso   1.00
N527   N     0.25000   0.12935   0.83333   0.00000  Uiso   1.00
N528   N     0.25000   0.37065   0.83333   0.00000  Uiso   1.00
O529   O     0.18573   0.29071   0.83334   0.00000  Uiso   1.00
O530   O     0.38606   0.26893   0.74467   0.00000  Uiso   1.00
O531   O     0.38627   0.23117   0.92205   0.00000  Uiso   1.00
O532   O     0.11716   0.19784   0.76408   0.00000  Uiso   1.00
O533   O     0.31427   0.20929   0.83333   0.00000  Uiso   1.00
O534   O     0.31427   0.29071   0.83333   0.00000  Uiso   1.00
O535   O     0.18573   0.20928   0.83334   0.00000  Uiso   1.00
O536   O     0.25000   0.29071   0.76280   0.00000  Uiso   1.00
O537   O     0.25000   0.20929   0.90387   0.00000  Uiso   1.00
O538   O     0.25000   0.29071   0.90387   0.00000  Uiso   1.00
O539   O     0.25000   0.20929   0.76280   0.00000  Uiso   1.00
O540   O     0.11356   0.30147   0.90870   0.00000  Uiso   1.00
C541   C     0.66503   0.24996   0.83391   0.00000  Uiso   1.00
C542   C     0.77079   0.44605   0.87104   0.00000  Uiso   1.00
C543   C     0.74996   0.25000   0.74018   0.00000  Uiso   1.00
C544   C     0.75001   0.25000   0.92648   0.00000  Uiso   1.00
C545   C     0.74998   0.02734   0.83335   0.00000  Uiso   1.00
C546   C     0.74998   0.47266   0.83335   0.00000  Uiso   1.00
C547   C     0.75000   0.25001   0.68850   0.00000  Uiso   1.00
C548   C     0.75002   0.25001   0.97816   0.00000  Uiso   1.00
C549   C     0.54720   0.27679   0.86954   0.00000  Uiso   1.00
C550   C     0.95245   0.25984   0.79013   0.00000  Uiso   1.00
C551   C     0.95253   0.24105   0.87694   0.00000  Uiso   1.00
C552   C     0.83485   0.25002   0.83329   0.00000  Uiso   1.00
C553   C     0.54729   0.22403   0.79868   0.00000  Uiso   1.00
C554   C     0.59327   0.27633   0.87105   0.00000  Uiso   1.00
C555   C     0.90636   0.25975   0.78929   0.00000  Uiso   1.00
C556   C     0.90646   0.24063   0.87754   0.00000  Uiso   1.00
C557   C     0.59369   0.22330   0.79901   0.00000  Uiso   1.00
C558   C     0.61675   0.24977   0.83504   0.00000  Uiso   1.00
C559   C     0.88297   0.25009   0.83336   0.00000  Uiso   1.00
C560   C     0.52413   0.25067   0.83378   0.00000  Uiso   1.00
C561   C     0.97560   0.25060   0.83361   0.00000  Uiso   1.00
C562   C     0.78330   0.10471   0.85611   0.00000  Uiso   1.00
C563   C     0.72929   0.39530   0.79654   0.00000  Uiso   1.00
C564   C     0.71669   0.10465   0.81058   0.00000  Uiso   1.00
C565   C     0.77069   0.39534   0.87014   0.00000  Uiso   1.00
C566   C     0.78410   0.05400   0.85623   0.00000  Uiso   1.00
C567   C     0.72917   0.44601   0.79565   0.00000  Uiso   1.00
C568   C     0.71587   0.05394   0.81046   0.00000  Uiso   1.00
Cu569  Cu    0.75000   0.29821   0.83333   0.00000  Uiso   1.00
Cu570  Cu    0.75000   0.20178   0.83333   0.00000  Uiso   1.00
H571   H     0.80964   0.12433   0.87422   0.00000  Uiso   1.00
H572   H     0.71330   0.46395   0.76508   0.00000  Uiso   1.00
H573   H     0.68821   0.03597   0.79301   0.00000  Uiso   1.00
H574   H     0.78666   0.46401   0.90162   0.00000  Uiso   1.00
H575   H     0.64452   0.29047   0.91253   0.00000  Uiso   1.00
H576   H     0.85358   0.26564   0.74754   0.00000  Uiso   1.00
H577   H     0.85375   0.23377   0.91895   0.00000  Uiso   1.00
H578   H     0.59604   0.18154   0.74160   0.00000  Uiso   1.00
H579   H     0.71282   0.37570   0.76744   0.00000  Uiso   1.00
H580   H     0.69034   0.12422   0.79247   0.00000  Uiso   1.00
H581   H     0.78716   0.37576   0.89924   0.00000  Uiso   1.00
H582   H     0.52927   0.29743   0.89677   0.00000  Uiso   1.00
H583   H     0.97033   0.26750   0.75658   0.00000  Uiso   1.00
H584   H     0.97047   0.23349   0.91059   0.00000  Uiso   1.00
H585   H     0.52919   0.20354   0.77132   0.00000  Uiso   1.00
H586   H     0.81175   0.03608   0.87369   0.00000  Uiso   1.00
N587   N     0.75000   0.12935   0.83333   0.00000  Uiso   1.00
N588   N     0.75000   0.37065   0.83333   0.00000  Uiso   1.00
O589   O     0.68573   0.29071   0.83334   0.00000  Uiso   1.00
O590   O     0.88606   0.26893   0.74467   0.00000  Uiso   1.00
O591   O     0.88627   0.23117   0.92205   0.00000  Uiso   1.00
O592   O     0.61716   0.19784   0.76408   0.00000  Uiso   1.00
O593   O     0.81427   0.20929   0.83333   0.00000  Uiso   1.00
O594   O     0.81427   0.29071   0.83333   0.00000  Uiso   1.00
O595   O     0.68573   0.20928   0.83334   0.00000  Uiso   1.00
O596   O     0.75000   0.29071   0.76280   0.00000  Uiso   1.00
O597   O     0.75000   0.20929   0.90387   0.00000  Uiso   1.00
O598   O     0.75000   0.29071   0.90387   0.00000  Uiso   1.00
O599   O     0.75000   0.20929   0.76280   0.00000  Uiso   1.00
O600   O     0.61356   0.30147   0.90870   0.00000  Uiso   1.00
C601   C     0.16503   0.74996   0.83391   0.00000  Uiso   1.00
C602   C     0.27079   0.94605   0.87104   0.00000  Uiso   1.00
C603   C     0.24996   0.75000   0.74018   0.00000  Uiso   1.00
C604   C     0.25001   0.75000   0.92648   0.00000  Uiso   1.00
C605   C     0.24998   0.52734   0.83335   0.00000  Uiso   1.00
C606   C     0.24998   0.97266   0.83335   0.00000  Uiso   1.00
C607   C     0.25000   0.75001   0.68850   0.00000  Uiso   1.00
C608   C     0.25002   0.75001   0.97816   0.00000  Uiso   1.00
C609   C     0.04720   0.77679   0.86954   0.00000  Uiso   1.00
C610   C     0.45245   0.75984   0.79013   0.00000  Uiso   1.00
C611   C     0.45253   0.74105   0.87694   0.00000  Uiso   1.00
C612   C     0.33485   0.75002   0.83329   0.00000  Uiso   1.00
C613   C     0.04729   0.72403   0.79868   0.00000  Uiso   1.00
C614   C     0.09327   0.77633   0.87105   0.00000  Uiso   1.00
C615   C     0.40636   0.75975   0.78929   0.00000  Uiso   1.00
C616   C     0.40646   0.74063   0.87754   0.00000  Uiso   1.00
C617   C     0.09369   0.72330   0.79901   0.00000  Uiso   1.00
C618   C     0.11675   0.74977   0.83504   0.00000  Uiso   1.00
C619   C     0.38297   0.75009   0.83336   0.00000  Uiso   1.00
C620   C     0.02413   0.75067   0.83378   0.00000  Uiso   1.00
C621   C     0.47560   0.75060   0.83361   0.00000  Uiso   1.00
C622   C     0.28330   0.60471   0.85611   0.00000  Uiso   1.00
C623   C     0.22929   0.89530   0.79654   0.00000  Uiso   1.00
C624   C     0.21669   0.60465   0.81058   0.00000  Uiso   1.00
C625   C     0.27069   0.89534   0.87014   0.00000  Uiso   1.00
C626   C     0.28410   0.55400   0.85623   0.00000  Uiso   1.00
C627   C     0.22917   0.94601   0.79565   0.00000  Uiso   1.00
C628   C     0.21587   0.55394   0.81046   0.00000  Uiso   1.00
Cu629  Cu    0.25000   0.79821   0.83333   0.00000  Uiso   1.00
Cu630  Cu    0.25000   0.70178   0.83333   0.00000  Uiso   1.00
H631   H     0.30964   0.62433   0.87422   0.00000  Uiso   1.00
H632   H     0.21330   0.96395   0.76508   0.00000  Uiso   1.00
H633   H     0.18821   0.53597   0.79301   0.00000  Uiso   1.00
H634   H     0.28666   0.96401   0.90162   0.00000  Uiso   1.00
H635   H     0.14452   0.79047   0.91253   0.00000  Uiso   1.00
H636   H     0.35358   0.76564   0.74754   0.00000  Uiso   1.00
H637   H     0.35375   0.73377   0.91895   0.00000  Uiso   1.00
H638   H     0.09604   0.68154   0.74160   0.00000  Uiso   1.00
H639   H     0.21282   0.87570   0.76744   0.00000  Uiso   1.00
H640   H     0.19034   0.62422   0.79247   0.00000  Uiso   1.00
H641   H     0.28716   0.87576   0.89924   0.00000  Uiso   1.00
H642   H     0.02927   0.79743   0.89677   0.00000  Uiso   1.00
H643   H     0.47033   0.76750   0.75658   0.00000  Uiso   1.00
H644   H     0.47047   0.73349   0.91059   0.00000  Uiso   1.00
H645   H     0.02919   0.70354   0.77132   0.00000  Uiso   1.00
H646   H     0.31175   0.53608   0.87369   0.00000  Uiso   1.00
N647   N     0.25000   0.62935   0.83333   0.00000  Uiso   1.00
N648   N     0.25000   0.87065   0.83333   0.00000  Uiso   1.00
O649   O     0.18573   0.79071   0.83334   0.00000  Uiso   1.00
O650   O     0.38606   0.76893   0.74467   0.00000  Uiso   1.00
O651   O     0.38627   0.73117   0.92205   0.00000  Uiso   1.00
O652   O     0.11716   0.69784   0.76408   0.00000  Uiso   1.00
O653   O     0.31427   0.70929   0.83333   0.00000  Uiso   1.00
O654   O     0.31427   0.79071   0.83333   0.00000  Uiso   1.00
O655   O     0.18573   0.70928   0.83334   0.00000  Uiso   1.00
O656   O     0.25000   0.79071   0.76280   0.00000  Uiso   1.00
O657   O     0.25000   0.70929   0.90387   0.00000  Uiso   1.00
O658   O     0.25000   0.79071   0.90387   0.00000  Uiso   1.00
O659   O     0.25000   0.70929   0.76280   0.00000  Uiso   1.00
O660   O     0.11356   0.80147   0.90870   0.00000  Uiso   1.00
C661   C     0.66503   0.74996   0.83391   0.00000  Uiso   1.00
C662   C     0.77079   0.94605   0.87104   0.00000  Uiso   1.00
C663   C     0.74996   0.75000   0.74018   0.00000  Uiso   1.00
C664   C     0.75001   0.75000   0.92648   0.00000  Uiso   1.00
C665   C     0.74998   0.52734   0.83335   0.00000  Uiso   1.00
C666   C     0.74998   0.97266   0.83335   0.00000  Uiso   1.00
C667   C     0.75000   0.75001   0.68850   0.00000  Uiso   1.00
C668   C     0.75002   0.75001   0.97816   0.00000  Uiso   1.00
C669   C     0.54720   0.77679   0.86954   0.00000  Uiso   1.00
C670   C     0.95245   0.75984   0.79013   0.00000  Uiso   1.00
C671   C     0.95253   0.74105   0.87694   0.00000  Uiso   1.00
C672   C     0.83485   0.75002   0.83329   0.00000  Uiso   1.00
C673   C     0.54729   0.72403   0.79868   0.00000  Uiso   1.00
C674   C     0.59327   0.77633   0.87105   0.00000  Uiso   1.00
C675   C     0.90636   0.75975   0.78929   0.00000  Uiso   1.00
C676   C     0.90646   0.74063   0.87754   0.00000  Uiso   1.00
C677   C     0.59369   0.72330   0.79901   0.00000  Uiso   1.00
C678   C     0.61675   0.74977   0.83504   0.00000  Uiso   1.00
C679   C     0.88297   0.75009   0.83336   0.00000  Uiso   1.00
C680   C     0.52413   0.75067   0.83378   0.00000  Uiso   1.00
C681   C     0.97560   0.75060   0.83361   0.00000  Uiso   1.00
C682   C     0.78330   0.60471   0.85611   0.00000  Uiso   1.00
C683   C     0.72929   0.89530   0.79654   0.00000  Uiso   1.00
C684   C     0.71669   0.60465   0.81058   0.00000  Uiso   1.00
C685   C     0.77069   0.89534   0.87014   0.00000  Uiso   1.00
C686   C     0.78410   0.55400   0.85623   0.00000  Uiso   1.00
C687   C     0.72917   0.94601   0.79565   0.00000  Uiso   1.00
C688   C     0.71587   0.55394   0.81046   0.00000  Uiso   1.00
Cu689  Cu    0.75000   0.79821   0.83333   0.00000  Uiso   1.00
Cu690  Cu    0.75000   0.70178   0.83333   0.00000  Uiso   1.00
H691   H     0.80964   0.62433   0.87422   0.00000  Uiso   1.00
H692   H     0.71330   0.96395   0.76508   0.00000  Uiso   1.00
H693   H     0.68821   0.53597   0.79301   0.00000  Uiso   1.00
H694   H     0.78666   0.96401   0.90162   0.00000  Uiso   1.00
H695   H     0.64452   0.79047   0.91253   0.00000  Uiso   1.00
H696   H     0.85358   0.76564   0.74754   0.00000  Uiso   1.00
H697   H     0.85375   0.73377   0.91895   0.00000  Uiso   1.00
H698   H     0.59604   0.68154   0.74160   0.00000  Uiso   1.00
H699   H     0.71282   0.87570   0.76744   0.00000  Uiso   1.00
H700   H     0.69034   0.62422   0.79247   0.00000  Uiso   1.00
H701   H     0.78716   0.87576   0.89924   0.00000  Uiso   1.00
H702   H     0.52927   0.79743   0.89677   0.00000  Uiso   1.00
H703   H     0.97033   0.76750   0.75658   0.00000  Uiso   1.00
H704   H     0.97047   0.73349   0.91059   0.00000  Uiso   1.00
H705   H     0.52919   0.70354   0.77132   0.00000  Uiso   1.00
H706   H     0.81175   0.53608   0.87369   0.00000  Uiso   1.00
N707   N     0.75000   0.62935   0.83333   0.00000  Uiso   1.00
N708   N     0.75000   0.87065   0.83333   0.00000  Uiso   1.00
O709   O     0.68573   0.79071   0.83334   0.00000  Uiso   1.00
O710   O     0.88606   0.76893   0.74467   0.00000  Uiso   1.00
O711   O     0.88627   0.73117   0.92205   0.00000  Uiso   1.00
O712   O     0.61716   0.69784   0.76408   0.00000  Uiso   1.00
O713   O     0.81427   0.70929   0.83333   0.00000  Uiso   1.00
O714   O     0.81427   0.79071   0.83333   0.00000  Uiso   1.00
O715   O     0.68573   0.70928   0.83334   0.00000  Uiso   1.00
O716   O     0.75000   0.79071   0.76280   0.00000  Uiso   1.00
O717   O     0.75000   0.70929   0.90387   0.00000  Uiso   1.00
O718   O     0.75000   0.79071   0.90387   0.00000  Uiso   1.00
O719   O     0.75000   0.70929   0.76280   0.00000  Uiso   1.00
O720   O     0.61356   0.80147   0.90870   0.00000  Uiso   1.00
loop_
_geom_bond_atom_site_label_1
_geom_bond_atom_site_label_2
_geom_bond_distance
_geom_bond_site_symmetry_2
_ccdc_geom_bond_type
C1     O55     1.291   .     A
C1     C18     1.458   .     S
C1     O49     1.292   .     A
C2     H34     1.081   .     S
C2     C6      1.411   .     A
C2     C25     1.408   .     A
C3     O56     1.287   .     A
C3     C7      1.408   .     S
C3     O59     1.287   .     A
C4     O57     1.287   .     A
C4     C8      1.408   .     S
C4     O58     1.287   .     A
C5     C28     1.411   .     A
C5     C26     1.411   .     A
C5     C126    1.518   1_545 S
C6     C27     1.411   .     A
C6     C125    1.518   .     S
C7     C488    1.190   1_554 S
C8     C247    1.190   .     S
C9     C14     1.391   .     A
C9     C20     1.398   .     A
C9     H42     1.084   .     S
C10    C15     1.392   .     A
C10    C21     1.397   .     A
C10    H43     1.084   .     S
C11    H44     1.084   .     S
C11    C16     1.391   .     A
C11    C21     1.398   .     A
C12    O53     1.290   .     A
C12    C19     1.453   .     S
C12    O54     1.290   .     A
C13    H45     1.084   .     S
C13    C17     1.401   .     A
C13    C20     1.398   .     A
C14    O60     1.382   .     S
C14    C18     1.419   .     A
C15    C19     1.420   .     A
C15    O50     1.384   .     S
C16    O51     1.384   .     S
C16    C19     1.420   .     A
C17    C18     1.408   .     A
C17    O52     1.383   .     S
C20    C81     1.465   1_455 S
C21    C80     1.465   .     S
C22    N47     1.364   .     A
C22    C26     1.408   .     A
C22    H31     1.081   .     S
C23    C27     1.408   .     A
C23    H39     1.081   .     S
C23    N48     1.364   .     A
C24    H40     1.081   .     S
C24    C28     1.408   .     A
C24    N47     1.364   .     A
C25    N48     1.364   .     A
C25    H41     1.081   .     S
C26    H46     1.081   .     S
C27    H32     1.081   .     S
C28    H33     1.081   .     S
Cu29   Cu30    2.676   .     S
Cu29   O56     1.933   .     S
Cu29   O54     1.952   .     S
Cu29   O49     1.951   .     S
Cu29   O58     1.933   .     S
Cu29   N48     2.011   .     S
Cu30   O59     1.933   .     S
Cu30   O53     1.951   .     S
Cu30   O57     1.933   .     S
Cu30   N47     2.011   .     S
Cu30   O55     1.952   .     S
H35    O60     0.989   .     S
H36    O50     0.988   .     S
H37    O51     0.988   .     S
H38    O52     0.992   .     S
C61    O115    1.291   .     A
C61    C78     1.458   .     S
C61    O109    1.292   .     A
C62    H94     1.081   .     S
C62    C66     1.411   .     A
C62    C85     1.408   .     A
C63    O116    1.287   .     A
C63    C67     1.408   .     S
C63    O119    1.287   .     A
C64    O117    1.287   .     A
C64    C68     1.408   .     S
C64    O118    1.287   .     A
C65    C88     1.411   .     A
C65    C86     1.411   .     A
C65    C186    1.518   1_545 S
C66    C87     1.411   .     A
C66    C185    1.518   .     S
C67    C548    1.190   1_554 S
C68    C307    1.190   .     S
C69    C74     1.391   .     A
C69    C80     1.398   .     A
C69    H102    1.084   .     S
C70    C75     1.392   .     A
C70    C81     1.397   .     A
C70    H103    1.084   .     S
C71    H104    1.084   .     S
C71    C76     1.391   .     A
C71    C81     1.398   .     A
C72    O113    1.290   .     A
C72    C79     1.453   .     S
C72    O114    1.290   .     A
C73    H105    1.084   .     S
C73    C77     1.401   .     A
C73    C80     1.398   .     A
C74    O120    1.382   .     S
C74    C78     1.419   .     A
C75    C79     1.420   .     A
C75    O110    1.384   .     S
C76    O111    1.384   .     S
C76    C79     1.420   .     A
C77    C78     1.408   .     A
C77    O112    1.383   .     S
C81    C20     1.465   1_655 S
C82    N107    1.364   .     A
C82    C86     1.408   .     A
C82    H91     1.081   .     S
C83    C87     1.408   .     A
C83    H99     1.081   .     S
C83    N108    1.364   .     A
C84    H100    1.081   .     S
C84    C88     1.408   .     A
C84    N107    1.364   .     A
C85    N108    1.364   .     A
C85    H101    1.081   .     S
C86    H106    1.081   .     S
C87    H92     1.081   .     S
C88    H93     1.081   .     S
Cu89   Cu90    2.676   .     S
Cu89   O116    1.933   .     S
Cu89   O114    1.952   .     S
Cu89   O109    1.951   .     S
Cu89   O118    1.933   .     S
Cu89   N108    2.011   .     S
Cu90   O119    1.933   .     S
Cu90   O113    1.951   .     S
Cu90   O117    1.933   .     S
Cu90   N107    2.011   .     S
Cu90   O115    1.952   .     S
H95    O120    0.989   .     S
H96    O110    0.988   .     S
H97    O111    0.988   .     S
H98    O112    0.992   .     S
C121   O175    1.291   .     A
C121   C138    1.458   .     S
C121   O169    1.292   .     A
C122   H154    1.081   .     S
C122   C126    1.411   .     A
C122   C145    1.408   .     A
C123   O176    1.287   .     A
C123   C127    1.408   .     S
C123   O179    1.287   .     A
C124   O177    1.287   .     A
C124   C128    1.408   .     S
C124   O178    1.287   .     A
C125   C148    1.411   .     A
C125   C146    1.411   .     A
C126   C147    1.411   .     A
C126   C5      1.518   1_565 S
C127   C608    1.190   1_554 S
C128   C367    1.190   .     S
C129   C134    1.391   .     A
C129   C140    1.398   .     A
C129   H162    1.084   .     S
C130   C135    1.392   .     A
C130   C141    1.397   .     A
C130   H163    1.084   .     S
C131   H164    1.084   .     S
C131   C136    1.391   .     A
C131   C141    1.398   .     A
C132   O173    1.290   .     A
C132   C139    1.453   .     S
C132   O174    1.290   .     A
C133   H165    1.084   .     S
C133   C137    1.401   .     A
C133   C140    1.398   .     A
C134   O180    1.382   .     S
C134   C138    1.419   .     A
C135   C139    1.420   .     A
C135   O170    1.384   .     S
C136   O171    1.384   .     S
C136   C139    1.420   .     A
C137   C138    1.408   .     A
C137   O172    1.383   .     S
C140   C201    1.465   1_455 S
C141   C200    1.465   .     S
C142   N167    1.364   .     A
C142   C146    1.408   .     A
C142   H151    1.081   .     S
C143   C147    1.408   .     A
C143   H159    1.081   .     S
C143   N168    1.364   .     A
C144   H160    1.081   .     S
C144   C148    1.408   .     A
C144   N167    1.364   .     A
C145   N168    1.364   .     A
C145   H161    1.081   .     S
C146   H166    1.081   .     S
C147   H152    1.081   .     S
C148   H153    1.081   .     S
Cu149  Cu150   2.676   .     S
Cu149  O176    1.933   .     S
Cu149  O174    1.952   .     S
Cu149  O169    1.951   .     S
Cu149  O178    1.933   .     S
Cu149  N168    2.011   .     S
Cu150  O179    1.933   .     S
Cu150  O173    1.951   .     S
Cu150  O177    1.933   .     S
Cu150  N167    2.011   .     S
Cu150  O175    1.952   .     S
H155   O180    0.989   .     S
H156   O170    0.988   .     S
H157   O171    0.988   .     S
H158   O172    0.992   .     S
C181   O235    1.291   .     A
C181   C198    1.458   .     S
C181   O229    1.292   .     A
C182   H214    1.081   .     S
C182   C186    1.411   .     A
C182   C205    1.408   .     A
C183   O236    1.287   .     A
C183   C187    1.408   .     S
C183   O239    1.287   .     A
C184   O237    1.287   .     A
C184   C188    1.408   .     S
C184   O238    1.287   .     A
C185   C208    1.411   .     A
C185   C206    1.411   .     A
C186   C207    1.411   .     A
C186   C65     1.518   1_565 S
C187   C668    1.190   1_554 S
C188   C427    1.190   .     S
C189   C194    1.391   .     A
C189   C200    1.398   .     A
C189   H222    1.084   .     S
C190   C195    1.392   .     A
C190   C201    1.397   .     A
C190   H223    1.084   .     S
C191   H224    1.084   .     S
C191   C196    1.391   .     A
C191   C201    1.398   .     A
C192   O233    1.290   .     A
C192   C199    1.453   .     S
C192   O234    1.290   .     A
C193   H225    1.084   .     S
C193   C197    1.401   .     A
C193   C200    1.398   .     A
C194   O240    1.382   .     S
C194   C198    1.419   .     A
C195   C199    1.420   .     A
C195   O230    1.384   .     S
C196   O231    1.384   .     S
C196   C199    1.420   .     A
C197   C198    1.408   .     A
C197   O232    1.383   .     S
C201   C140    1.465   1_655 S
C202   N227    1.364   .     A
C202   C206    1.408   .     A
C202   H211    1.081   .     S
C203   C207    1.408   .     A
C203   H219    1.081   .     S
C203   N228    1.364   .     A
C204   H220    1.081   .     S
C204   C208    1.408   .     A
C204   N227    1.364   .     A
C205   N228    1.364   .     A
C205   H221    1.081   .     S
C206   H226    1.081   .     S
C207   H212    1.081   .     S
C208   H213    1.081   .     S
Cu209  Cu210   2.676   .     S
Cu209  O236    1.933   .     S
Cu209  O234    1.952   .     S
Cu209  O229    1.951   .     S
Cu209  O238    1.933   .     S
Cu209  N228    2.011   .     S
Cu210  O239    1.933   .     S
Cu210  O233    1.951   .     S
Cu210  O237    1.933   .     S
Cu210  N227    2.011   .     S
Cu210  O235    1.952   .     S
H215   O240    0.989   .     S
H216   O230    0.988   .     S
H217   O231    0.988   .     S
H218   O232    0.992   .     S
C241   O295    1.291   .     A
C241   C258    1.458   .     S
C241   O289    1.292   .     A
C242   H274    1.081   .     S
C242   C246    1.411   .     A
C242   C265    1.408   .     A
C243   O296    1.287   .     A
C243   C247    1.408   .     S
C243   O299    1.287   .     A
C244   O297    1.287   .     A
C244   C248    1.408   .     S
C244   O298    1.287   .     A
C245   C268    1.411   .     A
C245   C266    1.411   .     A
C245   C366    1.518   1_545 S
C246   C267    1.411   .     A
C246   C365    1.518   .     S
C248   C487    1.190   .     S
C249   C254    1.391   .     A
C249   C260    1.398   .     A
C249   H282    1.084   .     S
C250   C255    1.392   .     A
C250   C261    1.397   .     A
C250   H283    1.084   .     S
C251   H284    1.084   .     S
C251   C256    1.391   .     A
C251   C261    1.398   .     A
C252   O293    1.290   .     A
C252   C259    1.453   .     S
C252   O294    1.290   .     A
C253   H285    1.084   .     S
C253   C257    1.401   .     A
C253   C260    1.398   .     A
C254   O300    1.382   .     S
C254   C258    1.419   .     A
C255   C259    1.420   .     A
C255   O290    1.384   .     S
C256   O291    1.384   .     S
C256   C259    1.420   .     A
C257   C258    1.408   .     A
C257   O292    1.383   .     S
C260   C321    1.465   1_455 S
C261   C320    1.465   .     S
C262   N287    1.364   .     A
C262   C266    1.408   .     A
C262   H271    1.081   .     S
C263   C267    1.408   .     A
C263   H279    1.081   .     S
C263   N288    1.364   .     A
C264   H280    1.081   .     S
C264   C268    1.408   .     A
C264   N287    1.364   .     A
C265   N288    1.364   .     A
C265   H281    1.081   .     S
C266   H286    1.081   .     S
C267   H272    1.081   .     S
C268   H273    1.081   .     S
Cu269  Cu270   2.676   .     S
Cu269  O296    1.933   .     S
Cu269  O294    1.952   .     S
Cu269  O289    1.951   .     S
Cu269  O298    1.933   .     S
Cu269  N288    2.011   .     S
Cu270  O299    1.933   .     S
Cu270  O293    1.951   .     S
Cu270  O297    1.933   .     S
Cu270  N287    2.011   .     S
Cu270  O295    1.952   .     S
H275   O300    0.989   .     S
H276   O290    0.988   .     S
H277   O291    0.988   .     S
H278   O292    0.992   .     S
C301   O355    1.291   .     A
C301   C318    1.458   .     S
C301   O349    1.292   .     A
C302   H334    1.081   .     S
C302   C306    1.411   .     A
C302   C325    1.408   .     A
C303   O356    1.287   .     A
C303   C307    1.408   .     S
C303   O359    1.287   .     A
C304   O357    1.287   .     A
C304   C308    1.408   .     S
C304   O358    1.287   .     A
C305   C328    1.411   .     A
C305   C326    1.411   .     A
C305   C426    1.518   1_545 S
C306   C327    1.411   .     A
C306   C425    1.518   .     S
C308   C547    1.190   .     S
C309   C314    1.391   .     A
C309   C320    1.398   .     A
C309   H342    1.084   .     S
C310   C315    1.392   .     A
C310   C321    1.397   .     A
C310   H343    1.084   .     S
C311   H344    1.084   .     S
C311   C316    1.391   .     A
C311   C321    1.398   .     A
C312   O353    1.290   .     A
C312   C319    1.453   .     S
C312   O354    1.290   .     A
C313   H345    1.084   .     S
C313   C317    1.401   .     A
C313   C320    1.398   .     A
C314   O360    1.382   .     S
C314   C318    1.419   .     A
C315   C319    1.420   .     A
C315   O350    1.384   .     S
C316   O351    1.384   .     S
C316   C319    1.420   .     A
C317   C318    1.408   .     A
C317   O352    1.383   .     S
C321   C260    1.465   1_655 S
C322   N347    1.364   .     A
C322   C326    1.408   .     A
C322   H331    1.081   .     S
C323   C327    1.408   .     A
C323   H339    1.081   .     S
C323   N348    1.364   .     A
C324   H340    1.081   .     S
C324   C328    1.408   .     A
C324   N347    1.364   .     A
C325   N348    1.364   .     A
C325   H341    1.081   .     S
C326   H346    1.081   .     S
C327   H332    1.081   .     S
C328   H333    1.081   .     S
Cu329  Cu330   2.676   .     S
Cu329  O356    1.933   .     S
Cu329  O354    1.952   .     S
Cu329  O349    1.951   .     S
Cu329  O358    1.933   .     S
Cu329  N348    2.011   .     S
Cu330  O359    1.933   .     S
Cu330  O353    1.951   .     S
Cu330  O357    1.933   .     S
Cu330  N347    2.011   .     S
Cu330  O355    1.952   .     S
H335   O360    0.989   .     S
H336   O350    0.988   .     S
H337   O351    0.988   .     S
H338   O352    0.992   .     S
C361   O415    1.291   .     A
C361   C378    1.458   .     S
C361   O409    1.292   .     A
C362   H394    1.081   .     S
C362   C366    1.411   .     A
C362   C385    1.408   .     A
C363   O416    1.287   .     A
C363   C367    1.408   .     S
C363   O419    1.287   .     A
C364   O417    1.287   .     A
C364   C368    1.408   .     S
C364   O418    1.287   .     A
C365   C388    1.411   .     A
C365   C386    1.411   .     A
C366   C387    1.411   .     A
C366   C245    1.518   1_565 S
C368   C607    1.190   .     S
C369   C374    1.391   .     A
C369   C380    1.398   .     A
C369   H402    1.084   .     S
C370   C375    1.392   .     A
C370   C381    1.397   .     A
C370   H403    1.084   .     S
C371   H404    1.084   .     S
C371   C376    1.391   .     A
C371   C381    1.398   .     A
C372   O413    1.290   .     A
C372   C379    1.453   .     S
C372   O414    1.290   .     A
C373   H405    1.084   .     S
C373   C377    1.401   .     A
C373   C380    1.398   .     A
C374   O420    1.382   .     S
C374   C378    1.419   .     A
C375   C379    1.420   .     A
C375   O410    1.384   .     S
C376   O411    1.384   .     S
C376   C379    1.420   .     A
C377   C378    1.408   .     A
C377   O412    1.383   .     S
C380   C441    1.465   1_455 S
C381   C440    1.465   .     S
C382   N407    1.364   .     A
C382   C386    1.408   .     A
C382   H391    1.081   .     S
C383   C387    1.408   .     A
C383   H399    1.081   .     S
C383   N408    1.364   .     A
C384   H400    1.081   .     S
C384   C388    1.408   .     A
C384   N407    1.364   .     A
C385   N408    1.364   .     A
C385   H401    1.081   .     S
C386   H406    1.081   .     S
C387   H392    1.081   .     S
C388   H393    1.081   .     S
Cu389  Cu390   2.676   .     S
Cu389  O416    1.933   .     S
Cu389  O414    1.952   .     S
Cu389  O409    1.951   .     S
Cu389  O418    1.933   .     S
Cu389  N408    2.011   .     S
Cu390  O419    1.933   .     S
Cu390  O413    1.951   .     S
Cu390  O417    1.933   .     S
Cu390  N407    2.011   .     S
Cu390  O415    1.952   .     S
H395   O420    0.989   .     S
H396   O410    0.988   .     S
H397   O411    0.988   .     S
H398   O412    0.992   .     S
C421   O475    1.291   .     A
C421   C438    1.458   .     S
C421   O469    1.292   .     A
C422   H454    1.081   .     S
C422   C426    1.411   .     A
C422   C445    1.408   .     A
C423   O476    1.287   .     A
C423   C427    1.408   .     S
C423   O479    1.287   .     A
C424   O477    1.287   .     A
C424   C428    1.408   .     S
C424   O478    1.287   .     A
C425   C448    1.411   .     A
C425   C446    1.411   .     A
C426   C447    1.411   .     A
C426   C305    1.518   1_565 S
C428   C667    1.190   .     S
C429   C434    1.391   .     A
C429   C440    1.398   .     A
C429   H462    1.084   .     S
C430   C435    1.392   .     A
C430   C441    1.397   .     A
C430   H463    1.084   .     S
C431   H464    1.084   .     S
C431   C436    1.391   .     A
C431   C441    1.398   .     A
C432   O473    1.290   .     A
C432   C439    1.453   .     S
C432   O474    1.290   .     A
C433   H465    1.084   .     S
C433   C437    1.401   .     A
C433   C440    1.398   .     A
C434   O480    1.382   .     S
C434   C438    1.419   .     A
C435   C439    1.420   .     A
C435   O470    1.384   .     S
C436   O471    1.384   .     S
C436   C439    1.420   .     A
C437   C438    1.408   .     A
C437   O472    1.383   .     S
C441   C380    1.465   1_655 S
C442   N467    1.364   .     A
C442   C446    1.408   .     A
C442   H451    1.081   .     S
C443   C447    1.408   .     A
C443   H459    1.081   .     S
C443   N468    1.364   .     A
C444   H460    1.081   .     S
C444   C448    1.408   .     A
C444   N467    1.364   .     A
C445   N468    1.364   .     A
C445   H461    1.081   .     S
C446   H466    1.081   .     S
C447   H452    1.081   .     S
C448   H453    1.081   .     S
Cu449  Cu450   2.676   .     S
Cu449  O476    1.933   .     S
Cu449  O474    1.952   .     S
Cu449  O469    1.951   .     S
Cu449  O478    1.933   .     S
Cu449  N468    2.011   .     S
Cu450  O479    1.933   .     S
Cu450  O473    1.951   .     S
Cu450  O477    1.933   .     S
Cu450  N467    2.011   .     S
Cu450  O475    1.952   .     S
H455   O480    0.989   .     S
H456   O470    0.988   .     S
H457   O471    0.988   .     S
H458   O472    0.992   .     S
C481   O535    1.291   .     A
C481   C498    1.458   .     S
C481   O529    1.292   .     A
C482   H514    1.081   .     S
C482   C486    1.411   .     A
C482   C505    1.408   .     A
C483   O536    1.287   .     A
C483   C487    1.408   .     S
C483   O539    1.287   .     A
C484   O537    1.287   .     A
C484   C488    1.408   .     S
C484   O538    1.287   .     A
C485   C508    1.411   .     A
C485   C506    1.411   .     A
C485   C606    1.518   1_545 S
C486   C507    1.411   .     A
C486   C605    1.518   .     S
C488   C7      1.190   1_556 S
C489   C494    1.391   .     A
C489   C500    1.398   .     A
C489   H522    1.084   .     S
C490   C495    1.392   .     A
C490   C501    1.397   .     A
C490   H523    1.084   .     S
C491   H524    1.084   .     S
C491   C496    1.391   .     A
C491   C501    1.398   .     A
C492   O533    1.290   .     A
C492   C499    1.453   .     S
C492   O534    1.290   .     A
C493   H525    1.084   .     S
C493   C497    1.401   .     A
C493   C500    1.398   .     A
C494   O540    1.382   .     S
C494   C498    1.419   .     A
C495   C499    1.420   .     A
C495   O530    1.384   .     S
C496   O531    1.384   .     S
C496   C499    1.420   .     A
C497   C498    1.408   .     A
C497   O532    1.383   .     S
C500   C561    1.465   1_455 S
C501   C560    1.465   .     S
C502   N527    1.364   .     A
C502   C506    1.408   .     A
C502   H511    1.081   .     S
C503   C507    1.408   .     A
C503   H519    1.081   .     S
C503   N528    1.364   .     A
C504   H520    1.081   .     S
C504   C508    1.408   .     A
C504   N527    1.364   .     A
C505   N528    1.364   .     A
C505   H521    1.081   .     S
C506   H526    1.081   .     S
C507   H512    1.081   .     S
C508   H513    1.081   .     S
Cu509  Cu510   2.676   .     S
Cu509  O536    1.933   .     S
Cu509  O534    1.952   .     S
Cu509  O529    1.951   .     S
Cu509  O538    1.933   .     S
Cu509  N528    2.011   .     S
Cu510  O539    1.933   .     S
Cu510  O533    1.951   .     S
Cu510  O537    1.933   .     S
Cu510  N527    2.011   .     S
Cu510  O535    1.952   .     S
H515   O540    0.989   .     S
H516   O530    0.988   .     S
H517   O531    0.988   .     S
H518   O532    0.992   .     S
C541   O595    1.291   .     A
C541   C558    1.458   .     S
C541   O589    1.292   .     A
C542   H574    1.081   .     S
C542   C546    1.411   .     A
C542   C565    1.408   .     A
C543   O596    1.287   .     A
C543   C547    1.408   .     S
C543   O599    1.287   .     A
C544   O597    1.287   .     A
C544   C548    1.408   .     S
C544   O598    1.287   .     A
C545   C568    1.411   .     A
C545   C566    1.411   .     A
C545   C666    1.518   1_545 S
C546   C567    1.411   .     A
C546   C665    1.518   .     S
C548   C67     1.190   1_556 S
C549   C554    1.391   .     A
C549   C560    1.398   .     A
C549   H582    1.084   .     S
C550   C555    1.392   .     A
C550   C561    1.397   .     A
C550   H583    1.084   .     S
C551   H584    1.084   .     S
C551   C556    1.391   .     A
C551   C561    1.398   .     A
C552   O593    1.290   .     A
C552   C559    1.453   .     S
C552   O594    1.290   .     A
C553   H585    1.084   .     S
C553   C557    1.401   .     A
C553   C560    1.398   .     A
C554   O600    1.382   .     S
C554   C558    1.419   .     A
C555   C559    1.420   .     A
C555   O590    1.384   .     S
C556   O591    1.384   .     S
C556   C559    1.420   .     A
C557   C558    1.408   .     A
C557   O592    1.383   .     S
C561   C500    1.465   1_655 S
C562   N587    1.364   .     A
C562   C566    1.408   .     A
C562   H571    1.081   .     S
C563   C567    1.408   .     A
C563   H579    1.081   .     S
C563   N588    1.364   .     A
C564   H580    1.081   .     S
C564   C568    1.408   .     A
C564   N587    1.364   .     A
C565   N588    1.364   .     A
C565   H581    1.081   .     S
C566   H586    1.081   .     S
C567   H572    1.081   .     S
C568   H573    1.081   .     S
Cu569  Cu570   2.676   .     S
Cu569  O596    1.933   .     S
Cu569  O594    1.952   .     S
Cu569  O589    1.951   .     S
Cu569  O598    1.933   .     S
Cu569  N588    2.011   .     S
Cu570  O599    1.933   .     S
Cu570  O593    1.951   .     S
Cu570  O597    1.933   .     S
Cu570  N587    2.011   .     S
Cu570  O595    1.952   .     S
H575   O600    0.989   .     S
H576   O590    0.988   .     S
H577   O591    0.988   .     S
H578   O592    0.992   .     S
C601   O655    1.291   .     A
C601   C618    1.458   .     S
C601   O649    1.292   .     A
C602   H634    1.081   .     S
C602   C606    1.411   .     A
C602   C625    1.408   .     A
C603   O656    1.287   .     A
C603   C607    1.408   .     S
C603   O659    1.287   .     A
C604   O657    1.287   .     A
C604   C608    1.408   .     S
C604   O658    1.287   .     A
C605   C628    1.411   .     A
C605   C626    1.411   .     A
C606   C627    1.411   .     A
C606   C485    1.518   1_565 S
C608   C127    1.190   1_556 S
C609   C614    1.391   .     A
C609   C620    1.398   .     A
C609   H642    1.084   .     S
C610   C615    1.392   .     A
C610   C621    1.397   .     A
C610   H643    1.084   .     S
C611   H644    1.084   .     S
C611   C616    1.391   .     A
C611   C621    1.398   .     A
C612   O653    1.290   .     A
C612   C619    1.453   .     S
C612   O654    1.290   .     A
C613   H645    1.084   .     S
C613   C617    1.401   .     A
C613   C620    1.398   .     A
C614   O660    1.382   .     S
C614   C618    1.419   .     A
C615   C619    1.420   .     A
C615   O650    1.384   .     S
C616   O651    1.384   .     S
C616   C619    1.420   .     A
C617   C618    1.408   .     A
C617   O652    1.383   .     S
C620   C681    1.465   1_455 S
C621   C680    1.465   .     S
C622   N647    1.364   .     A
C622   C626    1.408   .     A
C622   H631    1.081   .     S
C623   C627    1.408   .     A
C623   H639    1.081   .     S
C623   N648    1.364   .     A
C624   H640    1.081   .     S
C624   C628    1.408   .     A
C624   N647    1.364   .     A
C625   N648    1.364   .     A
C625   H641    1.081   .     S
C626   H646    1.081   .     S
C627   H632    1.081   .     S
C628   H633    1.081   .     S
Cu629  Cu630   2.676   .     S
Cu629  O656    1.933   .     S
Cu629  O654    1.952   .     S
Cu629  O649    1.951   .     S
Cu629  O658    1.933   .     S
Cu629  N648    2.011   .     S
Cu630  O659    1.933   .     S
Cu630  O653    1.951   .     S
Cu630  O657    1.933   .     S
Cu630  N647    2.011   .     S
Cu630  O655    1.952   .     S
H635   O660    0.989   .     S
H636   O650    0.988   .     S
H637   O651    0.988   .     S
H638   O652    0.992   .     S
C661   O715    1.291   .     A
C661   C678    1.458   .     S
C661   O709    1.292   .     A
C662   H694    1.081   .     S
C662   C666    1.411   .     A
C662   C685    1.408   .     A
C663   O716    1.287   .     A
C663   C667    1.408   .     S
C663   O719    1.287   .     A
C664   O717    1.287   .     A
C664   C668    1.408   .     S
C664   O718    1.287   .     A
C665   C688    1.411   .     A
C665   C686    1.411   .     A
C666   C687    1.411   .     A
C666   C545    1.518   1_565 S
C668   C187    1.190   1_556 S
C669   C674    1.391   .     A
C669   C680    1.398   .     A
C669   H702    1.084   .     S
C670   C675    1.392   .     A
C670   C681    1.397   .     A
C670   H703    1.084   .     S
C671   H704    1.084   .     S
C671   C676    1.391   .     A
C671   C681    1.398   .     A
C672   O713    1.290   .     A
C672   C679    1.453   .     S
C672   O714    1.290   .     A
C673   H705    1.084   .     S
C673   C677    1.401   .     A
C673   C680    1.398   .     A
C674   O720    1.382   .     S
C674   C678    1.419   .     A
C675   C679    1.420   .     A
C675   O710    1.384   .     S
C676   O711    1.384   .     S
C676   C679    1.420   .     A
C677   C678    1.408   .     A
C677   O712    1.383   .     S
C681   C620    1.465   1_655 S
C682   N707    1.364   .     A
C682   C686    1.408   .     A
C682   H691    1.081   .     S
C683   C687    1.408   .     A
C683   H699    1.081   .     S
C683   N708    1.364   .     A
C684   H700    1.081   .     S
C684   C688    1.408   .     A
C684   N707    1.364   .     A
C685   N708    1.364   .     A
C685   H701    1.081   .     S
C686   H706    1.081   .     S
C687   H692    1.081   .     S
C688   H693    1.081   .     S
Cu689  Cu690   2.676   .     S
Cu689  O716    1.933   .     S
Cu689  O714    1.952   .     S
Cu689  O709    1.951   .     S
Cu689  O718    1.933   .     S
Cu689  N708    2.011   .     S
Cu690  O719    1.933   .     S
Cu690  O713    1.951   .     S
Cu690  O717    1.933   .     S
Cu690  N707    2.011   .     S
Cu690  O715    1.952   .     S
H695   O720    0.989   .     S
H696   O710    0.988   .     S
H697   O711    0.988   .     S
H698   O712    0.992   .     S
