data_str_m3_o10_o16_pcu_sym.155
_audit_creation_date              2020-01-03
_audit_creation_method            'Materials Studio'
_symmetry_space_group_name_H-M    'P1'
_symmetry_Int_Tables_number       1
_symmetry_cell_setting            triclinic
loop_
_symmetry_equiv_pos_as_xyz
  x,y,z
_cell_length_a                    23.4691
_cell_length_b                    25.6912
_cell_length_c                    24.3977
_cell_angle_alpha                 92.3448
_cell_angle_beta                  100.8393
_cell_angle_gamma                 94.3101
loop_
_atom_site_label
_atom_site_type_symbol
_atom_site_fract_x
_atom_site_fract_y
_atom_site_fract_z
_atom_site_U_iso_or_equiv
_atom_site_adp_type
_atom_site_occupancy
C1     C     0.01494   0.26494   0.24871   0.00000  Uiso   1.00
C2     C     0.14641   0.19475   0.48298   0.00000  Uiso   1.00
C3     C     0.10910   0.16411   0.43951   0.00000  Uiso   1.00
C4     C     0.19962   0.17497   0.00791   0.00000  Uiso   1.00
C5     C     0.21987   0.13238   0.47964   0.00000  Uiso   1.00
C6     C     0.18324   0.10415   0.43521   0.00000  Uiso   1.00
C7     C     0.12692   0.11730   0.41858   0.00000  Uiso   1.00
C8     C     0.23051   0.19166   0.06215   0.00000  Uiso   1.00
C9     C     0.30504   0.13242   0.05157   0.00000  Uiso   1.00
C10    C     0.05660   0.18307   0.41391   0.00000  Uiso   1.00
C11    C     0.02270   0.31954   0.24801   0.00000  Uiso   1.00
C12    C     0.03563   0.16989   0.35495   0.00000  Uiso   1.00
C13    C     0.31081   0.01383   0.25259   0.00000  Uiso   1.00
C14    C     0.31846   0.06841   0.25150   0.00000  Uiso   1.00
C15    C     0.29815   0.16585   0.14513   0.00000  Uiso   1.00
C16    C     0.27470   0.11522   0.49905   0.00000  Uiso   1.00
C17    C     0.28001   0.16610   0.08486   0.00000  Uiso   1.00
C18    C     0.03698   0.22788   0.43639   0.00000  Uiso   1.00
C19    C     0.07452   0.25942   0.47716   0.00000  Uiso   1.00
C20    C     0.13021   0.24492   0.49713   0.00000  Uiso   1.00
H21    H     0.01095   0.11430   0.06862   0.00000  Uiso   1.00
H22    H     0.26827   0.32991   0.25702   0.00000  Uiso   1.00
H23    H     0.15670   0.12515   0.20827   0.00000  Uiso   1.00
H24    H     0.17663   0.20819   0.29173   0.00000  Uiso   1.00
H25    H     0.19695   0.06984   0.41559   0.00000  Uiso   1.00
H26    H     0.29148   0.08476   0.47606   0.00000  Uiso   1.00
H27    H     0.32974   0.24260   0.41689   0.00000  Uiso   1.00
H28    H     0.16048   0.27444   0.02173   0.00000  Uiso   1.00
H29    H     0.06214   0.29709   0.49010   0.00000  Uiso   1.00
H30    H     0.09814   0.09192   0.38694   0.00000  Uiso   1.00
H31    H     0.06526   0.00346   0.24362   0.00000  Uiso   1.00
N32    N     0.14493   0.15223   0.23543   0.00000  Uiso   1.00
N33    N     0.18840   0.18110   0.26458   0.00000  Uiso   1.00
O34    O     0.29769   0.24629   0.25358   0.00000  Uiso   1.00
O35    O     0.05742   0.23704   0.24424   0.00000  Uiso   1.00
O36    O     0.31490   0.17358   0.33380   0.00000  Uiso   1.00
O37    O     0.07463   0.16433   0.32446   0.00000  Uiso   1.00
O38    O     0.27592   0.09629   0.25577   0.00000  Uiso   1.00
O39    O     0.03565   0.08704   0.24643   0.00000  Uiso   1.00
O40    O     0.25870   0.16901   0.17554   0.00000  Uiso   1.00
O41    O     0.01843   0.15976   0.16620   0.00000  Uiso   1.00
Zn42   Zn    0.27119   0.17284   0.25624   0.00000  Uiso   1.00
Zn43   Zn    0.06214   0.16049   0.24377   0.00000  Uiso   1.00
C44    C     0.20792   0.22894   0.09953   0.00000  Uiso   1.00
O45    O     0.16000   0.21928   0.11148   0.00000  Uiso   1.00
O46    O     0.24298   0.27368   0.12304   0.00000  Uiso   1.00
H47    H     0.22341   0.29563   0.14835   0.00000  Uiso   1.00
C48    C     0.34827   0.26494   0.24871   0.00000  Uiso   1.00
C49    C     0.47974   0.19475   0.48298   0.00000  Uiso   1.00
C50    C     0.44243   0.16411   0.43951   0.00000  Uiso   1.00
C51    C     0.53296   0.17497   0.00791   0.00000  Uiso   1.00
C52    C     0.55320   0.13238   0.47964   0.00000  Uiso   1.00
C53    C     0.51658   0.10415   0.43521   0.00000  Uiso   1.00
C54    C     0.46026   0.11730   0.41858   0.00000  Uiso   1.00
C55    C     0.56385   0.19166   0.06215   0.00000  Uiso   1.00
C56    C     0.63837   0.13242   0.05157   0.00000  Uiso   1.00
C57    C     0.38993   0.18307   0.41391   0.00000  Uiso   1.00
C58    C     0.35604   0.31954   0.24801   0.00000  Uiso   1.00
C59    C     0.36896   0.16989   0.35495   0.00000  Uiso   1.00
C60    C     0.64415   0.01383   0.25259   0.00000  Uiso   1.00
C61    C     0.65179   0.06841   0.25150   0.00000  Uiso   1.00
C62    C     0.63148   0.16585   0.14513   0.00000  Uiso   1.00
C63    C     0.60803   0.11522   0.49905   0.00000  Uiso   1.00
C64    C     0.61334   0.16610   0.08486   0.00000  Uiso   1.00
C65    C     0.37031   0.22788   0.43639   0.00000  Uiso   1.00
C66    C     0.40786   0.25942   0.47716   0.00000  Uiso   1.00
C67    C     0.46355   0.24492   0.49713   0.00000  Uiso   1.00
H68    H     0.34429   0.11430   0.06862   0.00000  Uiso   1.00
H69    H     0.60160   0.32991   0.25702   0.00000  Uiso   1.00
H70    H     0.49004   0.12515   0.20827   0.00000  Uiso   1.00
H71    H     0.50997   0.20819   0.29173   0.00000  Uiso   1.00
H72    H     0.53029   0.06984   0.41559   0.00000  Uiso   1.00
H73    H     0.62482   0.08476   0.47606   0.00000  Uiso   1.00
H74    H     0.66307   0.24260   0.41689   0.00000  Uiso   1.00
H75    H     0.49381   0.27444   0.02173   0.00000  Uiso   1.00
H76    H     0.39547   0.29709   0.49010   0.00000  Uiso   1.00
H77    H     0.43147   0.09192   0.38694   0.00000  Uiso   1.00
H78    H     0.39860   0.00346   0.24362   0.00000  Uiso   1.00
N79    N     0.47827   0.15223   0.23543   0.00000  Uiso   1.00
N80    N     0.52173   0.18110   0.26458   0.00000  Uiso   1.00
O81    O     0.63102   0.24629   0.25358   0.00000  Uiso   1.00
O82    O     0.39075   0.23704   0.24424   0.00000  Uiso   1.00
O83    O     0.64823   0.17358   0.33380   0.00000  Uiso   1.00
O84    O     0.40796   0.16433   0.32446   0.00000  Uiso   1.00
O85    O     0.60925   0.09629   0.25577   0.00000  Uiso   1.00
O86    O     0.36898   0.08704   0.24643   0.00000  Uiso   1.00
O87    O     0.59204   0.16901   0.17554   0.00000  Uiso   1.00
O88    O     0.35177   0.15976   0.16620   0.00000  Uiso   1.00
Zn89   Zn    0.60453   0.17284   0.25624   0.00000  Uiso   1.00
Zn90   Zn    0.39547   0.16049   0.24377   0.00000  Uiso   1.00
C91    C     0.54125   0.22894   0.09953   0.00000  Uiso   1.00
O92    O     0.49334   0.21928   0.11148   0.00000  Uiso   1.00
O93    O     0.57632   0.27368   0.12304   0.00000  Uiso   1.00
H94    H     0.55674   0.29563   0.14835   0.00000  Uiso   1.00
C95    C     0.68160   0.26494   0.24871   0.00000  Uiso   1.00
C96    C     0.81308   0.19475   0.48298   0.00000  Uiso   1.00
C97    C     0.77576   0.16411   0.43951   0.00000  Uiso   1.00
C98    C     0.86629   0.17497   0.00791   0.00000  Uiso   1.00
C99    C     0.88653   0.13238   0.47964   0.00000  Uiso   1.00
C100   C     0.84991   0.10415   0.43521   0.00000  Uiso   1.00
C101   C     0.79359   0.11730   0.41858   0.00000  Uiso   1.00
C102   C     0.89718   0.19166   0.06215   0.00000  Uiso   1.00
C103   C     0.97171   0.13242   0.05157   0.00000  Uiso   1.00
C104   C     0.72327   0.18307   0.41391   0.00000  Uiso   1.00
C105   C     0.68937   0.31954   0.24801   0.00000  Uiso   1.00
C106   C     0.70229   0.16989   0.35495   0.00000  Uiso   1.00
C107   C     0.97748   0.01383   0.25259   0.00000  Uiso   1.00
C108   C     0.98513   0.06841   0.25150   0.00000  Uiso   1.00
C109   C     0.96482   0.16585   0.14513   0.00000  Uiso   1.00
C110   C     0.94136   0.11522   0.49905   0.00000  Uiso   1.00
C111   C     0.94668   0.16610   0.08486   0.00000  Uiso   1.00
C112   C     0.70365   0.22788   0.43639   0.00000  Uiso   1.00
C113   C     0.74119   0.25942   0.47716   0.00000  Uiso   1.00
C114   C     0.79688   0.24492   0.49713   0.00000  Uiso   1.00
H115   H     0.67762   0.11430   0.06862   0.00000  Uiso   1.00
H116   H     0.93494   0.32991   0.25702   0.00000  Uiso   1.00
H117   H     0.82337   0.12515   0.20827   0.00000  Uiso   1.00
H118   H     0.84330   0.20819   0.29173   0.00000  Uiso   1.00
H119   H     0.86362   0.06984   0.41559   0.00000  Uiso   1.00
H120   H     0.95815   0.08476   0.47606   0.00000  Uiso   1.00
H121   H     0.99641   0.24260   0.41689   0.00000  Uiso   1.00
H122   H     0.82715   0.27444   0.02173   0.00000  Uiso   1.00
H123   H     0.72881   0.29709   0.49010   0.00000  Uiso   1.00
H124   H     0.76480   0.09192   0.38694   0.00000  Uiso   1.00
H125   H     0.73193   0.00346   0.24362   0.00000  Uiso   1.00
N126   N     0.81160   0.15223   0.23543   0.00000  Uiso   1.00
N127   N     0.85507   0.18110   0.26458   0.00000  Uiso   1.00
O128   O     0.96435   0.24629   0.25358   0.00000  Uiso   1.00
O129   O     0.72408   0.23704   0.24424   0.00000  Uiso   1.00
O130   O     0.98157   0.17358   0.33380   0.00000  Uiso   1.00
O131   O     0.74130   0.16433   0.32446   0.00000  Uiso   1.00
O132   O     0.94258   0.09629   0.25577   0.00000  Uiso   1.00
O133   O     0.70231   0.08704   0.24643   0.00000  Uiso   1.00
O134   O     0.92537   0.16901   0.17554   0.00000  Uiso   1.00
O135   O     0.68510   0.15976   0.16620   0.00000  Uiso   1.00
Zn136  Zn    0.93786   0.17284   0.25624   0.00000  Uiso   1.00
Zn137  Zn    0.72881   0.16049   0.24377   0.00000  Uiso   1.00
C138   C     0.87458   0.22894   0.09953   0.00000  Uiso   1.00
O139   O     0.82667   0.21928   0.11148   0.00000  Uiso   1.00
O140   O     0.90965   0.27368   0.12304   0.00000  Uiso   1.00
H141   H     0.89007   0.29563   0.14835   0.00000  Uiso   1.00
C142   C     0.01494   0.59827   0.24871   0.00000  Uiso   1.00
C143   C     0.14641   0.52809   0.48298   0.00000  Uiso   1.00
C144   C     0.10910   0.49744   0.43951   0.00000  Uiso   1.00
C145   C     0.19962   0.50831   0.00791   0.00000  Uiso   1.00
C146   C     0.21987   0.46571   0.47964   0.00000  Uiso   1.00
C147   C     0.18324   0.43748   0.43521   0.00000  Uiso   1.00
C148   C     0.12692   0.45063   0.41858   0.00000  Uiso   1.00
C149   C     0.23051   0.52499   0.06215   0.00000  Uiso   1.00
C150   C     0.30504   0.46576   0.05157   0.00000  Uiso   1.00
C151   C     0.05660   0.51641   0.41391   0.00000  Uiso   1.00
C152   C     0.02270   0.65287   0.24801   0.00000  Uiso   1.00
C153   C     0.03563   0.50323   0.35495   0.00000  Uiso   1.00
C154   C     0.31081   0.34717   0.25259   0.00000  Uiso   1.00
C155   C     0.31846   0.40174   0.25150   0.00000  Uiso   1.00
C156   C     0.29815   0.49919   0.14513   0.00000  Uiso   1.00
C157   C     0.27470   0.44855   0.49905   0.00000  Uiso   1.00
C158   C     0.28001   0.49943   0.08486   0.00000  Uiso   1.00
C159   C     0.03698   0.56122   0.43639   0.00000  Uiso   1.00
C160   C     0.07452   0.59275   0.47716   0.00000  Uiso   1.00
C161   C     0.13021   0.57825   0.49713   0.00000  Uiso   1.00
H162   H     0.01095   0.44764   0.06862   0.00000  Uiso   1.00
H163   H     0.26827   0.66325   0.25702   0.00000  Uiso   1.00
H164   H     0.15670   0.45848   0.20827   0.00000  Uiso   1.00
H165   H     0.17663   0.54152   0.29173   0.00000  Uiso   1.00
H166   H     0.19695   0.40317   0.41559   0.00000  Uiso   1.00
H167   H     0.29148   0.41809   0.47606   0.00000  Uiso   1.00
H168   H     0.32974   0.57593   0.41689   0.00000  Uiso   1.00
H169   H     0.16048   0.60778   0.02173   0.00000  Uiso   1.00
H170   H     0.06214   0.63042   0.49010   0.00000  Uiso   1.00
H171   H     0.09814   0.42525   0.38694   0.00000  Uiso   1.00
H172   H     0.06526   0.33679   0.24362   0.00000  Uiso   1.00
N173   N     0.14493   0.48556   0.23543   0.00000  Uiso   1.00
N174   N     0.18840   0.51444   0.26458   0.00000  Uiso   1.00
O175   O     0.29769   0.57963   0.25358   0.00000  Uiso   1.00
O176   O     0.05742   0.57038   0.24424   0.00000  Uiso   1.00
O177   O     0.31490   0.50691   0.33380   0.00000  Uiso   1.00
O178   O     0.07463   0.49766   0.32446   0.00000  Uiso   1.00
O179   O     0.27592   0.42962   0.25577   0.00000  Uiso   1.00
O180   O     0.03565   0.42037   0.24643   0.00000  Uiso   1.00
O181   O     0.25870   0.50234   0.17554   0.00000  Uiso   1.00
O182   O     0.01843   0.49309   0.16620   0.00000  Uiso   1.00
Zn183  Zn    0.27119   0.50618   0.25624   0.00000  Uiso   1.00
Zn184  Zn    0.06214   0.49382   0.24377   0.00000  Uiso   1.00
C185   C     0.20792   0.56227   0.09953   0.00000  Uiso   1.00
O186   O     0.16000   0.55261   0.11148   0.00000  Uiso   1.00
O187   O     0.24298   0.60701   0.12304   0.00000  Uiso   1.00
H188   H     0.22341   0.62897   0.14835   0.00000  Uiso   1.00
C189   C     0.34827   0.59827   0.24871   0.00000  Uiso   1.00
C190   C     0.47974   0.52809   0.48298   0.00000  Uiso   1.00
C191   C     0.44243   0.49744   0.43951   0.00000  Uiso   1.00
C192   C     0.53296   0.50831   0.00791   0.00000  Uiso   1.00
C193   C     0.55320   0.46571   0.47964   0.00000  Uiso   1.00
C194   C     0.51658   0.43748   0.43521   0.00000  Uiso   1.00
C195   C     0.46026   0.45063   0.41858   0.00000  Uiso   1.00
C196   C     0.56385   0.52499   0.06215   0.00000  Uiso   1.00
C197   C     0.63837   0.46576   0.05157   0.00000  Uiso   1.00
C198   C     0.38993   0.51641   0.41391   0.00000  Uiso   1.00
C199   C     0.35604   0.65287   0.24801   0.00000  Uiso   1.00
C200   C     0.36896   0.50323   0.35495   0.00000  Uiso   1.00
C201   C     0.64415   0.34717   0.25259   0.00000  Uiso   1.00
C202   C     0.65179   0.40174   0.25150   0.00000  Uiso   1.00
C203   C     0.63148   0.49919   0.14513   0.00000  Uiso   1.00
C204   C     0.60803   0.44855   0.49905   0.00000  Uiso   1.00
C205   C     0.61334   0.49943   0.08486   0.00000  Uiso   1.00
C206   C     0.37031   0.56122   0.43639   0.00000  Uiso   1.00
C207   C     0.40786   0.59275   0.47716   0.00000  Uiso   1.00
C208   C     0.46355   0.57825   0.49713   0.00000  Uiso   1.00
H209   H     0.34429   0.44764   0.06862   0.00000  Uiso   1.00
H210   H     0.60160   0.66325   0.25702   0.00000  Uiso   1.00
H211   H     0.49004   0.45848   0.20827   0.00000  Uiso   1.00
H212   H     0.50997   0.54152   0.29173   0.00000  Uiso   1.00
H213   H     0.53029   0.40317   0.41559   0.00000  Uiso   1.00
H214   H     0.62482   0.41809   0.47606   0.00000  Uiso   1.00
H215   H     0.66307   0.57593   0.41689   0.00000  Uiso   1.00
H216   H     0.49381   0.60778   0.02173   0.00000  Uiso   1.00
H217   H     0.39547   0.63042   0.49010   0.00000  Uiso   1.00
H218   H     0.43147   0.42525   0.38694   0.00000  Uiso   1.00
H219   H     0.39860   0.33679   0.24362   0.00000  Uiso   1.00
N220   N     0.47827   0.48556   0.23543   0.00000  Uiso   1.00
N221   N     0.52173   0.51444   0.26458   0.00000  Uiso   1.00
O222   O     0.63102   0.57963   0.25358   0.00000  Uiso   1.00
O223   O     0.39075   0.57038   0.24424   0.00000  Uiso   1.00
O224   O     0.64823   0.50691   0.33380   0.00000  Uiso   1.00
O225   O     0.40796   0.49766   0.32446   0.00000  Uiso   1.00
O226   O     0.60925   0.42962   0.25577   0.00000  Uiso   1.00
O227   O     0.36898   0.42037   0.24643   0.00000  Uiso   1.00
O228   O     0.59204   0.50234   0.17554   0.00000  Uiso   1.00
O229   O     0.35177   0.49309   0.16620   0.00000  Uiso   1.00
Zn230  Zn    0.60453   0.50618   0.25624   0.00000  Uiso   1.00
Zn231  Zn    0.39547   0.49382   0.24377   0.00000  Uiso   1.00
C232   C     0.54125   0.56227   0.09953   0.00000  Uiso   1.00
O233   O     0.49334   0.55261   0.11148   0.00000  Uiso   1.00
O234   O     0.57632   0.60701   0.12304   0.00000  Uiso   1.00
H235   H     0.55674   0.62897   0.14835   0.00000  Uiso   1.00
C236   C     0.68160   0.59827   0.24871   0.00000  Uiso   1.00
C237   C     0.81308   0.52809   0.48298   0.00000  Uiso   1.00
C238   C     0.77576   0.49744   0.43951   0.00000  Uiso   1.00
C239   C     0.86629   0.50831   0.00791   0.00000  Uiso   1.00
C240   C     0.88653   0.46571   0.47964   0.00000  Uiso   1.00
C241   C     0.84991   0.43748   0.43521   0.00000  Uiso   1.00
C242   C     0.79359   0.45063   0.41858   0.00000  Uiso   1.00
C243   C     0.89718   0.52499   0.06215   0.00000  Uiso   1.00
C244   C     0.97171   0.46576   0.05157   0.00000  Uiso   1.00
C245   C     0.72327   0.51641   0.41391   0.00000  Uiso   1.00
C246   C     0.68937   0.65287   0.24801   0.00000  Uiso   1.00
C247   C     0.70229   0.50323   0.35495   0.00000  Uiso   1.00
C248   C     0.97748   0.34717   0.25259   0.00000  Uiso   1.00
C249   C     0.98513   0.40174   0.25150   0.00000  Uiso   1.00
C250   C     0.96482   0.49919   0.14513   0.00000  Uiso   1.00
C251   C     0.94136   0.44855   0.49905   0.00000  Uiso   1.00
C252   C     0.94668   0.49943   0.08486   0.00000  Uiso   1.00
C253   C     0.70365   0.56122   0.43639   0.00000  Uiso   1.00
C254   C     0.74119   0.59275   0.47716   0.00000  Uiso   1.00
C255   C     0.79688   0.57825   0.49713   0.00000  Uiso   1.00
H256   H     0.67762   0.44764   0.06862   0.00000  Uiso   1.00
H257   H     0.93494   0.66325   0.25702   0.00000  Uiso   1.00
H258   H     0.82337   0.45848   0.20827   0.00000  Uiso   1.00
H259   H     0.84330   0.54152   0.29173   0.00000  Uiso   1.00
H260   H     0.86362   0.40317   0.41559   0.00000  Uiso   1.00
H261   H     0.95815   0.41809   0.47606   0.00000  Uiso   1.00
H262   H     0.99641   0.57593   0.41689   0.00000  Uiso   1.00
H263   H     0.82715   0.60778   0.02173   0.00000  Uiso   1.00
H264   H     0.72881   0.63042   0.49010   0.00000  Uiso   1.00
H265   H     0.76480   0.42525   0.38694   0.00000  Uiso   1.00
H266   H     0.73193   0.33679   0.24362   0.00000  Uiso   1.00
N267   N     0.81160   0.48556   0.23543   0.00000  Uiso   1.00
N268   N     0.85507   0.51444   0.26458   0.00000  Uiso   1.00
O269   O     0.96435   0.57963   0.25358   0.00000  Uiso   1.00
O270   O     0.72408   0.57038   0.24424   0.00000  Uiso   1.00
O271   O     0.98157   0.50691   0.33380   0.00000  Uiso   1.00
O272   O     0.74130   0.49766   0.32446   0.00000  Uiso   1.00
O273   O     0.94258   0.42962   0.25577   0.00000  Uiso   1.00
O274   O     0.70231   0.42037   0.24643   0.00000  Uiso   1.00
O275   O     0.92537   0.50234   0.17554   0.00000  Uiso   1.00
O276   O     0.68510   0.49309   0.16620   0.00000  Uiso   1.00
Zn277  Zn    0.93786   0.50618   0.25624   0.00000  Uiso   1.00
Zn278  Zn    0.72881   0.49382   0.24377   0.00000  Uiso   1.00
C279   C     0.87458   0.56227   0.09953   0.00000  Uiso   1.00
O280   O     0.82667   0.55261   0.11148   0.00000  Uiso   1.00
O281   O     0.90965   0.60701   0.12304   0.00000  Uiso   1.00
H282   H     0.89007   0.62897   0.14835   0.00000  Uiso   1.00
C283   C     0.01494   0.93160   0.24871   0.00000  Uiso   1.00
C284   C     0.14641   0.86142   0.48298   0.00000  Uiso   1.00
C285   C     0.10910   0.83077   0.43951   0.00000  Uiso   1.00
C286   C     0.19962   0.84164   0.00791   0.00000  Uiso   1.00
C287   C     0.21987   0.79904   0.47964   0.00000  Uiso   1.00
C288   C     0.18324   0.77082   0.43521   0.00000  Uiso   1.00
C289   C     0.12692   0.78397   0.41858   0.00000  Uiso   1.00
C290   C     0.23051   0.85832   0.06215   0.00000  Uiso   1.00
C291   C     0.30504   0.79909   0.05157   0.00000  Uiso   1.00
C292   C     0.05660   0.84974   0.41391   0.00000  Uiso   1.00
C293   C     0.02270   0.98620   0.24801   0.00000  Uiso   1.00
C294   C     0.03563   0.83656   0.35495   0.00000  Uiso   1.00
C295   C     0.31081   0.68050   0.25259   0.00000  Uiso   1.00
C296   C     0.31846   0.73508   0.25150   0.00000  Uiso   1.00
C297   C     0.29815   0.83252   0.14513   0.00000  Uiso   1.00
C298   C     0.27470   0.78189   0.49905   0.00000  Uiso   1.00
C299   C     0.28001   0.83276   0.08486   0.00000  Uiso   1.00
C300   C     0.03698   0.89455   0.43639   0.00000  Uiso   1.00
C301   C     0.07452   0.92608   0.47716   0.00000  Uiso   1.00
C302   C     0.13021   0.91158   0.49713   0.00000  Uiso   1.00
H303   H     0.01095   0.78097   0.06862   0.00000  Uiso   1.00
H304   H     0.26827   0.99658   0.25702   0.00000  Uiso   1.00
H305   H     0.15670   0.79182   0.20827   0.00000  Uiso   1.00
H306   H     0.17663   0.87486   0.29173   0.00000  Uiso   1.00
H307   H     0.19695   0.73650   0.41559   0.00000  Uiso   1.00
H308   H     0.29148   0.75143   0.47606   0.00000  Uiso   1.00
H309   H     0.32974   0.90926   0.41689   0.00000  Uiso   1.00
H310   H     0.16048   0.94111   0.02173   0.00000  Uiso   1.00
H311   H     0.06214   0.96375   0.49010   0.00000  Uiso   1.00
H312   H     0.09814   0.75858   0.38694   0.00000  Uiso   1.00
H313   H     0.06526   0.67012   0.24362   0.00000  Uiso   1.00
N314   N     0.14493   0.81890   0.23543   0.00000  Uiso   1.00
N315   N     0.18840   0.84777   0.26458   0.00000  Uiso   1.00
O316   O     0.29769   0.91296   0.25358   0.00000  Uiso   1.00
O317   O     0.05742   0.90371   0.24424   0.00000  Uiso   1.00
O318   O     0.31490   0.84024   0.33380   0.00000  Uiso   1.00
O319   O     0.07463   0.83099   0.32446   0.00000  Uiso   1.00
O320   O     0.27592   0.76296   0.25577   0.00000  Uiso   1.00
O321   O     0.03565   0.75371   0.24643   0.00000  Uiso   1.00
O322   O     0.25870   0.83567   0.17554   0.00000  Uiso   1.00
O323   O     0.01843   0.82642   0.16620   0.00000  Uiso   1.00
Zn324  Zn    0.27119   0.83951   0.25624   0.00000  Uiso   1.00
Zn325  Zn    0.06214   0.82716   0.24377   0.00000  Uiso   1.00
C326   C     0.20792   0.89561   0.09953   0.00000  Uiso   1.00
O327   O     0.16000   0.88595   0.11148   0.00000  Uiso   1.00
O328   O     0.24298   0.94035   0.12304   0.00000  Uiso   1.00
H329   H     0.22341   0.96230   0.14835   0.00000  Uiso   1.00
C330   C     0.34827   0.93160   0.24871   0.00000  Uiso   1.00
C331   C     0.47974   0.86142   0.48298   0.00000  Uiso   1.00
C332   C     0.44243   0.83077   0.43951   0.00000  Uiso   1.00
C333   C     0.53296   0.84164   0.00791   0.00000  Uiso   1.00
C334   C     0.55320   0.79904   0.47964   0.00000  Uiso   1.00
C335   C     0.51658   0.77082   0.43521   0.00000  Uiso   1.00
C336   C     0.46026   0.78397   0.41858   0.00000  Uiso   1.00
C337   C     0.56385   0.85832   0.06215   0.00000  Uiso   1.00
C338   C     0.63837   0.79909   0.05157   0.00000  Uiso   1.00
C339   C     0.38993   0.84974   0.41391   0.00000  Uiso   1.00
C340   C     0.35604   0.98620   0.24801   0.00000  Uiso   1.00
C341   C     0.36896   0.83656   0.35495   0.00000  Uiso   1.00
C342   C     0.64415   0.68050   0.25259   0.00000  Uiso   1.00
C343   C     0.65179   0.73508   0.25150   0.00000  Uiso   1.00
C344   C     0.63148   0.83252   0.14513   0.00000  Uiso   1.00
C345   C     0.60803   0.78189   0.49905   0.00000  Uiso   1.00
C346   C     0.61334   0.83276   0.08486   0.00000  Uiso   1.00
C347   C     0.37031   0.89455   0.43639   0.00000  Uiso   1.00
C348   C     0.40786   0.92608   0.47716   0.00000  Uiso   1.00
C349   C     0.46355   0.91158   0.49713   0.00000  Uiso   1.00
H350   H     0.34429   0.78097   0.06862   0.00000  Uiso   1.00
H351   H     0.60160   0.99658   0.25702   0.00000  Uiso   1.00
H352   H     0.49004   0.79182   0.20827   0.00000  Uiso   1.00
H353   H     0.50997   0.87486   0.29173   0.00000  Uiso   1.00
H354   H     0.53029   0.73650   0.41559   0.00000  Uiso   1.00
H355   H     0.62482   0.75143   0.47606   0.00000  Uiso   1.00
H356   H     0.66307   0.90926   0.41689   0.00000  Uiso   1.00
H357   H     0.49381   0.94111   0.02173   0.00000  Uiso   1.00
H358   H     0.39547   0.96375   0.49010   0.00000  Uiso   1.00
H359   H     0.43147   0.75858   0.38694   0.00000  Uiso   1.00
H360   H     0.39860   0.67012   0.24362   0.00000  Uiso   1.00
N361   N     0.47827   0.81890   0.23543   0.00000  Uiso   1.00
N362   N     0.52173   0.84777   0.26458   0.00000  Uiso   1.00
O363   O     0.63102   0.91296   0.25358   0.00000  Uiso   1.00
O364   O     0.39075   0.90371   0.24424   0.00000  Uiso   1.00
O365   O     0.64823   0.84024   0.33380   0.00000  Uiso   1.00
O366   O     0.40796   0.83099   0.32446   0.00000  Uiso   1.00
O367   O     0.60925   0.76296   0.25577   0.00000  Uiso   1.00
O368   O     0.36898   0.75371   0.24643   0.00000  Uiso   1.00
O369   O     0.59204   0.83567   0.17554   0.00000  Uiso   1.00
O370   O     0.35177   0.82642   0.16620   0.00000  Uiso   1.00
Zn371  Zn    0.60453   0.83951   0.25624   0.00000  Uiso   1.00
Zn372  Zn    0.39547   0.82716   0.24377   0.00000  Uiso   1.00
C373   C     0.54125   0.89561   0.09953   0.00000  Uiso   1.00
O374   O     0.49334   0.88595   0.11148   0.00000  Uiso   1.00
O375   O     0.57632   0.94035   0.12304   0.00000  Uiso   1.00
H376   H     0.55674   0.96230   0.14835   0.00000  Uiso   1.00
C377   C     0.68160   0.93160   0.24871   0.00000  Uiso   1.00
C378   C     0.81308   0.86142   0.48298   0.00000  Uiso   1.00
C379   C     0.77576   0.83077   0.43951   0.00000  Uiso   1.00
C380   C     0.86629   0.84164   0.00791   0.00000  Uiso   1.00
C381   C     0.88653   0.79904   0.47964   0.00000  Uiso   1.00
C382   C     0.84991   0.77082   0.43521   0.00000  Uiso   1.00
C383   C     0.79359   0.78397   0.41858   0.00000  Uiso   1.00
C384   C     0.89718   0.85832   0.06215   0.00000  Uiso   1.00
C385   C     0.97171   0.79909   0.05157   0.00000  Uiso   1.00
C386   C     0.72327   0.84974   0.41391   0.00000  Uiso   1.00
C387   C     0.68937   0.98620   0.24801   0.00000  Uiso   1.00
C388   C     0.70229   0.83656   0.35495   0.00000  Uiso   1.00
C389   C     0.97748   0.68050   0.25259   0.00000  Uiso   1.00
C390   C     0.98513   0.73508   0.25150   0.00000  Uiso   1.00
C391   C     0.96482   0.83252   0.14513   0.00000  Uiso   1.00
C392   C     0.94136   0.78189   0.49905   0.00000  Uiso   1.00
C393   C     0.94668   0.83276   0.08486   0.00000  Uiso   1.00
C394   C     0.70365   0.89455   0.43639   0.00000  Uiso   1.00
C395   C     0.74119   0.92608   0.47716   0.00000  Uiso   1.00
C396   C     0.79688   0.91158   0.49713   0.00000  Uiso   1.00
H397   H     0.67762   0.78097   0.06862   0.00000  Uiso   1.00
H398   H     0.93494   0.99658   0.25702   0.00000  Uiso   1.00
H399   H     0.82337   0.79182   0.20827   0.00000  Uiso   1.00
H400   H     0.84330   0.87486   0.29173   0.00000  Uiso   1.00
H401   H     0.86362   0.73650   0.41559   0.00000  Uiso   1.00
H402   H     0.95815   0.75143   0.47606   0.00000  Uiso   1.00
H403   H     0.99641   0.90926   0.41689   0.00000  Uiso   1.00
H404   H     0.82715   0.94111   0.02173   0.00000  Uiso   1.00
H405   H     0.72881   0.96375   0.49010   0.00000  Uiso   1.00
H406   H     0.76480   0.75858   0.38694   0.00000  Uiso   1.00
H407   H     0.73193   0.67012   0.24362   0.00000  Uiso   1.00
N408   N     0.81160   0.81890   0.23543   0.00000  Uiso   1.00
N409   N     0.85507   0.84777   0.26458   0.00000  Uiso   1.00
O410   O     0.96435   0.91296   0.25358   0.00000  Uiso   1.00
O411   O     0.72408   0.90371   0.24424   0.00000  Uiso   1.00
O412   O     0.98157   0.84024   0.33380   0.00000  Uiso   1.00
O413   O     0.74130   0.83099   0.32446   0.00000  Uiso   1.00
O414   O     0.94258   0.76296   0.25577   0.00000  Uiso   1.00
O415   O     0.70231   0.75371   0.24643   0.00000  Uiso   1.00
O416   O     0.92537   0.83567   0.17554   0.00000  Uiso   1.00
O417   O     0.68510   0.82642   0.16620   0.00000  Uiso   1.00
Zn418  Zn    0.93786   0.83951   0.25624   0.00000  Uiso   1.00
Zn419  Zn    0.72881   0.82716   0.24377   0.00000  Uiso   1.00
C420   C     0.87458   0.89561   0.09953   0.00000  Uiso   1.00
O421   O     0.82667   0.88595   0.11148   0.00000  Uiso   1.00
O422   O     0.90965   0.94035   0.12304   0.00000  Uiso   1.00
H423   H     0.89007   0.96230   0.14835   0.00000  Uiso   1.00
C424   C     0.01494   0.26494   0.74871   0.00000  Uiso   1.00
C425   C     0.14641   0.19475   0.98298   0.00000  Uiso   1.00
C426   C     0.10910   0.16411   0.93951   0.00000  Uiso   1.00
C427   C     0.19962   0.17497   0.50791   0.00000  Uiso   1.00
C428   C     0.21987   0.13238   0.97964   0.00000  Uiso   1.00
C429   C     0.18324   0.10415   0.93521   0.00000  Uiso   1.00
C430   C     0.12692   0.11730   0.91858   0.00000  Uiso   1.00
C431   C     0.23051   0.19166   0.56215   0.00000  Uiso   1.00
C432   C     0.30504   0.13242   0.55157   0.00000  Uiso   1.00
C433   C     0.05660   0.18307   0.91391   0.00000  Uiso   1.00
C434   C     0.02270   0.31954   0.74801   0.00000  Uiso   1.00
C435   C     0.03563   0.16989   0.85495   0.00000  Uiso   1.00
C436   C     0.31081   0.01383   0.75259   0.00000  Uiso   1.00
C437   C     0.31846   0.06841   0.75150   0.00000  Uiso   1.00
C438   C     0.29815   0.16585   0.64513   0.00000  Uiso   1.00
C439   C     0.27470   0.11522   0.99905   0.00000  Uiso   1.00
C440   C     0.28001   0.16610   0.58486   0.00000  Uiso   1.00
C441   C     0.03698   0.22788   0.93639   0.00000  Uiso   1.00
C442   C     0.07452   0.25942   0.97716   0.00000  Uiso   1.00
C443   C     0.13021   0.24492   0.99713   0.00000  Uiso   1.00
H444   H     0.01095   0.11430   0.56862   0.00000  Uiso   1.00
H445   H     0.26827   0.32991   0.75702   0.00000  Uiso   1.00
H446   H     0.15670   0.12515   0.70827   0.00000  Uiso   1.00
H447   H     0.17663   0.20819   0.79173   0.00000  Uiso   1.00
H448   H     0.19695   0.06984   0.91559   0.00000  Uiso   1.00
H449   H     0.29148   0.08476   0.97606   0.00000  Uiso   1.00
H450   H     0.32974   0.24260   0.91689   0.00000  Uiso   1.00
H451   H     0.16048   0.27444   0.52173   0.00000  Uiso   1.00
H452   H     0.06214   0.29709   0.99010   0.00000  Uiso   1.00
H453   H     0.09814   0.09192   0.88694   0.00000  Uiso   1.00
H454   H     0.06526   0.00346   0.74362   0.00000  Uiso   1.00
N455   N     0.14493   0.15223   0.73543   0.00000  Uiso   1.00
N456   N     0.18840   0.18110   0.76458   0.00000  Uiso   1.00
O457   O     0.29769   0.24629   0.75358   0.00000  Uiso   1.00
O458   O     0.05742   0.23704   0.74424   0.00000  Uiso   1.00
O459   O     0.31490   0.17358   0.83380   0.00000  Uiso   1.00
O460   O     0.07463   0.16433   0.82446   0.00000  Uiso   1.00
O461   O     0.27592   0.09629   0.75577   0.00000  Uiso   1.00
O462   O     0.03565   0.08704   0.74643   0.00000  Uiso   1.00
O463   O     0.25870   0.16901   0.67554   0.00000  Uiso   1.00
O464   O     0.01843   0.15976   0.66620   0.00000  Uiso   1.00
Zn465  Zn    0.27119   0.17284   0.75624   0.00000  Uiso   1.00
Zn466  Zn    0.06214   0.16049   0.74377   0.00000  Uiso   1.00
C467   C     0.20792   0.22894   0.59953   0.00000  Uiso   1.00
O468   O     0.16000   0.21928   0.61148   0.00000  Uiso   1.00
O469   O     0.24298   0.27368   0.62304   0.00000  Uiso   1.00
H470   H     0.22341   0.29563   0.64835   0.00000  Uiso   1.00
C471   C     0.34827   0.26494   0.74871   0.00000  Uiso   1.00
C472   C     0.47974   0.19475   0.98298   0.00000  Uiso   1.00
C473   C     0.44243   0.16411   0.93951   0.00000  Uiso   1.00
C474   C     0.53296   0.17497   0.50791   0.00000  Uiso   1.00
C475   C     0.55320   0.13238   0.97964   0.00000  Uiso   1.00
C476   C     0.51658   0.10415   0.93521   0.00000  Uiso   1.00
C477   C     0.46026   0.11730   0.91858   0.00000  Uiso   1.00
C478   C     0.56385   0.19166   0.56215   0.00000  Uiso   1.00
C479   C     0.63837   0.13242   0.55157   0.00000  Uiso   1.00
C480   C     0.38993   0.18307   0.91391   0.00000  Uiso   1.00
C481   C     0.35604   0.31954   0.74801   0.00000  Uiso   1.00
C482   C     0.36896   0.16989   0.85495   0.00000  Uiso   1.00
C483   C     0.64415   0.01383   0.75259   0.00000  Uiso   1.00
C484   C     0.65179   0.06841   0.75150   0.00000  Uiso   1.00
C485   C     0.63148   0.16585   0.64513   0.00000  Uiso   1.00
C486   C     0.60803   0.11522   0.99905   0.00000  Uiso   1.00
C487   C     0.61334   0.16610   0.58486   0.00000  Uiso   1.00
C488   C     0.37031   0.22788   0.93639   0.00000  Uiso   1.00
C489   C     0.40786   0.25942   0.97716   0.00000  Uiso   1.00
C490   C     0.46355   0.24492   0.99713   0.00000  Uiso   1.00
H491   H     0.34429   0.11430   0.56862   0.00000  Uiso   1.00
H492   H     0.60160   0.32991   0.75702   0.00000  Uiso   1.00
H493   H     0.49004   0.12515   0.70827   0.00000  Uiso   1.00
H494   H     0.50997   0.20819   0.79173   0.00000  Uiso   1.00
H495   H     0.53029   0.06984   0.91559   0.00000  Uiso   1.00
H496   H     0.62482   0.08476   0.97606   0.00000  Uiso   1.00
H497   H     0.66307   0.24260   0.91689   0.00000  Uiso   1.00
H498   H     0.49381   0.27444   0.52173   0.00000  Uiso   1.00
H499   H     0.39547   0.29709   0.99010   0.00000  Uiso   1.00
H500   H     0.43147   0.09192   0.88694   0.00000  Uiso   1.00
H501   H     0.39860   0.00346   0.74362   0.00000  Uiso   1.00
N502   N     0.47827   0.15223   0.73543   0.00000  Uiso   1.00
N503   N     0.52173   0.18110   0.76458   0.00000  Uiso   1.00
O504   O     0.63102   0.24629   0.75358   0.00000  Uiso   1.00
O505   O     0.39075   0.23704   0.74424   0.00000  Uiso   1.00
O506   O     0.64823   0.17358   0.83380   0.00000  Uiso   1.00
O507   O     0.40796   0.16433   0.82446   0.00000  Uiso   1.00
O508   O     0.60925   0.09629   0.75577   0.00000  Uiso   1.00
O509   O     0.36898   0.08704   0.74643   0.00000  Uiso   1.00
O510   O     0.59204   0.16901   0.67554   0.00000  Uiso   1.00
O511   O     0.35177   0.15976   0.66620   0.00000  Uiso   1.00
Zn512  Zn    0.60453   0.17284   0.75624   0.00000  Uiso   1.00
Zn513  Zn    0.39547   0.16049   0.74377   0.00000  Uiso   1.00
C514   C     0.54125   0.22894   0.59953   0.00000  Uiso   1.00
O515   O     0.49334   0.21928   0.61148   0.00000  Uiso   1.00
O516   O     0.57632   0.27368   0.62304   0.00000  Uiso   1.00
H517   H     0.55674   0.29563   0.64835   0.00000  Uiso   1.00
C518   C     0.68160   0.26494   0.74871   0.00000  Uiso   1.00
C519   C     0.81308   0.19475   0.98298   0.00000  Uiso   1.00
C520   C     0.77576   0.16411   0.93951   0.00000  Uiso   1.00
C521   C     0.86629   0.17497   0.50791   0.00000  Uiso   1.00
C522   C     0.88653   0.13238   0.97964   0.00000  Uiso   1.00
C523   C     0.84991   0.10415   0.93521   0.00000  Uiso   1.00
C524   C     0.79359   0.11730   0.91858   0.00000  Uiso   1.00
C525   C     0.89718   0.19166   0.56215   0.00000  Uiso   1.00
C526   C     0.97171   0.13242   0.55157   0.00000  Uiso   1.00
C527   C     0.72327   0.18307   0.91391   0.00000  Uiso   1.00
C528   C     0.68937   0.31954   0.74801   0.00000  Uiso   1.00
C529   C     0.70229   0.16989   0.85495   0.00000  Uiso   1.00
C530   C     0.97748   0.01383   0.75259   0.00000  Uiso   1.00
C531   C     0.98513   0.06841   0.75150   0.00000  Uiso   1.00
C532   C     0.96482   0.16585   0.64513   0.00000  Uiso   1.00
C533   C     0.94136   0.11522   0.99905   0.00000  Uiso   1.00
C534   C     0.94668   0.16610   0.58486   0.00000  Uiso   1.00
C535   C     0.70365   0.22788   0.93639   0.00000  Uiso   1.00
C536   C     0.74119   0.25942   0.97716   0.00000  Uiso   1.00
C537   C     0.79688   0.24492   0.99713   0.00000  Uiso   1.00
H538   H     0.67762   0.11430   0.56862   0.00000  Uiso   1.00
H539   H     0.93494   0.32991   0.75702   0.00000  Uiso   1.00
H540   H     0.82337   0.12515   0.70827   0.00000  Uiso   1.00
H541   H     0.84330   0.20819   0.79173   0.00000  Uiso   1.00
H542   H     0.86362   0.06984   0.91559   0.00000  Uiso   1.00
H543   H     0.95815   0.08476   0.97606   0.00000  Uiso   1.00
H544   H     0.99641   0.24260   0.91689   0.00000  Uiso   1.00
H545   H     0.82715   0.27444   0.52173   0.00000  Uiso   1.00
H546   H     0.72881   0.29709   0.99010   0.00000  Uiso   1.00
H547   H     0.76480   0.09192   0.88694   0.00000  Uiso   1.00
H548   H     0.73193   0.00346   0.74362   0.00000  Uiso   1.00
N549   N     0.81160   0.15223   0.73543   0.00000  Uiso   1.00
N550   N     0.85507   0.18110   0.76458   0.00000  Uiso   1.00
O551   O     0.96435   0.24629   0.75358   0.00000  Uiso   1.00
O552   O     0.72408   0.23704   0.74424   0.00000  Uiso   1.00
O553   O     0.98157   0.17358   0.83380   0.00000  Uiso   1.00
O554   O     0.74130   0.16433   0.82446   0.00000  Uiso   1.00
O555   O     0.94258   0.09629   0.75577   0.00000  Uiso   1.00
O556   O     0.70231   0.08704   0.74643   0.00000  Uiso   1.00
O557   O     0.92537   0.16901   0.67554   0.00000  Uiso   1.00
O558   O     0.68510   0.15976   0.66620   0.00000  Uiso   1.00
Zn559  Zn    0.93786   0.17284   0.75624   0.00000  Uiso   1.00
Zn560  Zn    0.72881   0.16049   0.74377   0.00000  Uiso   1.00
C561   C     0.87458   0.22894   0.59953   0.00000  Uiso   1.00
O562   O     0.82667   0.21928   0.61148   0.00000  Uiso   1.00
O563   O     0.90965   0.27368   0.62304   0.00000  Uiso   1.00
H564   H     0.89007   0.29563   0.64835   0.00000  Uiso   1.00
C565   C     0.01494   0.59827   0.74871   0.00000  Uiso   1.00
C566   C     0.14641   0.52809   0.98298   0.00000  Uiso   1.00
C567   C     0.10910   0.49744   0.93951   0.00000  Uiso   1.00
C568   C     0.19962   0.50831   0.50791   0.00000  Uiso   1.00
C569   C     0.21987   0.46571   0.97964   0.00000  Uiso   1.00
C570   C     0.18324   0.43748   0.93521   0.00000  Uiso   1.00
C571   C     0.12692   0.45063   0.91858   0.00000  Uiso   1.00
C572   C     0.23051   0.52499   0.56215   0.00000  Uiso   1.00
C573   C     0.30504   0.46576   0.55157   0.00000  Uiso   1.00
C574   C     0.05660   0.51641   0.91391   0.00000  Uiso   1.00
C575   C     0.02270   0.65287   0.74801   0.00000  Uiso   1.00
C576   C     0.03563   0.50323   0.85495   0.00000  Uiso   1.00
C577   C     0.31081   0.34717   0.75259   0.00000  Uiso   1.00
C578   C     0.31846   0.40174   0.75150   0.00000  Uiso   1.00
C579   C     0.29815   0.49919   0.64513   0.00000  Uiso   1.00
C580   C     0.27470   0.44855   0.99905   0.00000  Uiso   1.00
C581   C     0.28001   0.49943   0.58486   0.00000  Uiso   1.00
C582   C     0.03698   0.56122   0.93639   0.00000  Uiso   1.00
C583   C     0.07452   0.59275   0.97716   0.00000  Uiso   1.00
C584   C     0.13021   0.57825   0.99713   0.00000  Uiso   1.00
H585   H     0.01095   0.44764   0.56862   0.00000  Uiso   1.00
H586   H     0.26827   0.66325   0.75702   0.00000  Uiso   1.00
H587   H     0.15670   0.45848   0.70827   0.00000  Uiso   1.00
H588   H     0.17663   0.54152   0.79173   0.00000  Uiso   1.00
H589   H     0.19695   0.40317   0.91559   0.00000  Uiso   1.00
H590   H     0.29148   0.41809   0.97606   0.00000  Uiso   1.00
H591   H     0.32974   0.57593   0.91689   0.00000  Uiso   1.00
H592   H     0.16048   0.60778   0.52173   0.00000  Uiso   1.00
H593   H     0.06214   0.63042   0.99010   0.00000  Uiso   1.00
H594   H     0.09814   0.42525   0.88694   0.00000  Uiso   1.00
H595   H     0.06526   0.33679   0.74362   0.00000  Uiso   1.00
N596   N     0.14493   0.48556   0.73543   0.00000  Uiso   1.00
N597   N     0.18840   0.51444   0.76458   0.00000  Uiso   1.00
O598   O     0.29769   0.57963   0.75358   0.00000  Uiso   1.00
O599   O     0.05742   0.57038   0.74424   0.00000  Uiso   1.00
O600   O     0.31490   0.50691   0.83380   0.00000  Uiso   1.00
O601   O     0.07463   0.49766   0.82446   0.00000  Uiso   1.00
O602   O     0.27592   0.42962   0.75577   0.00000  Uiso   1.00
O603   O     0.03565   0.42037   0.74643   0.00000  Uiso   1.00
O604   O     0.25870   0.50234   0.67554   0.00000  Uiso   1.00
O605   O     0.01843   0.49309   0.66620   0.00000  Uiso   1.00
Zn606  Zn    0.27119   0.50618   0.75624   0.00000  Uiso   1.00
Zn607  Zn    0.06214   0.49382   0.74377   0.00000  Uiso   1.00
C608   C     0.20792   0.56227   0.59953   0.00000  Uiso   1.00
O609   O     0.16000   0.55261   0.61148   0.00000  Uiso   1.00
O610   O     0.24298   0.60701   0.62304   0.00000  Uiso   1.00
H611   H     0.22341   0.62897   0.64835   0.00000  Uiso   1.00
C612   C     0.34827   0.59827   0.74871   0.00000  Uiso   1.00
C613   C     0.47974   0.52809   0.98298   0.00000  Uiso   1.00
C614   C     0.44243   0.49744   0.93951   0.00000  Uiso   1.00
C615   C     0.53296   0.50831   0.50791   0.00000  Uiso   1.00
C616   C     0.55320   0.46571   0.97964   0.00000  Uiso   1.00
C617   C     0.51658   0.43748   0.93521   0.00000  Uiso   1.00
C618   C     0.46026   0.45063   0.91858   0.00000  Uiso   1.00
C619   C     0.56385   0.52499   0.56215   0.00000  Uiso   1.00
C620   C     0.63837   0.46576   0.55157   0.00000  Uiso   1.00
C621   C     0.38993   0.51641   0.91391   0.00000  Uiso   1.00
C622   C     0.35604   0.65287   0.74801   0.00000  Uiso   1.00
C623   C     0.36896   0.50323   0.85495   0.00000  Uiso   1.00
C624   C     0.64415   0.34717   0.75259   0.00000  Uiso   1.00
C625   C     0.65179   0.40174   0.75150   0.00000  Uiso   1.00
C626   C     0.63148   0.49919   0.64513   0.00000  Uiso   1.00
C627   C     0.60803   0.44855   0.99905   0.00000  Uiso   1.00
C628   C     0.61334   0.49943   0.58486   0.00000  Uiso   1.00
C629   C     0.37031   0.56122   0.93639   0.00000  Uiso   1.00
C630   C     0.40786   0.59275   0.97716   0.00000  Uiso   1.00
C631   C     0.46355   0.57825   0.99713   0.00000  Uiso   1.00
H632   H     0.34429   0.44764   0.56862   0.00000  Uiso   1.00
H633   H     0.60160   0.66325   0.75702   0.00000  Uiso   1.00
H634   H     0.49004   0.45848   0.70827   0.00000  Uiso   1.00
H635   H     0.50997   0.54152   0.79173   0.00000  Uiso   1.00
H636   H     0.53029   0.40317   0.91559   0.00000  Uiso   1.00
H637   H     0.62482   0.41809   0.97606   0.00000  Uiso   1.00
H638   H     0.66307   0.57593   0.91689   0.00000  Uiso   1.00
H639   H     0.49381   0.60778   0.52173   0.00000  Uiso   1.00
H640   H     0.39547   0.63042   0.99010   0.00000  Uiso   1.00
H641   H     0.43147   0.42525   0.88694   0.00000  Uiso   1.00
H642   H     0.39860   0.33679   0.74362   0.00000  Uiso   1.00
N643   N     0.47827   0.48556   0.73543   0.00000  Uiso   1.00
N644   N     0.52173   0.51444   0.76458   0.00000  Uiso   1.00
O645   O     0.63102   0.57963   0.75358   0.00000  Uiso   1.00
O646   O     0.39075   0.57038   0.74424   0.00000  Uiso   1.00
O647   O     0.64823   0.50691   0.83380   0.00000  Uiso   1.00
O648   O     0.40796   0.49766   0.82446   0.00000  Uiso   1.00
O649   O     0.60925   0.42962   0.75577   0.00000  Uiso   1.00
O650   O     0.36898   0.42037   0.74643   0.00000  Uiso   1.00
O651   O     0.59204   0.50234   0.67554   0.00000  Uiso   1.00
O652   O     0.35177   0.49309   0.66620   0.00000  Uiso   1.00
Zn653  Zn    0.60453   0.50618   0.75624   0.00000  Uiso   1.00
Zn654  Zn    0.39547   0.49382   0.74377   0.00000  Uiso   1.00
C655   C     0.54125   0.56227   0.59953   0.00000  Uiso   1.00
O656   O     0.49334   0.55261   0.61148   0.00000  Uiso   1.00
O657   O     0.57632   0.60701   0.62304   0.00000  Uiso   1.00
H658   H     0.55674   0.62897   0.64835   0.00000  Uiso   1.00
C659   C     0.68160   0.59827   0.74871   0.00000  Uiso   1.00
C660   C     0.81308   0.52809   0.98298   0.00000  Uiso   1.00
C661   C     0.77576   0.49744   0.93951   0.00000  Uiso   1.00
C662   C     0.86629   0.50831   0.50791   0.00000  Uiso   1.00
C663   C     0.88653   0.46571   0.97964   0.00000  Uiso   1.00
C664   C     0.84991   0.43748   0.93521   0.00000  Uiso   1.00
C665   C     0.79359   0.45063   0.91858   0.00000  Uiso   1.00
C666   C     0.89718   0.52499   0.56215   0.00000  Uiso   1.00
C667   C     0.97171   0.46576   0.55157   0.00000  Uiso   1.00
C668   C     0.72327   0.51641   0.91391   0.00000  Uiso   1.00
C669   C     0.68937   0.65287   0.74801   0.00000  Uiso   1.00
C670   C     0.70229   0.50323   0.85495   0.00000  Uiso   1.00
C671   C     0.97748   0.34717   0.75259   0.00000  Uiso   1.00
C672   C     0.98513   0.40174   0.75150   0.00000  Uiso   1.00
C673   C     0.96482   0.49919   0.64513   0.00000  Uiso   1.00
C674   C     0.94136   0.44855   0.99905   0.00000  Uiso   1.00
C675   C     0.94668   0.49943   0.58486   0.00000  Uiso   1.00
C676   C     0.70365   0.56122   0.93639   0.00000  Uiso   1.00
C677   C     0.74119   0.59275   0.97716   0.00000  Uiso   1.00
C678   C     0.79688   0.57825   0.99713   0.00000  Uiso   1.00
H679   H     0.67762   0.44764   0.56862   0.00000  Uiso   1.00
H680   H     0.93494   0.66325   0.75702   0.00000  Uiso   1.00
H681   H     0.82337   0.45848   0.70827   0.00000  Uiso   1.00
H682   H     0.84330   0.54152   0.79173   0.00000  Uiso   1.00
H683   H     0.86362   0.40317   0.91559   0.00000  Uiso   1.00
H684   H     0.95815   0.41809   0.97606   0.00000  Uiso   1.00
H685   H     0.99641   0.57593   0.91689   0.00000  Uiso   1.00
H686   H     0.82715   0.60778   0.52173   0.00000  Uiso   1.00
H687   H     0.72881   0.63042   0.99010   0.00000  Uiso   1.00
H688   H     0.76480   0.42525   0.88694   0.00000  Uiso   1.00
H689   H     0.73193   0.33679   0.74362   0.00000  Uiso   1.00
N690   N     0.81160   0.48556   0.73543   0.00000  Uiso   1.00
N691   N     0.85507   0.51444   0.76458   0.00000  Uiso   1.00
O692   O     0.96435   0.57963   0.75358   0.00000  Uiso   1.00
O693   O     0.72408   0.57038   0.74424   0.00000  Uiso   1.00
O694   O     0.98157   0.50691   0.83380   0.00000  Uiso   1.00
O695   O     0.74130   0.49766   0.82446   0.00000  Uiso   1.00
O696   O     0.94258   0.42962   0.75577   0.00000  Uiso   1.00
O697   O     0.70231   0.42037   0.74643   0.00000  Uiso   1.00
O698   O     0.92537   0.50234   0.67554   0.00000  Uiso   1.00
O699   O     0.68510   0.49309   0.66620   0.00000  Uiso   1.00
Zn700  Zn    0.93786   0.50618   0.75624   0.00000  Uiso   1.00
Zn701  Zn    0.72881   0.49382   0.74377   0.00000  Uiso   1.00
C702   C     0.87458   0.56227   0.59953   0.00000  Uiso   1.00
O703   O     0.82667   0.55261   0.61148   0.00000  Uiso   1.00
O704   O     0.90965   0.60701   0.62304   0.00000  Uiso   1.00
H705   H     0.89007   0.62897   0.64835   0.00000  Uiso   1.00
C706   C     0.01494   0.93160   0.74871   0.00000  Uiso   1.00
C707   C     0.14641   0.86142   0.98298   0.00000  Uiso   1.00
C708   C     0.10910   0.83077   0.93951   0.00000  Uiso   1.00
C709   C     0.19962   0.84164   0.50791   0.00000  Uiso   1.00
C710   C     0.21987   0.79904   0.97964   0.00000  Uiso   1.00
C711   C     0.18324   0.77082   0.93521   0.00000  Uiso   1.00
C712   C     0.12692   0.78397   0.91858   0.00000  Uiso   1.00
C713   C     0.23051   0.85832   0.56215   0.00000  Uiso   1.00
C714   C     0.30504   0.79909   0.55157   0.00000  Uiso   1.00
C715   C     0.05660   0.84974   0.91391   0.00000  Uiso   1.00
C716   C     0.02270   0.98620   0.74801   0.00000  Uiso   1.00
C717   C     0.03563   0.83656   0.85495   0.00000  Uiso   1.00
C718   C     0.31081   0.68050   0.75259   0.00000  Uiso   1.00
C719   C     0.31846   0.73508   0.75150   0.00000  Uiso   1.00
C720   C     0.29815   0.83252   0.64513   0.00000  Uiso   1.00
C721   C     0.27470   0.78189   0.99905   0.00000  Uiso   1.00
C722   C     0.28001   0.83276   0.58486   0.00000  Uiso   1.00
C723   C     0.03698   0.89455   0.93639   0.00000  Uiso   1.00
C724   C     0.07452   0.92608   0.97716   0.00000  Uiso   1.00
C725   C     0.13021   0.91158   0.99713   0.00000  Uiso   1.00
H726   H     0.01095   0.78097   0.56862   0.00000  Uiso   1.00
H727   H     0.26827   0.99658   0.75702   0.00000  Uiso   1.00
H728   H     0.15670   0.79182   0.70827   0.00000  Uiso   1.00
H729   H     0.17663   0.87486   0.79173   0.00000  Uiso   1.00
H730   H     0.19695   0.73650   0.91559   0.00000  Uiso   1.00
H731   H     0.29148   0.75143   0.97606   0.00000  Uiso   1.00
H732   H     0.32974   0.90926   0.91689   0.00000  Uiso   1.00
H733   H     0.16048   0.94111   0.52173   0.00000  Uiso   1.00
H734   H     0.06214   0.96375   0.99010   0.00000  Uiso   1.00
H735   H     0.09814   0.75858   0.88694   0.00000  Uiso   1.00
H736   H     0.06526   0.67012   0.74362   0.00000  Uiso   1.00
N737   N     0.14493   0.81890   0.73543   0.00000  Uiso   1.00
N738   N     0.18840   0.84777   0.76458   0.00000  Uiso   1.00
O739   O     0.29769   0.91296   0.75358   0.00000  Uiso   1.00
O740   O     0.05742   0.90371   0.74424   0.00000  Uiso   1.00
O741   O     0.31490   0.84024   0.83380   0.00000  Uiso   1.00
O742   O     0.07463   0.83099   0.82446   0.00000  Uiso   1.00
O743   O     0.27592   0.76296   0.75577   0.00000  Uiso   1.00
O744   O     0.03565   0.75371   0.74643   0.00000  Uiso   1.00
O745   O     0.25870   0.83567   0.67554   0.00000  Uiso   1.00
O746   O     0.01843   0.82642   0.66620   0.00000  Uiso   1.00
Zn747  Zn    0.27119   0.83951   0.75624   0.00000  Uiso   1.00
Zn748  Zn    0.06214   0.82716   0.74377   0.00000  Uiso   1.00
C749   C     0.20792   0.89561   0.59953   0.00000  Uiso   1.00
O750   O     0.16000   0.88595   0.61148   0.00000  Uiso   1.00
O751   O     0.24298   0.94035   0.62304   0.00000  Uiso   1.00
H752   H     0.22341   0.96230   0.64835   0.00000  Uiso   1.00
C753   C     0.34827   0.93160   0.74871   0.00000  Uiso   1.00
C754   C     0.47974   0.86142   0.98298   0.00000  Uiso   1.00
C755   C     0.44243   0.83077   0.93951   0.00000  Uiso   1.00
C756   C     0.53296   0.84164   0.50791   0.00000  Uiso   1.00
C757   C     0.55320   0.79904   0.97964   0.00000  Uiso   1.00
C758   C     0.51658   0.77082   0.93521   0.00000  Uiso   1.00
C759   C     0.46026   0.78397   0.91858   0.00000  Uiso   1.00
C760   C     0.56385   0.85832   0.56215   0.00000  Uiso   1.00
C761   C     0.63837   0.79909   0.55157   0.00000  Uiso   1.00
C762   C     0.38993   0.84974   0.91391   0.00000  Uiso   1.00
C763   C     0.35604   0.98620   0.74801   0.00000  Uiso   1.00
C764   C     0.36896   0.83656   0.85495   0.00000  Uiso   1.00
C765   C     0.64415   0.68050   0.75259   0.00000  Uiso   1.00
C766   C     0.65179   0.73508   0.75150   0.00000  Uiso   1.00
C767   C     0.63148   0.83252   0.64513   0.00000  Uiso   1.00
C768   C     0.60803   0.78189   0.99905   0.00000  Uiso   1.00
C769   C     0.61334   0.83276   0.58486   0.00000  Uiso   1.00
C770   C     0.37031   0.89455   0.93639   0.00000  Uiso   1.00
C771   C     0.40786   0.92608   0.97716   0.00000  Uiso   1.00
C772   C     0.46355   0.91158   0.99713   0.00000  Uiso   1.00
H773   H     0.34429   0.78097   0.56862   0.00000  Uiso   1.00
H774   H     0.60160   0.99658   0.75702   0.00000  Uiso   1.00
H775   H     0.49004   0.79182   0.70827   0.00000  Uiso   1.00
H776   H     0.50997   0.87486   0.79173   0.00000  Uiso   1.00
H777   H     0.53029   0.73650   0.91559   0.00000  Uiso   1.00
H778   H     0.62482   0.75143   0.97606   0.00000  Uiso   1.00
H779   H     0.66307   0.90926   0.91689   0.00000  Uiso   1.00
H780   H     0.49381   0.94111   0.52173   0.00000  Uiso   1.00
H781   H     0.39547   0.96375   0.99010   0.00000  Uiso   1.00
H782   H     0.43147   0.75858   0.88694   0.00000  Uiso   1.00
H783   H     0.39860   0.67012   0.74362   0.00000  Uiso   1.00
N784   N     0.47827   0.81890   0.73543   0.00000  Uiso   1.00
N785   N     0.52173   0.84777   0.76458   0.00000  Uiso   1.00
O786   O     0.63102   0.91296   0.75358   0.00000  Uiso   1.00
O787   O     0.39075   0.90371   0.74424   0.00000  Uiso   1.00
O788   O     0.64823   0.84024   0.83380   0.00000  Uiso   1.00
O789   O     0.40796   0.83099   0.82446   0.00000  Uiso   1.00
O790   O     0.60925   0.76296   0.75577   0.00000  Uiso   1.00
O791   O     0.36898   0.75371   0.74643   0.00000  Uiso   1.00
O792   O     0.59204   0.83567   0.67554   0.00000  Uiso   1.00
O793   O     0.35177   0.82642   0.66620   0.00000  Uiso   1.00
Zn794  Zn    0.60453   0.83951   0.75624   0.00000  Uiso   1.00
Zn795  Zn    0.39547   0.82716   0.74377   0.00000  Uiso   1.00
C796   C     0.54125   0.89561   0.59953   0.00000  Uiso   1.00
O797   O     0.49334   0.88595   0.61148   0.00000  Uiso   1.00
O798   O     0.57632   0.94035   0.62304   0.00000  Uiso   1.00
H799   H     0.55674   0.96230   0.64835   0.00000  Uiso   1.00
C800   C     0.68160   0.93160   0.74871   0.00000  Uiso   1.00
C801   C     0.81308   0.86142   0.98298   0.00000  Uiso   1.00
C802   C     0.77576   0.83077   0.93951   0.00000  Uiso   1.00
C803   C     0.86629   0.84164   0.50791   0.00000  Uiso   1.00
C804   C     0.88653   0.79904   0.97964   0.00000  Uiso   1.00
C805   C     0.84991   0.77082   0.93521   0.00000  Uiso   1.00
C806   C     0.79359   0.78397   0.91858   0.00000  Uiso   1.00
C807   C     0.89718   0.85832   0.56215   0.00000  Uiso   1.00
C808   C     0.97171   0.79909   0.55157   0.00000  Uiso   1.00
C809   C     0.72327   0.84974   0.91391   0.00000  Uiso   1.00
C810   C     0.68937   0.98620   0.74801   0.00000  Uiso   1.00
C811   C     0.70229   0.83656   0.85495   0.00000  Uiso   1.00
C812   C     0.97748   0.68050   0.75259   0.00000  Uiso   1.00
C813   C     0.98513   0.73508   0.75150   0.00000  Uiso   1.00
C814   C     0.96482   0.83252   0.64513   0.00000  Uiso   1.00
C815   C     0.94136   0.78189   0.99905   0.00000  Uiso   1.00
C816   C     0.94668   0.83276   0.58486   0.00000  Uiso   1.00
C817   C     0.70365   0.89455   0.93639   0.00000  Uiso   1.00
C818   C     0.74119   0.92608   0.97716   0.00000  Uiso   1.00
C819   C     0.79688   0.91158   0.99713   0.00000  Uiso   1.00
H820   H     0.67762   0.78097   0.56862   0.00000  Uiso   1.00
H821   H     0.93494   0.99658   0.75702   0.00000  Uiso   1.00
H822   H     0.82337   0.79182   0.70827   0.00000  Uiso   1.00
H823   H     0.84330   0.87486   0.79173   0.00000  Uiso   1.00
H824   H     0.86362   0.73650   0.91559   0.00000  Uiso   1.00
H825   H     0.95815   0.75143   0.97606   0.00000  Uiso   1.00
H826   H     0.99641   0.90926   0.91689   0.00000  Uiso   1.00
H827   H     0.82715   0.94111   0.52173   0.00000  Uiso   1.00
H828   H     0.72881   0.96375   0.99010   0.00000  Uiso   1.00
H829   H     0.76480   0.75858   0.88694   0.00000  Uiso   1.00
H830   H     0.73193   0.67012   0.74362   0.00000  Uiso   1.00
N831   N     0.81160   0.81890   0.73543   0.00000  Uiso   1.00
N832   N     0.85507   0.84777   0.76458   0.00000  Uiso   1.00
O833   O     0.96435   0.91296   0.75358   0.00000  Uiso   1.00
O834   O     0.72408   0.90371   0.74424   0.00000  Uiso   1.00
O835   O     0.98157   0.84024   0.83380   0.00000  Uiso   1.00
O836   O     0.74130   0.83099   0.82446   0.00000  Uiso   1.00
O837   O     0.94258   0.76296   0.75577   0.00000  Uiso   1.00
O838   O     0.70231   0.75371   0.74643   0.00000  Uiso   1.00
O839   O     0.92537   0.83567   0.67554   0.00000  Uiso   1.00
O840   O     0.68510   0.82642   0.66620   0.00000  Uiso   1.00
Zn841  Zn    0.93786   0.83951   0.75624   0.00000  Uiso   1.00
Zn842  Zn    0.72881   0.82716   0.74377   0.00000  Uiso   1.00
C843   C     0.87458   0.89561   0.59953   0.00000  Uiso   1.00
O844   O     0.82667   0.88595   0.61148   0.00000  Uiso   1.00
O845   O     0.90965   0.94035   0.62304   0.00000  Uiso   1.00
H846   H     0.89007   0.96230   0.64835   0.00000  Uiso   1.00
loop_
_geom_bond_atom_site_label_1
_geom_bond_atom_site_label_2
_geom_bond_distance
_geom_bond_site_symmetry_2
_ccdc_geom_bond_type
C1     O35     1.289   .     A
C1     C11     1.402   .     S
C1     O128    1.275   1_455 S
C2     C3      1.411   .     A
C2     C20     1.418   .     A
C2     C427    1.422   .     S
C3     C10     1.404   .     A
C3     C7      1.410   .     A
C4     C8      1.417   .     A
C4     C425    1.422   1_554 S
C4     C428    1.428   1_554 S
C5     C6      1.390   .     A
C5     C16     1.396   .     A
C5     C427    1.428   .     S
C6     C7      1.379   .     A
C6     H25     1.084   .     S
C7     H30     1.084   .     S
C8     C17     1.411   .     A
C8     C44     1.489   .     S
C9     C17     1.397   .     A
C9     C439    1.381   1_554 S
C9     H68     1.084   .     S
C10    C12     1.447   .     S
C10    C18     1.400   .     A
C11    C248    1.339   1_455 S
C11    H172    1.088   .     S
C12    O37     1.296   .     A
C12    O130    1.289   1_455 S
C13    C14     1.402   .     S
C13    C340    1.339   1_545 S
C13    H304    1.088   1_545 S
C14    O38     1.289   .     A
C14    O86     1.275   .     S
C15    O40     1.296   .     A
C15    C17     1.452   .     S
C15    O88     1.290   .     S
C16    H26     1.084   .     S
C16    C432    1.381   .     S
C18    C19     1.385   .     A
C18    H121    1.084   1_455 S
C19    H29     1.083   .     S
C19    C20     1.390   .     A
C20    H451    1.078   .     S
H21    C103    1.084   1_455 S
H22    C154    1.088   .     S
H23    N32     1.029   .     S
H24    N33     1.029   .     S
H27    C65     1.084   .     S
H28    C443    1.078   1_554 S
H31    C293    1.088   1_545 S
N32    N33     1.291   .     D
N32    Zn43    2.017   .     S
N33    Zn42    2.017   .     S
O34    Zn42    1.949   .     S
O34    C48     1.275   .     S
O35    Zn43    1.978   .     S
O36    Zn42    1.974   .     S
O36    C59     1.289   .     S
O37    Zn43    1.932   .     S
O38    Zn42    1.978   .     S
O39    Zn43    1.949   .     S
O39    C108    1.275   1_455 S
O40    Zn42    1.932   .     S
O41    Zn43    1.974   .     S
O41    C109    1.290   1_455 S
C44    O46     1.398   .     S
C44    O45     1.224   .     D
O46    H47     1.014   .     S
C48    O82     1.289   .     A
C48    C58     1.402   .     S
C49    C50     1.411   .     A
C49    C67     1.418   .     A
C49    C474    1.422   .     S
C50    C57     1.404   .     A
C50    C54     1.410   .     A
C51    C55     1.417   .     A
C51    C472    1.422   1_554 S
C51    C475    1.428   1_554 S
C52    C53     1.390   .     A
C52    C63     1.396   .     A
C52    C474    1.428   .     S
C53    C54     1.379   .     A
C53    H72     1.084   .     S
C54    H77     1.084   .     S
C55    C64     1.411   .     A
C55    C91     1.489   .     S
C56    C64     1.397   .     A
C56    C486    1.381   1_554 S
C56    H115    1.084   .     S
C57    C59     1.447   .     S
C57    C65     1.400   .     A
C58    C154    1.339   .     S
C58    H219    1.088   .     S
C59    O84     1.296   .     A
C60    C61     1.402   .     S
C60    C387    1.339   1_545 S
C60    H351    1.088   1_545 S
C61    O85     1.289   .     A
C61    O133    1.275   .     S
C62    O87     1.296   .     A
C62    C64     1.452   .     S
C62    O135    1.290   .     S
C63    H73     1.084   .     S
C63    C479    1.381   .     S
C65    C66     1.385   .     A
C66    H76     1.083   .     S
C66    C67     1.390   .     A
C67    H498    1.078   .     S
H69    C201    1.088   .     S
H70    N79     1.029   .     S
H71    N80     1.029   .     S
H74    C112    1.084   .     S
H75    C490    1.078   1_554 S
H78    C340    1.088   1_545 S
N79    N80     1.291   .     D
N79    Zn90    2.017   .     S
N80    Zn89    2.017   .     S
O81    Zn89    1.949   .     S
O81    C95     1.275   .     S
O82    Zn90    1.978   .     S
O83    Zn89    1.974   .     S
O83    C106    1.289   .     S
O84    Zn90    1.932   .     S
O85    Zn89    1.978   .     S
O86    Zn90    1.949   .     S
O87    Zn89    1.932   .     S
O88    Zn90    1.974   .     S
C91    O93     1.398   .     S
C91    O92     1.224   .     D
O93    H94     1.014   .     S
C95    O129    1.289   .     A
C95    C105    1.402   .     S
C96    C97     1.411   .     A
C96    C114    1.418   .     A
C96    C521    1.422   .     S
C97    C104    1.404   .     A
C97    C101    1.410   .     A
C98    C102    1.417   .     A
C98    C519    1.422   1_554 S
C98    C522    1.428   1_554 S
C99    C100    1.390   .     A
C99    C110    1.396   .     A
C99    C521    1.428   .     S
C100   C101    1.379   .     A
C100   H119    1.084   .     S
C101   H124    1.084   .     S
C102   C111    1.411   .     A
C102   C138    1.489   .     S
C103   C111    1.397   .     A
C103   C533    1.381   1_554 S
C103   H21     1.084   1_655 S
C104   C106    1.447   .     S
C104   C112    1.400   .     A
C105   C201    1.339   .     S
C105   H266    1.088   .     S
C106   O131    1.296   .     A
C107   C108    1.402   .     S
C107   C293    1.339   1_645 S
C107   H398    1.088   1_545 S
C108   O132    1.289   .     A
C108   O39     1.275   1_655 S
C109   O134    1.296   .     A
C109   C111    1.452   .     S
C109   O41     1.290   1_655 S
C110   H120    1.084   .     S
C110   C526    1.381   .     S
C112   C113    1.385   .     A
C113   H123    1.083   .     S
C113   C114    1.390   .     A
C114   H545    1.078   .     S
H116   C248    1.088   .     S
H117   N126    1.029   .     S
H118   N127    1.029   .     S
H121   C18     1.084   1_655 S
H122   C537    1.078   1_554 S
H125   C387    1.088   1_545 S
N126   N127    1.291   .     D
N126   Zn137   2.017   .     S
N127   Zn136   2.017   .     S
O128   Zn136   1.949   .     S
O128   C1      1.275   1_655 S
O129   Zn137   1.978   .     S
O130   Zn136   1.974   .     S
O130   C12     1.289   1_655 S
O131   Zn137   1.932   .     S
O132   Zn136   1.978   .     S
O133   Zn137   1.949   .     S
O134   Zn136   1.932   .     S
O135   Zn137   1.974   .     S
C138   O140    1.398   .     S
C138   O139    1.224   .     D
O140   H141    1.014   .     S
C142   O176    1.289   .     A
C142   C152    1.402   .     S
C142   O269    1.275   1_455 S
C143   C144    1.411   .     A
C143   C161    1.418   .     A
C143   C568    1.422   .     S
C144   C151    1.404   .     A
C144   C148    1.410   .     A
C145   C149    1.417   .     A
C145   C566    1.422   1_554 S
C145   C569    1.428   1_554 S
C146   C147    1.390   .     A
C146   C157    1.396   .     A
C146   C568    1.428   .     S
C147   C148    1.379   .     A
C147   H166    1.084   .     S
C148   H171    1.084   .     S
C149   C158    1.411   .     A
C149   C185    1.489   .     S
C150   C158    1.397   .     A
C150   C580    1.381   1_554 S
C150   H209    1.084   .     S
C151   C153    1.447   .     S
C151   C159    1.400   .     A
C152   C389    1.339   1_455 S
C152   H313    1.088   .     S
C153   O178    1.296   .     A
C153   O271    1.289   1_455 S
C154   C155    1.402   .     S
C155   O179    1.289   .     A
C155   O227    1.275   .     S
C156   O181    1.296   .     A
C156   C158    1.452   .     S
C156   O229    1.290   .     S
C157   H167    1.084   .     S
C157   C573    1.381   .     S
C159   C160    1.385   .     A
C159   H262    1.084   1_455 S
C160   H170    1.083   .     S
C160   C161    1.390   .     A
C161   H592    1.078   .     S
H162   C244    1.084   1_455 S
H163   C295    1.088   .     S
H164   N173    1.029   .     S
H165   N174    1.029   .     S
H168   C206    1.084   .     S
H169   C584    1.078   1_554 S
N173   N174    1.291   .     D
N173   Zn184   2.017   .     S
N174   Zn183   2.017   .     S
O175   Zn183   1.949   .     S
O175   C189    1.275   .     S
O176   Zn184   1.978   .     S
O177   Zn183   1.974   .     S
O177   C200    1.289   .     S
O178   Zn184   1.932   .     S
O179   Zn183   1.978   .     S
O180   Zn184   1.949   .     S
O180   C249    1.275   1_455 S
O181   Zn183   1.932   .     S
O182   Zn184   1.974   .     S
O182   C250    1.290   1_455 S
C185   O187    1.398   .     S
C185   O186    1.224   .     D
O187   H188    1.014   .     S
C189   O223    1.289   .     A
C189   C199    1.402   .     S
C190   C191    1.411   .     A
C190   C208    1.418   .     A
C190   C615    1.422   .     S
C191   C198    1.404   .     A
C191   C195    1.410   .     A
C192   C196    1.417   .     A
C192   C613    1.422   1_554 S
C192   C616    1.428   1_554 S
C193   C194    1.390   .     A
C193   C204    1.396   .     A
C193   C615    1.428   .     S
C194   C195    1.379   .     A
C194   H213    1.084   .     S
C195   H218    1.084   .     S
C196   C205    1.411   .     A
C196   C232    1.489   .     S
C197   C205    1.397   .     A
C197   C627    1.381   1_554 S
C197   H256    1.084   .     S
C198   C200    1.447   .     S
C198   C206    1.400   .     A
C199   C295    1.339   .     S
C199   H360    1.088   .     S
C200   O225    1.296   .     A
C201   C202    1.402   .     S
C202   O226    1.289   .     A
C202   O274    1.275   .     S
C203   O228    1.296   .     A
C203   C205    1.452   .     S
C203   O276    1.290   .     S
C204   H214    1.084   .     S
C204   C620    1.381   .     S
C206   C207    1.385   .     A
C207   H217    1.083   .     S
C207   C208    1.390   .     A
C208   H639    1.078   .     S
H210   C342    1.088   .     S
H211   N220    1.029   .     S
H212   N221    1.029   .     S
H215   C253    1.084   .     S
H216   C631    1.078   1_554 S
N220   N221    1.291   .     D
N220   Zn231   2.017   .     S
N221   Zn230   2.017   .     S
O222   Zn230   1.949   .     S
O222   C236    1.275   .     S
O223   Zn231   1.978   .     S
O224   Zn230   1.974   .     S
O224   C247    1.289   .     S
O225   Zn231   1.932   .     S
O226   Zn230   1.978   .     S
O227   Zn231   1.949   .     S
O228   Zn230   1.932   .     S
O229   Zn231   1.974   .     S
C232   O234    1.398   .     S
C232   O233    1.224   .     D
O234   H235    1.014   .     S
C236   O270    1.289   .     A
C236   C246    1.402   .     S
C237   C238    1.411   .     A
C237   C255    1.418   .     A
C237   C662    1.422   .     S
C238   C245    1.404   .     A
C238   C242    1.410   .     A
C239   C243    1.417   .     A
C239   C660    1.422   1_554 S
C239   C663    1.428   1_554 S
C240   C241    1.390   .     A
C240   C251    1.396   .     A
C240   C662    1.428   .     S
C241   C242    1.379   .     A
C241   H260    1.084   .     S
C242   H265    1.084   .     S
C243   C252    1.411   .     A
C243   C279    1.489   .     S
C244   C252    1.397   .     A
C244   C674    1.381   1_554 S
C244   H162    1.084   1_655 S
C245   C247    1.447   .     S
C245   C253    1.400   .     A
C246   C342    1.339   .     S
C246   H407    1.088   .     S
C247   O272    1.296   .     A
C248   C249    1.402   .     S
C248   C11     1.339   1_655 S
C249   O273    1.289   .     A
C249   O180    1.275   1_655 S
C250   O275    1.296   .     A
C250   C252    1.452   .     S
C250   O182    1.290   1_655 S
C251   H261    1.084   .     S
C251   C667    1.381   .     S
C253   C254    1.385   .     A
C254   H264    1.083   .     S
C254   C255    1.390   .     A
C255   H686    1.078   .     S
H257   C389    1.088   .     S
H258   N267    1.029   .     S
H259   N268    1.029   .     S
H262   C159    1.084   1_655 S
H263   C678    1.078   1_554 S
N267   N268    1.291   .     D
N267   Zn278   2.017   .     S
N268   Zn277   2.017   .     S
O269   Zn277   1.949   .     S
O269   C142    1.275   1_655 S
O270   Zn278   1.978   .     S
O271   Zn277   1.974   .     S
O271   C153    1.289   1_655 S
O272   Zn278   1.932   .     S
O273   Zn277   1.978   .     S
O274   Zn278   1.949   .     S
O275   Zn277   1.932   .     S
O276   Zn278   1.974   .     S
C279   O281    1.398   .     S
C279   O280    1.224   .     D
O281   H282    1.014   .     S
C283   O317    1.289   .     A
C283   C293    1.402   .     S
C283   O410    1.275   1_455 S
C284   C285    1.411   .     A
C284   C302    1.418   .     A
C284   C709    1.422   .     S
C285   C292    1.404   .     A
C285   C289    1.410   .     A
C286   C290    1.417   .     A
C286   C707    1.422   1_554 S
C286   C710    1.428   1_554 S
C287   C288    1.390   .     A
C287   C298    1.396   .     A
C287   C709    1.428   .     S
C288   C289    1.379   .     A
C288   H307    1.084   .     S
C289   H312    1.084   .     S
C290   C299    1.411   .     A
C290   C326    1.489   .     S
C291   C299    1.397   .     A
C291   C721    1.381   1_554 S
C291   H350    1.084   .     S
C292   C294    1.447   .     S
C292   C300    1.400   .     A
C293   C107    1.339   1_465 S
C293   H31     1.088   1_565 S
C294   O319    1.296   .     A
C294   O412    1.289   1_455 S
C295   C296    1.402   .     S
C296   O320    1.289   .     A
C296   O368    1.275   .     S
C297   O322    1.296   .     A
C297   C299    1.452   .     S
C297   O370    1.290   .     S
C298   H308    1.084   .     S
C298   C714    1.381   .     S
C300   C301    1.385   .     A
C300   H403    1.084   1_455 S
C301   H311    1.083   .     S
C301   C302    1.390   .     A
C302   H733    1.078   .     S
H303   C385    1.084   1_455 S
H304   C13     1.088   1_565 S
H305   N314    1.029   .     S
H306   N315    1.029   .     S
H309   C347    1.084   .     S
H310   C725    1.078   1_554 S
N314   N315    1.291   .     D
N314   Zn325   2.017   .     S
N315   Zn324   2.017   .     S
O316   Zn324   1.949   .     S
O316   C330    1.275   .     S
O317   Zn325   1.978   .     S
O318   Zn324   1.974   .     S
O318   C341    1.289   .     S
O319   Zn325   1.932   .     S
O320   Zn324   1.978   .     S
O321   Zn325   1.949   .     S
O321   C390    1.275   1_455 S
O322   Zn324   1.932   .     S
O323   Zn325   1.974   .     S
O323   C391    1.290   1_455 S
C326   O328    1.398   .     S
C326   O327    1.224   .     D
O328   H329    1.014   .     S
C330   O364    1.289   .     A
C330   C340    1.402   .     S
C331   C332    1.411   .     A
C331   C349    1.418   .     A
C331   C756    1.422   .     S
C332   C339    1.404   .     A
C332   C336    1.410   .     A
C333   C337    1.417   .     A
C333   C754    1.422   1_554 S
C333   C757    1.428   1_554 S
C334   C335    1.390   .     A
C334   C345    1.396   .     A
C334   C756    1.428   .     S
C335   C336    1.379   .     A
C335   H354    1.084   .     S
C336   H359    1.084   .     S
C337   C346    1.411   .     A
C337   C373    1.489   .     S
C338   C346    1.397   .     A
C338   C768    1.381   1_554 S
C338   H397    1.084   .     S
C339   C341    1.447   .     S
C339   C347    1.400   .     A
C340   C13     1.339   1_565 S
C340   H78     1.088   1_565 S
C341   O366    1.296   .     A
C342   C343    1.402   .     S
C343   O367    1.289   .     A
C343   O415    1.275   .     S
C344   O369    1.296   .     A
C344   C346    1.452   .     S
C344   O417    1.290   .     S
C345   H355    1.084   .     S
C345   C761    1.381   .     S
C347   C348    1.385   .     A
C348   H358    1.083   .     S
C348   C349    1.390   .     A
C349   H780    1.078   .     S
H351   C60     1.088   1_565 S
H352   N361    1.029   .     S
H353   N362    1.029   .     S
H356   C394    1.084   .     S
H357   C772    1.078   1_554 S
N361   N362    1.291   .     D
N361   Zn372   2.017   .     S
N362   Zn371   2.017   .     S
O363   Zn371   1.949   .     S
O363   C377    1.275   .     S
O364   Zn372   1.978   .     S
O365   Zn371   1.974   .     S
O365   C388    1.289   .     S
O366   Zn372   1.932   .     S
O367   Zn371   1.978   .     S
O368   Zn372   1.949   .     S
O369   Zn371   1.932   .     S
O370   Zn372   1.974   .     S
C373   O375    1.398   .     S
C373   O374    1.224   .     D
O375   H376    1.014   .     S
C377   O411    1.289   .     A
C377   C387    1.402   .     S
C378   C379    1.411   .     A
C378   C396    1.418   .     A
C378   C803    1.422   .     S
C379   C386    1.404   .     A
C379   C383    1.410   .     A
C380   C384    1.417   .     A
C380   C801    1.422   1_554 S
C380   C804    1.428   1_554 S
C381   C382    1.390   .     A
C381   C392    1.396   .     A
C381   C803    1.428   .     S
C382   C383    1.379   .     A
C382   H401    1.084   .     S
C383   H406    1.084   .     S
C384   C393    1.411   .     A
C384   C420    1.489   .     S
C385   C393    1.397   .     A
C385   C815    1.381   1_554 S
C385   H303    1.084   1_655 S
C386   C388    1.447   .     S
C386   C394    1.400   .     A
C387   C60     1.339   1_565 S
C387   H125    1.088   1_565 S
C388   O413    1.296   .     A
C389   C390    1.402   .     S
C389   C152    1.339   1_655 S
C390   O414    1.289   .     A
C390   O321    1.275   1_655 S
C391   O416    1.296   .     A
C391   C393    1.452   .     S
C391   O323    1.290   1_655 S
C392   H402    1.084   .     S
C392   C808    1.381   .     S
C394   C395    1.385   .     A
C395   H405    1.083   .     S
C395   C396    1.390   .     A
C396   H827    1.078   .     S
H398   C107    1.088   1_565 S
H399   N408    1.029   .     S
H400   N409    1.029   .     S
H403   C300    1.084   1_655 S
H404   C819    1.078   1_554 S
N408   N409    1.291   .     D
N408   Zn419   2.017   .     S
N409   Zn418   2.017   .     S
O410   Zn418   1.949   .     S
O410   C283    1.275   1_655 S
O411   Zn419   1.978   .     S
O412   Zn418   1.974   .     S
O412   C294    1.289   1_655 S
O413   Zn419   1.932   .     S
O414   Zn418   1.978   .     S
O415   Zn419   1.949   .     S
O416   Zn418   1.932   .     S
O417   Zn419   1.974   .     S
C420   O422    1.398   .     S
C420   O421    1.224   .     D
O422   H423    1.014   .     S
C424   O458    1.289   .     A
C424   C434    1.402   .     S
C424   O551    1.275   1_455 S
C425   C426    1.411   .     A
C425   C443    1.418   .     A
C425   C4      1.422   1_556 S
C426   C433    1.404   .     A
C426   C430    1.410   .     A
C427   C431    1.417   .     A
C428   C429    1.390   .     A
C428   C439    1.396   .     A
C428   C4      1.428   1_556 S
C429   C430    1.379   .     A
C429   H448    1.084   .     S
C430   H453    1.084   .     S
C431   C440    1.411   .     A
C431   C467    1.489   .     S
C432   C440    1.397   .     A
C432   H491    1.084   .     S
C433   C435    1.447   .     S
C433   C441    1.400   .     A
C434   C671    1.339   1_455 S
C434   H595    1.088   .     S
C435   O460    1.296   .     A
C435   O553    1.289   1_455 S
C436   C437    1.402   .     S
C436   C763    1.339   1_545 S
C436   H727    1.088   1_545 S
C437   O461    1.289   .     A
C437   O509    1.275   .     S
C438   O463    1.296   .     A
C438   C440    1.452   .     S
C438   O511    1.290   .     S
C439   H449    1.084   .     S
C439   C9      1.381   1_556 S
C441   C442    1.385   .     A
C441   H544    1.084   1_455 S
C442   H452    1.083   .     S
C442   C443    1.390   .     A
C443   H28     1.078   1_556 S
H444   C526    1.084   1_455 S
H445   C577    1.088   .     S
H446   N455    1.029   .     S
H447   N456    1.029   .     S
H450   C488    1.084   .     S
H454   C716    1.088   1_545 S
N455   N456    1.291   .     D
N455   Zn466   2.017   .     S
N456   Zn465   2.017   .     S
O457   Zn465   1.949   .     S
O457   C471    1.275   .     S
O458   Zn466   1.978   .     S
O459   Zn465   1.974   .     S
O459   C482    1.289   .     S
O460   Zn466   1.932   .     S
O461   Zn465   1.978   .     S
O462   Zn466   1.949   .     S
O462   C531    1.275   1_455 S
O463   Zn465   1.932   .     S
O464   Zn466   1.974   .     S
O464   C532    1.290   1_455 S
C467   O469    1.398   .     S
C467   O468    1.224   .     D
O469   H470    1.014   .     S
C471   O505    1.289   .     A
C471   C481    1.402   .     S
C472   C473    1.411   .     A
C472   C490    1.418   .     A
C472   C51     1.422   1_556 S
C473   C480    1.404   .     A
C473   C477    1.410   .     A
C474   C478    1.417   .     A
C475   C476    1.390   .     A
C475   C486    1.396   .     A
C475   C51     1.428   1_556 S
C476   C477    1.379   .     A
C476   H495    1.084   .     S
C477   H500    1.084   .     S
C478   C487    1.411   .     A
C478   C514    1.489   .     S
C479   C487    1.397   .     A
C479   H538    1.084   .     S
C480   C482    1.447   .     S
C480   C488    1.400   .     A
C481   C577    1.339   .     S
C481   H642    1.088   .     S
C482   O507    1.296   .     A
C483   C484    1.402   .     S
C483   C810    1.339   1_545 S
C483   H774    1.088   1_545 S
C484   O508    1.289   .     A
C484   O556    1.275   .     S
C485   O510    1.296   .     A
C485   C487    1.452   .     S
C485   O558    1.290   .     S
C486   H496    1.084   .     S
C486   C56     1.381   1_556 S
C488   C489    1.385   .     A
C489   H499    1.083   .     S
C489   C490    1.390   .     A
C490   H75     1.078   1_556 S
H492   C624    1.088   .     S
H493   N502    1.029   .     S
H494   N503    1.029   .     S
H497   C535    1.084   .     S
H501   C763    1.088   1_545 S
N502   N503    1.291   .     D
N502   Zn513   2.017   .     S
N503   Zn512   2.017   .     S
O504   Zn512   1.949   .     S
O504   C518    1.275   .     S
O505   Zn513   1.978   .     S
O506   Zn512   1.974   .     S
O506   C529    1.289   .     S
O507   Zn513   1.932   .     S
O508   Zn512   1.978   .     S
O509   Zn513   1.949   .     S
O510   Zn512   1.932   .     S
O511   Zn513   1.974   .     S
C514   O516    1.398   .     S
C514   O515    1.224   .     D
O516   H517    1.014   .     S
C518   O552    1.289   .     A
C518   C528    1.402   .     S
C519   C520    1.411   .     A
C519   C537    1.418   .     A
C519   C98     1.422   1_556 S
C520   C527    1.404   .     A
C520   C524    1.410   .     A
C521   C525    1.417   .     A
C522   C523    1.390   .     A
C522   C533    1.396   .     A
C522   C98     1.428   1_556 S
C523   C524    1.379   .     A
C523   H542    1.084   .     S
C524   H547    1.084   .     S
C525   C534    1.411   .     A
C525   C561    1.489   .     S
C526   C534    1.397   .     A
C526   H444    1.084   1_655 S
C527   C529    1.447   .     S
C527   C535    1.400   .     A
C528   C624    1.339   .     S
C528   H689    1.088   .     S
C529   O554    1.296   .     A
C530   C531    1.402   .     S
C530   C716    1.339   1_645 S
C530   H821    1.088   1_545 S
C531   O555    1.289   .     A
C531   O462    1.275   1_655 S
C532   O557    1.296   .     A
C532   C534    1.452   .     S
C532   O464    1.290   1_655 S
C533   H543    1.084   .     S
C533   C103    1.381   1_556 S
C535   C536    1.385   .     A
C536   H546    1.083   .     S
C536   C537    1.390   .     A
C537   H122    1.078   1_556 S
H539   C671    1.088   .     S
H540   N549    1.029   .     S
H541   N550    1.029   .     S
H544   C441    1.084   1_655 S
H548   C810    1.088   1_545 S
N549   N550    1.291   .     D
N549   Zn560   2.017   .     S
N550   Zn559   2.017   .     S
O551   Zn559   1.949   .     S
O551   C424    1.275   1_655 S
O552   Zn560   1.978   .     S
O553   Zn559   1.974   .     S
O553   C435    1.289   1_655 S
O554   Zn560   1.932   .     S
O555   Zn559   1.978   .     S
O556   Zn560   1.949   .     S
O557   Zn559   1.932   .     S
O558   Zn560   1.974   .     S
C561   O563    1.398   .     S
C561   O562    1.224   .     D
O563   H564    1.014   .     S
C565   O599    1.289   .     A
C565   C575    1.402   .     S
C565   O692    1.275   1_455 S
C566   C567    1.411   .     A
C566   C584    1.418   .     A
C566   C145    1.422   1_556 S
C567   C574    1.404   .     A
C567   C571    1.410   .     A
C568   C572    1.417   .     A
C569   C570    1.390   .     A
C569   C580    1.396   .     A
C569   C145    1.428   1_556 S
C570   C571    1.379   .     A
C570   H589    1.084   .     S
C571   H594    1.084   .     S
C572   C581    1.411   .     A
C572   C608    1.489   .     S
C573   C581    1.397   .     A
C573   H632    1.084   .     S
C574   C576    1.447   .     S
C574   C582    1.400   .     A
C575   C812    1.339   1_455 S
C575   H736    1.088   .     S
C576   O601    1.296   .     A
C576   O694    1.289   1_455 S
C577   C578    1.402   .     S
C578   O602    1.289   .     A
C578   O650    1.275   .     S
C579   O604    1.296   .     A
C579   C581    1.452   .     S
C579   O652    1.290   .     S
C580   H590    1.084   .     S
C580   C150    1.381   1_556 S
C582   C583    1.385   .     A
C582   H685    1.084   1_455 S
C583   H593    1.083   .     S
C583   C584    1.390   .     A
C584   H169    1.078   1_556 S
H585   C667    1.084   1_455 S
H586   C718    1.088   .     S
H587   N596    1.029   .     S
H588   N597    1.029   .     S
H591   C629    1.084   .     S
N596   N597    1.291   .     D
N596   Zn607   2.017   .     S
N597   Zn606   2.017   .     S
O598   Zn606   1.949   .     S
O598   C612    1.275   .     S
O599   Zn607   1.978   .     S
O600   Zn606   1.974   .     S
O600   C623    1.289   .     S
O601   Zn607   1.932   .     S
O602   Zn606   1.978   .     S
O603   Zn607   1.949   .     S
O603   C672    1.275   1_455 S
O604   Zn606   1.932   .     S
O605   Zn607   1.974   .     S
O605   C673    1.290   1_455 S
C608   O610    1.398   .     S
C608   O609    1.224   .     D
O610   H611    1.014   .     S
C612   O646    1.289   .     A
C612   C622    1.402   .     S
C613   C614    1.411   .     A
C613   C631    1.418   .     A
C613   C192    1.422   1_556 S
C614   C621    1.404   .     A
C614   C618    1.410   .     A
C615   C619    1.417   .     A
C616   C617    1.390   .     A
C616   C627    1.396   .     A
C616   C192    1.428   1_556 S
C617   C618    1.379   .     A
C617   H636    1.084   .     S
C618   H641    1.084   .     S
C619   C628    1.411   .     A
C619   C655    1.489   .     S
C620   C628    1.397   .     A
C620   H679    1.084   .     S
C621   C623    1.447   .     S
C621   C629    1.400   .     A
C622   C718    1.339   .     S
C622   H783    1.088   .     S
C623   O648    1.296   .     A
C624   C625    1.402   .     S
C625   O649    1.289   .     A
C625   O697    1.275   .     S
C626   O651    1.296   .     A
C626   C628    1.452   .     S
C626   O699    1.290   .     S
C627   H637    1.084   .     S
C627   C197    1.381   1_556 S
C629   C630    1.385   .     A
C630   H640    1.083   .     S
C630   C631    1.390   .     A
C631   H216    1.078   1_556 S
H633   C765    1.088   .     S
H634   N643    1.029   .     S
H635   N644    1.029   .     S
H638   C676    1.084   .     S
N643   N644    1.291   .     D
N643   Zn654   2.017   .     S
N644   Zn653   2.017   .     S
O645   Zn653   1.949   .     S
O645   C659    1.275   .     S
O646   Zn654   1.978   .     S
O647   Zn653   1.974   .     S
O647   C670    1.289   .     S
O648   Zn654   1.932   .     S
O649   Zn653   1.978   .     S
O650   Zn654   1.949   .     S
O651   Zn653   1.932   .     S
O652   Zn654   1.974   .     S
C655   O657    1.398   .     S
C655   O656    1.224   .     D
O657   H658    1.014   .     S
C659   O693    1.289   .     A
C659   C669    1.402   .     S
C660   C661    1.411   .     A
C660   C678    1.418   .     A
C660   C239    1.422   1_556 S
C661   C668    1.404   .     A
C661   C665    1.410   .     A
C662   C666    1.417   .     A
C663   C664    1.390   .     A
C663   C674    1.396   .     A
C663   C239    1.428   1_556 S
C664   C665    1.379   .     A
C664   H683    1.084   .     S
C665   H688    1.084   .     S
C666   C675    1.411   .     A
C666   C702    1.489   .     S
C667   C675    1.397   .     A
C667   H585    1.084   1_655 S
C668   C670    1.447   .     S
C668   C676    1.400   .     A
C669   C765    1.339   .     S
C669   H830    1.088   .     S
C670   O695    1.296   .     A
C671   C672    1.402   .     S
C671   C434    1.339   1_655 S
C672   O696    1.289   .     A
C672   O603    1.275   1_655 S
C673   O698    1.296   .     A
C673   C675    1.452   .     S
C673   O605    1.290   1_655 S
C674   H684    1.084   .     S
C674   C244    1.381   1_556 S
C676   C677    1.385   .     A
C677   H687    1.083   .     S
C677   C678    1.390   .     A
C678   H263    1.078   1_556 S
H680   C812    1.088   .     S
H681   N690    1.029   .     S
H682   N691    1.029   .     S
H685   C582    1.084   1_655 S
N690   N691    1.291   .     D
N690   Zn701   2.017   .     S
N691   Zn700   2.017   .     S
O692   Zn700   1.949   .     S
O692   C565    1.275   1_655 S
O693   Zn701   1.978   .     S
O694   Zn700   1.974   .     S
O694   C576    1.289   1_655 S
O695   Zn701   1.932   .     S
O696   Zn700   1.978   .     S
O697   Zn701   1.949   .     S
O698   Zn700   1.932   .     S
O699   Zn701   1.974   .     S
C702   O704    1.398   .     S
C702   O703    1.224   .     D
O704   H705    1.014   .     S
C706   O740    1.289   .     A
C706   C716    1.402   .     S
C706   O833    1.275   1_455 S
C707   C708    1.411   .     A
C707   C725    1.418   .     A
C707   C286    1.422   1_556 S
C708   C715    1.404   .     A
C708   C712    1.410   .     A
C709   C713    1.417   .     A
C710   C711    1.390   .     A
C710   C721    1.396   .     A
C710   C286    1.428   1_556 S
C711   C712    1.379   .     A
C711   H730    1.084   .     S
C712   H735    1.084   .     S
C713   C722    1.411   .     A
C713   C749    1.489   .     S
C714   C722    1.397   .     A
C714   H773    1.084   .     S
C715   C717    1.447   .     S
C715   C723    1.400   .     A
C716   C530    1.339   1_465 S
C716   H454    1.088   1_565 S
C717   O742    1.296   .     A
C717   O835    1.289   1_455 S
C718   C719    1.402   .     S
C719   O743    1.289   .     A
C719   O791    1.275   .     S
C720   O745    1.296   .     A
C720   C722    1.452   .     S
C720   O793    1.290   .     S
C721   H731    1.084   .     S
C721   C291    1.381   1_556 S
C723   C724    1.385   .     A
C723   H826    1.084   1_455 S
C724   H734    1.083   .     S
C724   C725    1.390   .     A
C725   H310    1.078   1_556 S
H726   C808    1.084   1_455 S
H727   C436    1.088   1_565 S
H728   N737    1.029   .     S
H729   N738    1.029   .     S
H732   C770    1.084   .     S
N737   N738    1.291   .     D
N737   Zn748   2.017   .     S
N738   Zn747   2.017   .     S
O739   Zn747   1.949   .     S
O739   C753    1.275   .     S
O740   Zn748   1.978   .     S
O741   Zn747   1.974   .     S
O741   C764    1.289   .     S
O742   Zn748   1.932   .     S
O743   Zn747   1.978   .     S
O744   Zn748   1.949   .     S
O744   C813    1.275   1_455 S
O745   Zn747   1.932   .     S
O746   Zn748   1.974   .     S
O746   C814    1.290   1_455 S
C749   O751    1.398   .     S
C749   O750    1.224   .     D
O751   H752    1.014   .     S
C753   O787    1.289   .     A
C753   C763    1.402   .     S
C754   C755    1.411   .     A
C754   C772    1.418   .     A
C754   C333    1.422   1_556 S
C755   C762    1.404   .     A
C755   C759    1.410   .     A
C756   C760    1.417   .     A
C757   C758    1.390   .     A
C757   C768    1.396   .     A
C757   C333    1.428   1_556 S
C758   C759    1.379   .     A
C758   H777    1.084   .     S
C759   H782    1.084   .     S
C760   C769    1.411   .     A
C760   C796    1.489   .     S
C761   C769    1.397   .     A
C761   H820    1.084   .     S
C762   C764    1.447   .     S
C762   C770    1.400   .     A
C763   C436    1.339   1_565 S
C763   H501    1.088   1_565 S
C764   O789    1.296   .     A
C765   C766    1.402   .     S
C766   O790    1.289   .     A
C766   O838    1.275   .     S
C767   O792    1.296   .     A
C767   C769    1.452   .     S
C767   O840    1.290   .     S
C768   H778    1.084   .     S
C768   C338    1.381   1_556 S
C770   C771    1.385   .     A
C771   H781    1.083   .     S
C771   C772    1.390   .     A
C772   H357    1.078   1_556 S
H774   C483    1.088   1_565 S
H775   N784    1.029   .     S
H776   N785    1.029   .     S
H779   C817    1.084   .     S
N784   N785    1.291   .     D
N784   Zn795   2.017   .     S
N785   Zn794   2.017   .     S
O786   Zn794   1.949   .     S
O786   C800    1.275   .     S
O787   Zn795   1.978   .     S
O788   Zn794   1.974   .     S
O788   C811    1.289   .     S
O789   Zn795   1.932   .     S
O790   Zn794   1.978   .     S
O791   Zn795   1.949   .     S
O792   Zn794   1.932   .     S
O793   Zn795   1.974   .     S
C796   O798    1.398   .     S
C796   O797    1.224   .     D
O798   H799    1.014   .     S
C800   O834    1.289   .     A
C800   C810    1.402   .     S
C801   C802    1.411   .     A
C801   C819    1.418   .     A
C801   C380    1.422   1_556 S
C802   C809    1.404   .     A
C802   C806    1.410   .     A
C803   C807    1.417   .     A
C804   C805    1.390   .     A
C804   C815    1.396   .     A
C804   C380    1.428   1_556 S
C805   C806    1.379   .     A
C805   H824    1.084   .     S
C806   H829    1.084   .     S
C807   C816    1.411   .     A
C807   C843    1.489   .     S
C808   C816    1.397   .     A
C808   H726    1.084   1_655 S
C809   C811    1.447   .     S
C809   C817    1.400   .     A
C810   C483    1.339   1_565 S
C810   H548    1.088   1_565 S
C811   O836    1.296   .     A
C812   C813    1.402   .     S
C812   C575    1.339   1_655 S
C813   O837    1.289   .     A
C813   O744    1.275   1_655 S
C814   O839    1.296   .     A
C814   C816    1.452   .     S
C814   O746    1.290   1_655 S
C815   H825    1.084   .     S
C815   C385    1.381   1_556 S
C817   C818    1.385   .     A
C818   H828    1.083   .     S
C818   C819    1.390   .     A
C819   H404    1.078   1_556 S
H821   C530    1.088   1_565 S
H822   N831    1.029   .     S
H823   N832    1.029   .     S
H826   C723    1.084   1_655 S
N831   N832    1.291   .     D
N831   Zn842   2.017   .     S
N832   Zn841   2.017   .     S
O833   Zn841   1.949   .     S
O833   C706    1.275   1_655 S
O834   Zn842   1.978   .     S
O835   Zn841   1.974   .     S
O835   C717    1.289   1_655 S
O836   Zn842   1.932   .     S
O837   Zn841   1.978   .     S
O838   Zn842   1.949   .     S
O839   Zn841   1.932   .     S
O840   Zn842   1.974   .     S
C843   O845    1.398   .     S
C843   O844    1.224   .     D
O845   H846    1.014   .     S
