data_str_m2_o10_o16_pcu_sym.78
_audit_creation_date              2020-01-03
_audit_creation_method            'Materials Studio'
_symmetry_space_group_name_H-M    'P1'
_symmetry_Int_Tables_number       1
_symmetry_cell_setting            triclinic
loop_
_symmetry_equiv_pos_as_xyz
  x,y,z
_cell_length_a                    22.2727
_cell_length_b                    26.0494
_cell_length_c                    26.8204
_cell_angle_alpha                 93.7996
_cell_angle_beta                  77.1481
_cell_angle_gamma                 103.1500
loop_
_atom_site_label
_atom_site_type_symbol
_atom_site_fract_x
_atom_site_fract_y
_atom_site_fract_z
_atom_site_U_iso_or_equiv
_atom_site_adp_type
_atom_site_occupancy
C1     C     0.18181   0.26674   0.25144   0.00000  Uiso   1.00
C2     C     0.11197   0.16490   0.40348   0.00000  Uiso   1.00
C3     C     0.19041   0.32270   0.25203   0.00000  Uiso   1.00
C4     C     0.13302   0.16594   0.34727   0.00000  Uiso   1.00
C5     C     0.14266   0.01063   0.24881   0.00000  Uiso   1.00
C6     C     0.15142   0.06660   0.24886   0.00000  Uiso   1.00
C7     C     0.20080   0.17071   0.15284   0.00000  Uiso   1.00
C8     C     0.29440   0.22350   0.02401   0.00000  Uiso   1.00
C9     C     0.22144   0.17968   0.09748   0.00000  Uiso   1.00
C10    C     0.05045   0.13788   0.42468   0.00000  Uiso   1.00
C11    C     0.03248   0.12733   0.47657   0.00000  Uiso   1.00
C12    C     0.13870   0.16922   0.48793   0.00000  Uiso   1.00
C13    C     0.07601   0.14176   0.00782   0.00000  Uiso   1.00
C14    C     0.01435   0.27404   0.11157   0.00000  Uiso   1.00
C15    C     0.07988   0.28646   0.12410   0.00000  Uiso   1.00
C16    C     0.10491   0.01249   0.12884   0.00000  Uiso   1.00
C17    C     0.15480   0.18466   0.43600   0.00000  Uiso   1.00
C18    C     0.18607   0.18188   0.01764   0.00000  Uiso   1.00
C19    C     0.24666   0.21224   0.49605   0.00000  Uiso   1.00
C20    C     0.25894   0.23191   0.44698   0.00000  Uiso   1.00
C21    C     0.21322   0.21953   0.41792   0.00000  Uiso   1.00
C22    C     0.17549   0.16474   0.06794   0.00000  Uiso   1.00
C23    C     0.28191   0.20873   0.07526   0.00000  Uiso   1.00
Cu24   Cu    0.10710   0.16105   0.24436   0.00000  Uiso   1.00
Cu25   Cu    0.22623   0.17228   0.25565   0.00000  Uiso   1.00
H26    H     0.09661   0.32016   0.24585   0.00000  Uiso   1.00
H27    H     0.22424   0.23841   0.38133   0.00000  Uiso   1.00
H28    H     0.23645   0.01317   0.25502   0.00000  Uiso   1.00
H29    H     0.31326   0.28574   0.14474   0.00000  Uiso   1.00
H30    H     0.01647   0.29818   0.07817   0.00000  Uiso   1.00
H31    H     0.07763   0.26741   0.16055   0.00000  Uiso   1.00
H32    H     0.11311   0.27019   0.09321   0.00000  Uiso   1.00
H33    H     0.10943   0.03192   0.09214   0.00000  Uiso   1.00
H34    H     0.15225   0.02024   0.13831   0.00000  Uiso   1.00
H35    H     0.07253   0.02972   0.15952   0.00000  Uiso   1.00
H36    H     0.00362   0.20579   0.28961   0.00000  Uiso   1.00
H37    H     0.32973   0.12758   0.21035   0.00000  Uiso   1.00
H38    H     0.30411   0.25725   0.43097   0.00000  Uiso   1.00
H39    H     0.00812   0.24445   0.00620   0.00000  Uiso   1.00
H40    H     0.13111   0.14010   0.08565   0.00000  Uiso   1.00
H41    H     0.01666   0.12326   0.40080   0.00000  Uiso   1.00
H42    H     0.05853   0.13158   0.04747   0.00000  Uiso   1.00
H43    H     0.31812   0.10649   0.49254   0.00000  Uiso   1.00
N44    N     0.31574   0.18074   0.26416   0.00000  Uiso   1.00
N45    N     0.01759   0.15259   0.23584   0.00000  Uiso   1.00
O46    O     0.12797   0.23807   0.24633   0.00000  Uiso   1.00
O47    O     0.22858   0.24755   0.25587   0.00000  Uiso   1.00
O48    O     0.09181   0.15960   0.31840   0.00000  Uiso   1.00
O49    O     0.19242   0.16908   0.32793   0.00000  Uiso   1.00
O50    O     0.10476   0.08578   0.24414   0.00000  Uiso   1.00
O51    O     0.20536   0.09526   0.25367   0.00000  Uiso   1.00
O52    O     0.14092   0.16425   0.17207   0.00000  Uiso   1.00
O53    O     0.24152   0.17373   0.18161   0.00000  Uiso   1.00
O54    O     0.32976   0.21918   0.10225   0.00000  Uiso   1.00
C55    C     0.51514   0.26674   0.25144   0.00000  Uiso   1.00
C56    C     0.44530   0.16490   0.40348   0.00000  Uiso   1.00
C57    C     0.52374   0.32270   0.25203   0.00000  Uiso   1.00
C58    C     0.46635   0.16594   0.34727   0.00000  Uiso   1.00
C59    C     0.47599   0.01063   0.24881   0.00000  Uiso   1.00
C60    C     0.48476   0.06660   0.24886   0.00000  Uiso   1.00
C61    C     0.53413   0.17071   0.15284   0.00000  Uiso   1.00
C62    C     0.62773   0.22350   0.02401   0.00000  Uiso   1.00
C63    C     0.55478   0.17968   0.09748   0.00000  Uiso   1.00
C64    C     0.38379   0.13788   0.42468   0.00000  Uiso   1.00
C65    C     0.36582   0.12733   0.47657   0.00000  Uiso   1.00
C66    C     0.47204   0.16922   0.48793   0.00000  Uiso   1.00
C67    C     0.40934   0.14176   0.00782   0.00000  Uiso   1.00
C68    C     0.34769   0.27404   0.11157   0.00000  Uiso   1.00
C69    C     0.41322   0.28646   0.12410   0.00000  Uiso   1.00
C70    C     0.43824   0.01249   0.12884   0.00000  Uiso   1.00
C71    C     0.48813   0.18466   0.43600   0.00000  Uiso   1.00
C72    C     0.51940   0.18188   0.01764   0.00000  Uiso   1.00
C73    C     0.58000   0.21224   0.49605   0.00000  Uiso   1.00
C74    C     0.59227   0.23191   0.44698   0.00000  Uiso   1.00
C75    C     0.54656   0.21953   0.41792   0.00000  Uiso   1.00
C76    C     0.50882   0.16474   0.06794   0.00000  Uiso   1.00
C77    C     0.61524   0.20873   0.07526   0.00000  Uiso   1.00
Cu78   Cu    0.44043   0.16105   0.24436   0.00000  Uiso   1.00
Cu79   Cu    0.55957   0.17228   0.25565   0.00000  Uiso   1.00
H80    H     0.42995   0.32016   0.24585   0.00000  Uiso   1.00
H81    H     0.55757   0.23841   0.38133   0.00000  Uiso   1.00
H82    H     0.56979   0.01317   0.25502   0.00000  Uiso   1.00
H83    H     0.64659   0.28574   0.14474   0.00000  Uiso   1.00
H84    H     0.34981   0.29818   0.07817   0.00000  Uiso   1.00
H85    H     0.41096   0.26741   0.16055   0.00000  Uiso   1.00
H86    H     0.44645   0.27019   0.09321   0.00000  Uiso   1.00
H87    H     0.44276   0.03192   0.09214   0.00000  Uiso   1.00
H88    H     0.48558   0.02024   0.13831   0.00000  Uiso   1.00
H89    H     0.40587   0.02972   0.15952   0.00000  Uiso   1.00
H90    H     0.33695   0.20579   0.28961   0.00000  Uiso   1.00
H91    H     0.66307   0.12758   0.21035   0.00000  Uiso   1.00
H92    H     0.63744   0.25725   0.43097   0.00000  Uiso   1.00
H93    H     0.34145   0.24445   0.00620   0.00000  Uiso   1.00
H94    H     0.46444   0.14010   0.08565   0.00000  Uiso   1.00
H95    H     0.34999   0.12326   0.40080   0.00000  Uiso   1.00
H96    H     0.39187   0.13158   0.04747   0.00000  Uiso   1.00
H97    H     0.65145   0.10649   0.49254   0.00000  Uiso   1.00
N98    N     0.64908   0.18074   0.26416   0.00000  Uiso   1.00
N99    N     0.35092   0.15259   0.23584   0.00000  Uiso   1.00
O100   O     0.46131   0.23807   0.24633   0.00000  Uiso   1.00
O101   O     0.56191   0.24755   0.25587   0.00000  Uiso   1.00
O102   O     0.42515   0.15960   0.31840   0.00000  Uiso   1.00
O103   O     0.52575   0.16908   0.32793   0.00000  Uiso   1.00
O104   O     0.43809   0.08578   0.24414   0.00000  Uiso   1.00
O105   O     0.53869   0.09526   0.25367   0.00000  Uiso   1.00
O106   O     0.47425   0.16425   0.17207   0.00000  Uiso   1.00
O107   O     0.57485   0.17373   0.18161   0.00000  Uiso   1.00
O108   O     0.66309   0.21918   0.10225   0.00000  Uiso   1.00
C109   C     0.84847   0.26674   0.25144   0.00000  Uiso   1.00
C110   C     0.77863   0.16490   0.40348   0.00000  Uiso   1.00
C111   C     0.85708   0.32270   0.25203   0.00000  Uiso   1.00
C112   C     0.79969   0.16594   0.34727   0.00000  Uiso   1.00
C113   C     0.80933   0.01063   0.24881   0.00000  Uiso   1.00
C114   C     0.81809   0.06660   0.24886   0.00000  Uiso   1.00
C115   C     0.86747   0.17071   0.15284   0.00000  Uiso   1.00
C116   C     0.96106   0.22350   0.02401   0.00000  Uiso   1.00
C117   C     0.88811   0.17968   0.09748   0.00000  Uiso   1.00
C118   C     0.71712   0.13788   0.42468   0.00000  Uiso   1.00
C119   C     0.69915   0.12733   0.47657   0.00000  Uiso   1.00
C120   C     0.80537   0.16922   0.48793   0.00000  Uiso   1.00
C121   C     0.74268   0.14176   0.00782   0.00000  Uiso   1.00
C122   C     0.68102   0.27404   0.11157   0.00000  Uiso   1.00
C123   C     0.74655   0.28646   0.12410   0.00000  Uiso   1.00
C124   C     0.77157   0.01249   0.12884   0.00000  Uiso   1.00
C125   C     0.82147   0.18466   0.43600   0.00000  Uiso   1.00
C126   C     0.85273   0.18188   0.01764   0.00000  Uiso   1.00
C127   C     0.91333   0.21224   0.49605   0.00000  Uiso   1.00
C128   C     0.92560   0.23191   0.44698   0.00000  Uiso   1.00
C129   C     0.87989   0.21953   0.41792   0.00000  Uiso   1.00
C130   C     0.84215   0.16474   0.06794   0.00000  Uiso   1.00
C131   C     0.94857   0.20873   0.07526   0.00000  Uiso   1.00
Cu132  Cu    0.77377   0.16105   0.24436   0.00000  Uiso   1.00
Cu133  Cu    0.89290   0.17228   0.25565   0.00000  Uiso   1.00
H134   H     0.76328   0.32016   0.24585   0.00000  Uiso   1.00
H135   H     0.89090   0.23841   0.38133   0.00000  Uiso   1.00
H136   H     0.90312   0.01317   0.25502   0.00000  Uiso   1.00
H137   H     0.97993   0.28574   0.14474   0.00000  Uiso   1.00
H138   H     0.68314   0.29818   0.07817   0.00000  Uiso   1.00
H139   H     0.74429   0.26741   0.16055   0.00000  Uiso   1.00
H140   H     0.77978   0.27019   0.09321   0.00000  Uiso   1.00
H141   H     0.77610   0.03192   0.09214   0.00000  Uiso   1.00
H142   H     0.81891   0.02024   0.13831   0.00000  Uiso   1.00
H143   H     0.73920   0.02972   0.15952   0.00000  Uiso   1.00
H144   H     0.67029   0.20579   0.28961   0.00000  Uiso   1.00
H145   H     0.99640   0.12758   0.21035   0.00000  Uiso   1.00
H146   H     0.97077   0.25725   0.43097   0.00000  Uiso   1.00
H147   H     0.67478   0.24445   0.00620   0.00000  Uiso   1.00
H148   H     0.79777   0.14010   0.08565   0.00000  Uiso   1.00
H149   H     0.68332   0.12326   0.40080   0.00000  Uiso   1.00
H150   H     0.72520   0.13158   0.04747   0.00000  Uiso   1.00
H151   H     0.98478   0.10649   0.49254   0.00000  Uiso   1.00
N152   N     0.98241   0.18074   0.26416   0.00000  Uiso   1.00
N153   N     0.68426   0.15259   0.23584   0.00000  Uiso   1.00
O154   O     0.79464   0.23807   0.24633   0.00000  Uiso   1.00
O155   O     0.89524   0.24755   0.25587   0.00000  Uiso   1.00
O156   O     0.75848   0.15960   0.31840   0.00000  Uiso   1.00
O157   O     0.85908   0.16908   0.32793   0.00000  Uiso   1.00
O158   O     0.77142   0.08578   0.24414   0.00000  Uiso   1.00
O159   O     0.87203   0.09526   0.25367   0.00000  Uiso   1.00
O160   O     0.80758   0.16425   0.17207   0.00000  Uiso   1.00
O161   O     0.90819   0.17373   0.18161   0.00000  Uiso   1.00
O162   O     0.99642   0.21918   0.10225   0.00000  Uiso   1.00
C163   C     0.18181   0.60007   0.25144   0.00000  Uiso   1.00
C164   C     0.11197   0.49824   0.40348   0.00000  Uiso   1.00
C165   C     0.19041   0.65603   0.25203   0.00000  Uiso   1.00
C166   C     0.13302   0.49927   0.34727   0.00000  Uiso   1.00
C167   C     0.14266   0.34396   0.24881   0.00000  Uiso   1.00
C168   C     0.15142   0.39993   0.24886   0.00000  Uiso   1.00
C169   C     0.20080   0.50405   0.15284   0.00000  Uiso   1.00
C170   C     0.29440   0.55684   0.02401   0.00000  Uiso   1.00
C171   C     0.22144   0.51301   0.09748   0.00000  Uiso   1.00
C172   C     0.05045   0.47121   0.42468   0.00000  Uiso   1.00
C173   C     0.03248   0.46066   0.47657   0.00000  Uiso   1.00
C174   C     0.13870   0.50255   0.48793   0.00000  Uiso   1.00
C175   C     0.07601   0.47510   0.00782   0.00000  Uiso   1.00
C176   C     0.01435   0.60738   0.11157   0.00000  Uiso   1.00
C177   C     0.07988   0.61979   0.12410   0.00000  Uiso   1.00
C178   C     0.10491   0.34582   0.12884   0.00000  Uiso   1.00
C179   C     0.15480   0.51799   0.43600   0.00000  Uiso   1.00
C180   C     0.18607   0.51522   0.01764   0.00000  Uiso   1.00
C181   C     0.24666   0.54558   0.49605   0.00000  Uiso   1.00
C182   C     0.25894   0.56524   0.44698   0.00000  Uiso   1.00
C183   C     0.21322   0.55287   0.41792   0.00000  Uiso   1.00
C184   C     0.17549   0.49807   0.06794   0.00000  Uiso   1.00
C185   C     0.28191   0.54207   0.07526   0.00000  Uiso   1.00
Cu186  Cu    0.10710   0.49439   0.24436   0.00000  Uiso   1.00
Cu187  Cu    0.22623   0.50561   0.25565   0.00000  Uiso   1.00
H188   H     0.09661   0.65349   0.24585   0.00000  Uiso   1.00
H189   H     0.22424   0.57174   0.38133   0.00000  Uiso   1.00
H190   H     0.23645   0.34650   0.25502   0.00000  Uiso   1.00
H191   H     0.31326   0.61907   0.14474   0.00000  Uiso   1.00
H192   H     0.01647   0.63151   0.07817   0.00000  Uiso   1.00
H193   H     0.07763   0.60075   0.16055   0.00000  Uiso   1.00
H194   H     0.11311   0.60353   0.09321   0.00000  Uiso   1.00
H195   H     0.10943   0.36526   0.09214   0.00000  Uiso   1.00
H196   H     0.15225   0.35357   0.13831   0.00000  Uiso   1.00
H197   H     0.07253   0.36306   0.15952   0.00000  Uiso   1.00
H198   H     0.00362   0.53913   0.28961   0.00000  Uiso   1.00
H199   H     0.32973   0.46092   0.21035   0.00000  Uiso   1.00
H200   H     0.30411   0.59059   0.43097   0.00000  Uiso   1.00
H201   H     0.00812   0.57778   0.00620   0.00000  Uiso   1.00
H202   H     0.13111   0.47343   0.08565   0.00000  Uiso   1.00
H203   H     0.01666   0.45660   0.40080   0.00000  Uiso   1.00
H204   H     0.05853   0.46492   0.04747   0.00000  Uiso   1.00
H205   H     0.31812   0.43982   0.49254   0.00000  Uiso   1.00
N206   N     0.31574   0.51407   0.26416   0.00000  Uiso   1.00
N207   N     0.01759   0.48593   0.23584   0.00000  Uiso   1.00
O208   O     0.12797   0.57141   0.24633   0.00000  Uiso   1.00
O209   O     0.22858   0.58089   0.25587   0.00000  Uiso   1.00
O210   O     0.09181   0.49293   0.31840   0.00000  Uiso   1.00
O211   O     0.19242   0.50241   0.32793   0.00000  Uiso   1.00
O212   O     0.10476   0.41911   0.24414   0.00000  Uiso   1.00
O213   O     0.20536   0.42859   0.25367   0.00000  Uiso   1.00
O214   O     0.14092   0.49759   0.17207   0.00000  Uiso   1.00
O215   O     0.24152   0.50707   0.18161   0.00000  Uiso   1.00
O216   O     0.32976   0.55252   0.10225   0.00000  Uiso   1.00
C217   C     0.51514   0.60007   0.25144   0.00000  Uiso   1.00
C218   C     0.44530   0.49824   0.40348   0.00000  Uiso   1.00
C219   C     0.52374   0.65603   0.25203   0.00000  Uiso   1.00
C220   C     0.46635   0.49927   0.34727   0.00000  Uiso   1.00
C221   C     0.47599   0.34396   0.24881   0.00000  Uiso   1.00
C222   C     0.48476   0.39993   0.24886   0.00000  Uiso   1.00
C223   C     0.53413   0.50405   0.15284   0.00000  Uiso   1.00
C224   C     0.62773   0.55684   0.02401   0.00000  Uiso   1.00
C225   C     0.55478   0.51301   0.09748   0.00000  Uiso   1.00
C226   C     0.38379   0.47121   0.42468   0.00000  Uiso   1.00
C227   C     0.36582   0.46066   0.47657   0.00000  Uiso   1.00
C228   C     0.47204   0.50255   0.48793   0.00000  Uiso   1.00
C229   C     0.40934   0.47510   0.00782   0.00000  Uiso   1.00
C230   C     0.34769   0.60738   0.11157   0.00000  Uiso   1.00
C231   C     0.41322   0.61979   0.12410   0.00000  Uiso   1.00
C232   C     0.43824   0.34582   0.12884   0.00000  Uiso   1.00
C233   C     0.48813   0.51799   0.43600   0.00000  Uiso   1.00
C234   C     0.51940   0.51522   0.01764   0.00000  Uiso   1.00
C235   C     0.58000   0.54558   0.49605   0.00000  Uiso   1.00
C236   C     0.59227   0.56524   0.44698   0.00000  Uiso   1.00
C237   C     0.54656   0.55287   0.41792   0.00000  Uiso   1.00
C238   C     0.50882   0.49807   0.06794   0.00000  Uiso   1.00
C239   C     0.61524   0.54207   0.07526   0.00000  Uiso   1.00
Cu240  Cu    0.44043   0.49439   0.24436   0.00000  Uiso   1.00
Cu241  Cu    0.55957   0.50561   0.25565   0.00000  Uiso   1.00
H242   H     0.42995   0.65349   0.24585   0.00000  Uiso   1.00
H243   H     0.55757   0.57174   0.38133   0.00000  Uiso   1.00
H244   H     0.56979   0.34650   0.25502   0.00000  Uiso   1.00
H245   H     0.64659   0.61907   0.14474   0.00000  Uiso   1.00
H246   H     0.34981   0.63151   0.07817   0.00000  Uiso   1.00
H247   H     0.41096   0.60075   0.16055   0.00000  Uiso   1.00
H248   H     0.44645   0.60353   0.09321   0.00000  Uiso   1.00
H249   H     0.44276   0.36526   0.09214   0.00000  Uiso   1.00
H250   H     0.48558   0.35357   0.13831   0.00000  Uiso   1.00
H251   H     0.40587   0.36306   0.15952   0.00000  Uiso   1.00
H252   H     0.33695   0.53913   0.28961   0.00000  Uiso   1.00
H253   H     0.66307   0.46092   0.21035   0.00000  Uiso   1.00
H254   H     0.63744   0.59059   0.43097   0.00000  Uiso   1.00
H255   H     0.34145   0.57778   0.00620   0.00000  Uiso   1.00
H256   H     0.46444   0.47343   0.08565   0.00000  Uiso   1.00
H257   H     0.34999   0.45660   0.40080   0.00000  Uiso   1.00
H258   H     0.39187   0.46492   0.04747   0.00000  Uiso   1.00
H259   H     0.65145   0.43982   0.49254   0.00000  Uiso   1.00
N260   N     0.64908   0.51407   0.26416   0.00000  Uiso   1.00
N261   N     0.35092   0.48593   0.23584   0.00000  Uiso   1.00
O262   O     0.46131   0.57141   0.24633   0.00000  Uiso   1.00
O263   O     0.56191   0.58089   0.25587   0.00000  Uiso   1.00
O264   O     0.42515   0.49293   0.31840   0.00000  Uiso   1.00
O265   O     0.52575   0.50241   0.32793   0.00000  Uiso   1.00
O266   O     0.43809   0.41911   0.24414   0.00000  Uiso   1.00
O267   O     0.53869   0.42859   0.25367   0.00000  Uiso   1.00
O268   O     0.47425   0.49759   0.17207   0.00000  Uiso   1.00
O269   O     0.57485   0.50707   0.18161   0.00000  Uiso   1.00
O270   O     0.66309   0.55252   0.10225   0.00000  Uiso   1.00
C271   C     0.84847   0.60007   0.25144   0.00000  Uiso   1.00
C272   C     0.77863   0.49824   0.40348   0.00000  Uiso   1.00
C273   C     0.85708   0.65603   0.25203   0.00000  Uiso   1.00
C274   C     0.79969   0.49927   0.34727   0.00000  Uiso   1.00
C275   C     0.80933   0.34396   0.24881   0.00000  Uiso   1.00
C276   C     0.81809   0.39993   0.24886   0.00000  Uiso   1.00
C277   C     0.86747   0.50405   0.15284   0.00000  Uiso   1.00
C278   C     0.96106   0.55684   0.02401   0.00000  Uiso   1.00
C279   C     0.88811   0.51301   0.09748   0.00000  Uiso   1.00
C280   C     0.71712   0.47121   0.42468   0.00000  Uiso   1.00
C281   C     0.69915   0.46066   0.47657   0.00000  Uiso   1.00
C282   C     0.80537   0.50255   0.48793   0.00000  Uiso   1.00
C283   C     0.74268   0.47510   0.00782   0.00000  Uiso   1.00
C284   C     0.68102   0.60738   0.11157   0.00000  Uiso   1.00
C285   C     0.74655   0.61979   0.12410   0.00000  Uiso   1.00
C286   C     0.77157   0.34582   0.12884   0.00000  Uiso   1.00
C287   C     0.82147   0.51799   0.43600   0.00000  Uiso   1.00
C288   C     0.85273   0.51522   0.01764   0.00000  Uiso   1.00
C289   C     0.91333   0.54558   0.49605   0.00000  Uiso   1.00
C290   C     0.92560   0.56524   0.44698   0.00000  Uiso   1.00
C291   C     0.87989   0.55287   0.41792   0.00000  Uiso   1.00
C292   C     0.84215   0.49807   0.06794   0.00000  Uiso   1.00
C293   C     0.94857   0.54207   0.07526   0.00000  Uiso   1.00
Cu294  Cu    0.77377   0.49439   0.24436   0.00000  Uiso   1.00
Cu295  Cu    0.89290   0.50561   0.25565   0.00000  Uiso   1.00
H296   H     0.76328   0.65349   0.24585   0.00000  Uiso   1.00
H297   H     0.89090   0.57174   0.38133   0.00000  Uiso   1.00
H298   H     0.90312   0.34650   0.25502   0.00000  Uiso   1.00
H299   H     0.97993   0.61907   0.14474   0.00000  Uiso   1.00
H300   H     0.68314   0.63151   0.07817   0.00000  Uiso   1.00
H301   H     0.74429   0.60075   0.16055   0.00000  Uiso   1.00
H302   H     0.77978   0.60353   0.09321   0.00000  Uiso   1.00
H303   H     0.77610   0.36526   0.09214   0.00000  Uiso   1.00
H304   H     0.81891   0.35357   0.13831   0.00000  Uiso   1.00
H305   H     0.73920   0.36306   0.15952   0.00000  Uiso   1.00
H306   H     0.67029   0.53913   0.28961   0.00000  Uiso   1.00
H307   H     0.99640   0.46092   0.21035   0.00000  Uiso   1.00
H308   H     0.97077   0.59059   0.43097   0.00000  Uiso   1.00
H309   H     0.67478   0.57778   0.00620   0.00000  Uiso   1.00
H310   H     0.79777   0.47343   0.08565   0.00000  Uiso   1.00
H311   H     0.68332   0.45660   0.40080   0.00000  Uiso   1.00
H312   H     0.72520   0.46492   0.04747   0.00000  Uiso   1.00
H313   H     0.98478   0.43982   0.49254   0.00000  Uiso   1.00
N314   N     0.98241   0.51407   0.26416   0.00000  Uiso   1.00
N315   N     0.68426   0.48593   0.23584   0.00000  Uiso   1.00
O316   O     0.79464   0.57141   0.24633   0.00000  Uiso   1.00
O317   O     0.89524   0.58089   0.25587   0.00000  Uiso   1.00
O318   O     0.75848   0.49293   0.31840   0.00000  Uiso   1.00
O319   O     0.85908   0.50241   0.32793   0.00000  Uiso   1.00
O320   O     0.77142   0.41911   0.24414   0.00000  Uiso   1.00
O321   O     0.87203   0.42859   0.25367   0.00000  Uiso   1.00
O322   O     0.80758   0.49759   0.17207   0.00000  Uiso   1.00
O323   O     0.90819   0.50707   0.18161   0.00000  Uiso   1.00
O324   O     0.99642   0.55252   0.10225   0.00000  Uiso   1.00
C325   C     0.18181   0.93340   0.25144   0.00000  Uiso   1.00
C326   C     0.11197   0.83157   0.40348   0.00000  Uiso   1.00
C327   C     0.19041   0.98936   0.25203   0.00000  Uiso   1.00
C328   C     0.13302   0.83260   0.34727   0.00000  Uiso   1.00
C329   C     0.14266   0.67730   0.24881   0.00000  Uiso   1.00
C330   C     0.15142   0.73326   0.24886   0.00000  Uiso   1.00
C331   C     0.20080   0.83738   0.15284   0.00000  Uiso   1.00
C332   C     0.29440   0.89017   0.02401   0.00000  Uiso   1.00
C333   C     0.22144   0.84634   0.09748   0.00000  Uiso   1.00
C334   C     0.05045   0.80455   0.42468   0.00000  Uiso   1.00
C335   C     0.03248   0.79400   0.47657   0.00000  Uiso   1.00
C336   C     0.13870   0.83589   0.48793   0.00000  Uiso   1.00
C337   C     0.07601   0.80843   0.00782   0.00000  Uiso   1.00
C338   C     0.01435   0.94071   0.11157   0.00000  Uiso   1.00
C339   C     0.07988   0.95312   0.12410   0.00000  Uiso   1.00
C340   C     0.10491   0.67915   0.12884   0.00000  Uiso   1.00
C341   C     0.15480   0.85133   0.43600   0.00000  Uiso   1.00
C342   C     0.18607   0.84855   0.01764   0.00000  Uiso   1.00
C343   C     0.24666   0.87891   0.49605   0.00000  Uiso   1.00
C344   C     0.25894   0.89857   0.44698   0.00000  Uiso   1.00
C345   C     0.21322   0.88620   0.41792   0.00000  Uiso   1.00
C346   C     0.17549   0.83140   0.06794   0.00000  Uiso   1.00
C347   C     0.28191   0.87540   0.07526   0.00000  Uiso   1.00
Cu348  Cu    0.10710   0.82772   0.24436   0.00000  Uiso   1.00
Cu349  Cu    0.22623   0.83895   0.25565   0.00000  Uiso   1.00
H350   H     0.09661   0.98682   0.24585   0.00000  Uiso   1.00
H351   H     0.22424   0.90508   0.38133   0.00000  Uiso   1.00
H352   H     0.23645   0.67984   0.25502   0.00000  Uiso   1.00
H353   H     0.31326   0.95241   0.14474   0.00000  Uiso   1.00
H354   H     0.01647   0.96484   0.07817   0.00000  Uiso   1.00
H355   H     0.07763   0.93408   0.16055   0.00000  Uiso   1.00
H356   H     0.11311   0.93686   0.09321   0.00000  Uiso   1.00
H357   H     0.10943   0.69859   0.09214   0.00000  Uiso   1.00
H358   H     0.15225   0.68690   0.13831   0.00000  Uiso   1.00
H359   H     0.07253   0.69639   0.15952   0.00000  Uiso   1.00
H360   H     0.00362   0.87246   0.28961   0.00000  Uiso   1.00
H361   H     0.32973   0.79425   0.21035   0.00000  Uiso   1.00
H362   H     0.30411   0.92392   0.43097   0.00000  Uiso   1.00
H363   H     0.00812   0.91112   0.00620   0.00000  Uiso   1.00
H364   H     0.13111   0.80677   0.08565   0.00000  Uiso   1.00
H365   H     0.01666   0.78993   0.40080   0.00000  Uiso   1.00
H366   H     0.05853   0.79825   0.04747   0.00000  Uiso   1.00
H367   H     0.31812   0.77316   0.49254   0.00000  Uiso   1.00
N368   N     0.31574   0.84741   0.26416   0.00000  Uiso   1.00
N369   N     0.01759   0.81926   0.23584   0.00000  Uiso   1.00
O370   O     0.12797   0.90474   0.24633   0.00000  Uiso   1.00
O371   O     0.22858   0.91422   0.25587   0.00000  Uiso   1.00
O372   O     0.09181   0.82627   0.31840   0.00000  Uiso   1.00
O373   O     0.19242   0.83575   0.32793   0.00000  Uiso   1.00
O374   O     0.10476   0.75245   0.24414   0.00000  Uiso   1.00
O375   O     0.20536   0.76193   0.25367   0.00000  Uiso   1.00
O376   O     0.14092   0.83092   0.17207   0.00000  Uiso   1.00
O377   O     0.24152   0.84040   0.18161   0.00000  Uiso   1.00
O378   O     0.32976   0.88585   0.10225   0.00000  Uiso   1.00
C379   C     0.51514   0.93340   0.25144   0.00000  Uiso   1.00
C380   C     0.44530   0.83157   0.40348   0.00000  Uiso   1.00
C381   C     0.52374   0.98936   0.25203   0.00000  Uiso   1.00
C382   C     0.46635   0.83260   0.34727   0.00000  Uiso   1.00
C383   C     0.47599   0.67730   0.24881   0.00000  Uiso   1.00
C384   C     0.48476   0.73326   0.24886   0.00000  Uiso   1.00
C385   C     0.53413   0.83738   0.15284   0.00000  Uiso   1.00
C386   C     0.62773   0.89017   0.02401   0.00000  Uiso   1.00
C387   C     0.55478   0.84634   0.09748   0.00000  Uiso   1.00
C388   C     0.38379   0.80455   0.42468   0.00000  Uiso   1.00
C389   C     0.36582   0.79400   0.47657   0.00000  Uiso   1.00
C390   C     0.47204   0.83589   0.48793   0.00000  Uiso   1.00
C391   C     0.40934   0.80843   0.00782   0.00000  Uiso   1.00
C392   C     0.34769   0.94071   0.11157   0.00000  Uiso   1.00
C393   C     0.41322   0.95312   0.12410   0.00000  Uiso   1.00
C394   C     0.43824   0.67915   0.12884   0.00000  Uiso   1.00
C395   C     0.48813   0.85133   0.43600   0.00000  Uiso   1.00
C396   C     0.51940   0.84855   0.01764   0.00000  Uiso   1.00
C397   C     0.58000   0.87891   0.49605   0.00000  Uiso   1.00
C398   C     0.59227   0.89857   0.44698   0.00000  Uiso   1.00
C399   C     0.54656   0.88620   0.41792   0.00000  Uiso   1.00
C400   C     0.50882   0.83140   0.06794   0.00000  Uiso   1.00
C401   C     0.61524   0.87540   0.07526   0.00000  Uiso   1.00
Cu402  Cu    0.44043   0.82772   0.24436   0.00000  Uiso   1.00
Cu403  Cu    0.55957   0.83895   0.25565   0.00000  Uiso   1.00
H404   H     0.42995   0.98682   0.24585   0.00000  Uiso   1.00
H405   H     0.55757   0.90508   0.38133   0.00000  Uiso   1.00
H406   H     0.56979   0.67984   0.25502   0.00000  Uiso   1.00
H407   H     0.64659   0.95241   0.14474   0.00000  Uiso   1.00
H408   H     0.34981   0.96484   0.07817   0.00000  Uiso   1.00
H409   H     0.41096   0.93408   0.16055   0.00000  Uiso   1.00
H410   H     0.44645   0.93686   0.09321   0.00000  Uiso   1.00
H411   H     0.44276   0.69859   0.09214   0.00000  Uiso   1.00
H412   H     0.48558   0.68690   0.13831   0.00000  Uiso   1.00
H413   H     0.40587   0.69639   0.15952   0.00000  Uiso   1.00
H414   H     0.33695   0.87246   0.28961   0.00000  Uiso   1.00
H415   H     0.66307   0.79425   0.21035   0.00000  Uiso   1.00
H416   H     0.63744   0.92392   0.43097   0.00000  Uiso   1.00
H417   H     0.34145   0.91112   0.00620   0.00000  Uiso   1.00
H418   H     0.46444   0.80677   0.08565   0.00000  Uiso   1.00
H419   H     0.34999   0.78993   0.40080   0.00000  Uiso   1.00
H420   H     0.39187   0.79825   0.04747   0.00000  Uiso   1.00
H421   H     0.65145   0.77316   0.49254   0.00000  Uiso   1.00
N422   N     0.64908   0.84741   0.26416   0.00000  Uiso   1.00
N423   N     0.35092   0.81926   0.23584   0.00000  Uiso   1.00
O424   O     0.46131   0.90474   0.24633   0.00000  Uiso   1.00
O425   O     0.56191   0.91422   0.25587   0.00000  Uiso   1.00
O426   O     0.42515   0.82627   0.31840   0.00000  Uiso   1.00
O427   O     0.52575   0.83575   0.32793   0.00000  Uiso   1.00
O428   O     0.43809   0.75245   0.24414   0.00000  Uiso   1.00
O429   O     0.53869   0.76193   0.25367   0.00000  Uiso   1.00
O430   O     0.47425   0.83092   0.17207   0.00000  Uiso   1.00
O431   O     0.57485   0.84040   0.18161   0.00000  Uiso   1.00
O432   O     0.66309   0.88585   0.10225   0.00000  Uiso   1.00
C433   C     0.84847   0.93340   0.25144   0.00000  Uiso   1.00
C434   C     0.77863   0.83157   0.40348   0.00000  Uiso   1.00
C435   C     0.85708   0.98936   0.25203   0.00000  Uiso   1.00
C436   C     0.79969   0.83260   0.34727   0.00000  Uiso   1.00
C437   C     0.80933   0.67730   0.24881   0.00000  Uiso   1.00
C438   C     0.81809   0.73326   0.24886   0.00000  Uiso   1.00
C439   C     0.86747   0.83738   0.15284   0.00000  Uiso   1.00
C440   C     0.96106   0.89017   0.02401   0.00000  Uiso   1.00
C441   C     0.88811   0.84634   0.09748   0.00000  Uiso   1.00
C442   C     0.71712   0.80455   0.42468   0.00000  Uiso   1.00
C443   C     0.69915   0.79400   0.47657   0.00000  Uiso   1.00
C444   C     0.80537   0.83589   0.48793   0.00000  Uiso   1.00
C445   C     0.74268   0.80843   0.00782   0.00000  Uiso   1.00
C446   C     0.68102   0.94071   0.11157   0.00000  Uiso   1.00
C447   C     0.74655   0.95312   0.12410   0.00000  Uiso   1.00
C448   C     0.77157   0.67915   0.12884   0.00000  Uiso   1.00
C449   C     0.82147   0.85133   0.43600   0.00000  Uiso   1.00
C450   C     0.85273   0.84855   0.01764   0.00000  Uiso   1.00
C451   C     0.91333   0.87891   0.49605   0.00000  Uiso   1.00
C452   C     0.92560   0.89857   0.44698   0.00000  Uiso   1.00
C453   C     0.87989   0.88620   0.41792   0.00000  Uiso   1.00
C454   C     0.84215   0.83140   0.06794   0.00000  Uiso   1.00
C455   C     0.94857   0.87540   0.07526   0.00000  Uiso   1.00
Cu456  Cu    0.77377   0.82772   0.24436   0.00000  Uiso   1.00
Cu457  Cu    0.89290   0.83895   0.25565   0.00000  Uiso   1.00
H458   H     0.76328   0.98682   0.24585   0.00000  Uiso   1.00
H459   H     0.89090   0.90508   0.38133   0.00000  Uiso   1.00
H460   H     0.90312   0.67984   0.25502   0.00000  Uiso   1.00
H461   H     0.97993   0.95241   0.14474   0.00000  Uiso   1.00
H462   H     0.68314   0.96484   0.07817   0.00000  Uiso   1.00
H463   H     0.74429   0.93408   0.16055   0.00000  Uiso   1.00
H464   H     0.77978   0.93686   0.09321   0.00000  Uiso   1.00
H465   H     0.77610   0.69859   0.09214   0.00000  Uiso   1.00
H466   H     0.81891   0.68690   0.13831   0.00000  Uiso   1.00
H467   H     0.73920   0.69639   0.15952   0.00000  Uiso   1.00
H468   H     0.67029   0.87246   0.28961   0.00000  Uiso   1.00
H469   H     0.99640   0.79425   0.21035   0.00000  Uiso   1.00
H470   H     0.97077   0.92392   0.43097   0.00000  Uiso   1.00
H471   H     0.67478   0.91112   0.00620   0.00000  Uiso   1.00
H472   H     0.79777   0.80677   0.08565   0.00000  Uiso   1.00
H473   H     0.68332   0.78993   0.40080   0.00000  Uiso   1.00
H474   H     0.72520   0.79825   0.04747   0.00000  Uiso   1.00
H475   H     0.98478   0.77316   0.49254   0.00000  Uiso   1.00
N476   N     0.98241   0.84741   0.26416   0.00000  Uiso   1.00
N477   N     0.68426   0.81926   0.23584   0.00000  Uiso   1.00
O478   O     0.79464   0.90474   0.24633   0.00000  Uiso   1.00
O479   O     0.89524   0.91422   0.25587   0.00000  Uiso   1.00
O480   O     0.75848   0.82627   0.31840   0.00000  Uiso   1.00
O481   O     0.85908   0.83575   0.32793   0.00000  Uiso   1.00
O482   O     0.77142   0.75245   0.24414   0.00000  Uiso   1.00
O483   O     0.87203   0.76193   0.25367   0.00000  Uiso   1.00
O484   O     0.80758   0.83092   0.17207   0.00000  Uiso   1.00
O485   O     0.90819   0.84040   0.18161   0.00000  Uiso   1.00
O486   O     0.99642   0.88585   0.10225   0.00000  Uiso   1.00
C487   C     0.18181   0.26674   0.75144   0.00000  Uiso   1.00
C488   C     0.11197   0.16490   0.90348   0.00000  Uiso   1.00
C489   C     0.19041   0.32270   0.75203   0.00000  Uiso   1.00
C490   C     0.13302   0.16594   0.84727   0.00000  Uiso   1.00
C491   C     0.14266   0.01063   0.74881   0.00000  Uiso   1.00
C492   C     0.15142   0.06660   0.74886   0.00000  Uiso   1.00
C493   C     0.20080   0.17071   0.65284   0.00000  Uiso   1.00
C494   C     0.29440   0.22350   0.52401   0.00000  Uiso   1.00
C495   C     0.22144   0.17968   0.59748   0.00000  Uiso   1.00
C496   C     0.05045   0.13788   0.92468   0.00000  Uiso   1.00
C497   C     0.03248   0.12733   0.97657   0.00000  Uiso   1.00
C498   C     0.13870   0.16922   0.98793   0.00000  Uiso   1.00
C499   C     0.07601   0.14176   0.50782   0.00000  Uiso   1.00
C500   C     0.01435   0.27404   0.61157   0.00000  Uiso   1.00
C501   C     0.07988   0.28646   0.62410   0.00000  Uiso   1.00
C502   C     0.10491   0.01249   0.62884   0.00000  Uiso   1.00
C503   C     0.15480   0.18466   0.93600   0.00000  Uiso   1.00
C504   C     0.18607   0.18188   0.51764   0.00000  Uiso   1.00
C505   C     0.24666   0.21224   0.99605   0.00000  Uiso   1.00
C506   C     0.25894   0.23191   0.94698   0.00000  Uiso   1.00
C507   C     0.21322   0.21953   0.91792   0.00000  Uiso   1.00
C508   C     0.17549   0.16474   0.56794   0.00000  Uiso   1.00
C509   C     0.28191   0.20873   0.57526   0.00000  Uiso   1.00
Cu510  Cu    0.10710   0.16105   0.74436   0.00000  Uiso   1.00
Cu511  Cu    0.22623   0.17228   0.75565   0.00000  Uiso   1.00
H512   H     0.09661   0.32016   0.74585   0.00000  Uiso   1.00
H513   H     0.22424   0.23841   0.88133   0.00000  Uiso   1.00
H514   H     0.23645   0.01317   0.75502   0.00000  Uiso   1.00
H515   H     0.31326   0.28574   0.64474   0.00000  Uiso   1.00
H516   H     0.01647   0.29818   0.57817   0.00000  Uiso   1.00
H517   H     0.07763   0.26741   0.66055   0.00000  Uiso   1.00
H518   H     0.11311   0.27019   0.59321   0.00000  Uiso   1.00
H519   H     0.10943   0.03192   0.59214   0.00000  Uiso   1.00
H520   H     0.15225   0.02024   0.63831   0.00000  Uiso   1.00
H521   H     0.07253   0.02972   0.65952   0.00000  Uiso   1.00
H522   H     0.00362   0.20579   0.78961   0.00000  Uiso   1.00
H523   H     0.32973   0.12758   0.71035   0.00000  Uiso   1.00
H524   H     0.30411   0.25725   0.93097   0.00000  Uiso   1.00
H525   H     0.00812   0.24445   0.50620   0.00000  Uiso   1.00
H526   H     0.13111   0.14010   0.58565   0.00000  Uiso   1.00
H527   H     0.01666   0.12326   0.90080   0.00000  Uiso   1.00
H528   H     0.05853   0.13158   0.54747   0.00000  Uiso   1.00
H529   H     0.31812   0.10649   0.99254   0.00000  Uiso   1.00
N530   N     0.31574   0.18074   0.76416   0.00000  Uiso   1.00
N531   N     0.01759   0.15259   0.73584   0.00000  Uiso   1.00
O532   O     0.12797   0.23807   0.74633   0.00000  Uiso   1.00
O533   O     0.22858   0.24755   0.75587   0.00000  Uiso   1.00
O534   O     0.09181   0.15960   0.81840   0.00000  Uiso   1.00
O535   O     0.19242   0.16908   0.82793   0.00000  Uiso   1.00
O536   O     0.10476   0.08578   0.74414   0.00000  Uiso   1.00
O537   O     0.20536   0.09526   0.75367   0.00000  Uiso   1.00
O538   O     0.14092   0.16425   0.67207   0.00000  Uiso   1.00
O539   O     0.24152   0.17373   0.68161   0.00000  Uiso   1.00
O540   O     0.32976   0.21918   0.60225   0.00000  Uiso   1.00
C541   C     0.51514   0.26674   0.75144   0.00000  Uiso   1.00
C542   C     0.44530   0.16490   0.90348   0.00000  Uiso   1.00
C543   C     0.52374   0.32270   0.75203   0.00000  Uiso   1.00
C544   C     0.46635   0.16594   0.84727   0.00000  Uiso   1.00
C545   C     0.47599   0.01063   0.74881   0.00000  Uiso   1.00
C546   C     0.48476   0.06660   0.74886   0.00000  Uiso   1.00
C547   C     0.53413   0.17071   0.65284   0.00000  Uiso   1.00
C548   C     0.62773   0.22350   0.52401   0.00000  Uiso   1.00
C549   C     0.55478   0.17968   0.59748   0.00000  Uiso   1.00
C550   C     0.38379   0.13788   0.92468   0.00000  Uiso   1.00
C551   C     0.36582   0.12733   0.97657   0.00000  Uiso   1.00
C552   C     0.47204   0.16922   0.98793   0.00000  Uiso   1.00
C553   C     0.40934   0.14176   0.50782   0.00000  Uiso   1.00
C554   C     0.34769   0.27404   0.61157   0.00000  Uiso   1.00
C555   C     0.41322   0.28646   0.62410   0.00000  Uiso   1.00
C556   C     0.43824   0.01249   0.62884   0.00000  Uiso   1.00
C557   C     0.48813   0.18466   0.93600   0.00000  Uiso   1.00
C558   C     0.51940   0.18188   0.51764   0.00000  Uiso   1.00
C559   C     0.58000   0.21224   0.99605   0.00000  Uiso   1.00
C560   C     0.59227   0.23191   0.94698   0.00000  Uiso   1.00
C561   C     0.54656   0.21953   0.91792   0.00000  Uiso   1.00
C562   C     0.50882   0.16474   0.56794   0.00000  Uiso   1.00
C563   C     0.61524   0.20873   0.57526   0.00000  Uiso   1.00
Cu564  Cu    0.44043   0.16105   0.74436   0.00000  Uiso   1.00
Cu565  Cu    0.55957   0.17228   0.75565   0.00000  Uiso   1.00
H566   H     0.42995   0.32016   0.74585   0.00000  Uiso   1.00
H567   H     0.55757   0.23841   0.88133   0.00000  Uiso   1.00
H568   H     0.56979   0.01317   0.75502   0.00000  Uiso   1.00
H569   H     0.64659   0.28574   0.64474   0.00000  Uiso   1.00
H570   H     0.34981   0.29818   0.57817   0.00000  Uiso   1.00
H571   H     0.41096   0.26741   0.66055   0.00000  Uiso   1.00
H572   H     0.44645   0.27019   0.59321   0.00000  Uiso   1.00
H573   H     0.44276   0.03192   0.59214   0.00000  Uiso   1.00
H574   H     0.48558   0.02024   0.63831   0.00000  Uiso   1.00
H575   H     0.40587   0.02972   0.65952   0.00000  Uiso   1.00
H576   H     0.33695   0.20579   0.78961   0.00000  Uiso   1.00
H577   H     0.66307   0.12758   0.71035   0.00000  Uiso   1.00
H578   H     0.63744   0.25725   0.93097   0.00000  Uiso   1.00
H579   H     0.34145   0.24445   0.50620   0.00000  Uiso   1.00
H580   H     0.46444   0.14010   0.58565   0.00000  Uiso   1.00
H581   H     0.34999   0.12326   0.90080   0.00000  Uiso   1.00
H582   H     0.39187   0.13158   0.54747   0.00000  Uiso   1.00
H583   H     0.65145   0.10649   0.99254   0.00000  Uiso   1.00
N584   N     0.64908   0.18074   0.76416   0.00000  Uiso   1.00
N585   N     0.35092   0.15259   0.73584   0.00000  Uiso   1.00
O586   O     0.46131   0.23807   0.74633   0.00000  Uiso   1.00
O587   O     0.56191   0.24755   0.75587   0.00000  Uiso   1.00
O588   O     0.42515   0.15960   0.81840   0.00000  Uiso   1.00
O589   O     0.52575   0.16908   0.82793   0.00000  Uiso   1.00
O590   O     0.43809   0.08578   0.74414   0.00000  Uiso   1.00
O591   O     0.53869   0.09526   0.75367   0.00000  Uiso   1.00
O592   O     0.47425   0.16425   0.67207   0.00000  Uiso   1.00
O593   O     0.57485   0.17373   0.68161   0.00000  Uiso   1.00
O594   O     0.66309   0.21918   0.60225   0.00000  Uiso   1.00
C595   C     0.84847   0.26674   0.75144   0.00000  Uiso   1.00
C596   C     0.77863   0.16490   0.90348   0.00000  Uiso   1.00
C597   C     0.85708   0.32270   0.75203   0.00000  Uiso   1.00
C598   C     0.79969   0.16594   0.84727   0.00000  Uiso   1.00
C599   C     0.80933   0.01063   0.74881   0.00000  Uiso   1.00
C600   C     0.81809   0.06660   0.74886   0.00000  Uiso   1.00
C601   C     0.86747   0.17071   0.65284   0.00000  Uiso   1.00
C602   C     0.96106   0.22350   0.52401   0.00000  Uiso   1.00
C603   C     0.88811   0.17968   0.59748   0.00000  Uiso   1.00
C604   C     0.71712   0.13788   0.92468   0.00000  Uiso   1.00
C605   C     0.69915   0.12733   0.97657   0.00000  Uiso   1.00
C606   C     0.80537   0.16922   0.98793   0.00000  Uiso   1.00
C607   C     0.74268   0.14176   0.50782   0.00000  Uiso   1.00
C608   C     0.68102   0.27404   0.61157   0.00000  Uiso   1.00
C609   C     0.74655   0.28646   0.62410   0.00000  Uiso   1.00
C610   C     0.77157   0.01249   0.62884   0.00000  Uiso   1.00
C611   C     0.82147   0.18466   0.93600   0.00000  Uiso   1.00
C612   C     0.85273   0.18188   0.51764   0.00000  Uiso   1.00
C613   C     0.91333   0.21224   0.99605   0.00000  Uiso   1.00
C614   C     0.92560   0.23191   0.94698   0.00000  Uiso   1.00
C615   C     0.87989   0.21953   0.91792   0.00000  Uiso   1.00
C616   C     0.84215   0.16474   0.56794   0.00000  Uiso   1.00
C617   C     0.94857   0.20873   0.57526   0.00000  Uiso   1.00
Cu618  Cu    0.77377   0.16105   0.74436   0.00000  Uiso   1.00
Cu619  Cu    0.89290   0.17228   0.75565   0.00000  Uiso   1.00
H620   H     0.76328   0.32016   0.74585   0.00000  Uiso   1.00
H621   H     0.89090   0.23841   0.88133   0.00000  Uiso   1.00
H622   H     0.90312   0.01317   0.75502   0.00000  Uiso   1.00
H623   H     0.97993   0.28574   0.64474   0.00000  Uiso   1.00
H624   H     0.68314   0.29818   0.57817   0.00000  Uiso   1.00
H625   H     0.74429   0.26741   0.66055   0.00000  Uiso   1.00
H626   H     0.77978   0.27019   0.59321   0.00000  Uiso   1.00
H627   H     0.77610   0.03192   0.59214   0.00000  Uiso   1.00
H628   H     0.81891   0.02024   0.63831   0.00000  Uiso   1.00
H629   H     0.73920   0.02972   0.65952   0.00000  Uiso   1.00
H630   H     0.67029   0.20579   0.78961   0.00000  Uiso   1.00
H631   H     0.99640   0.12758   0.71035   0.00000  Uiso   1.00
H632   H     0.97077   0.25725   0.93097   0.00000  Uiso   1.00
H633   H     0.67478   0.24445   0.50620   0.00000  Uiso   1.00
H634   H     0.79777   0.14010   0.58565   0.00000  Uiso   1.00
H635   H     0.68332   0.12326   0.90080   0.00000  Uiso   1.00
H636   H     0.72520   0.13158   0.54747   0.00000  Uiso   1.00
H637   H     0.98478   0.10649   0.99254   0.00000  Uiso   1.00
N638   N     0.98241   0.18074   0.76416   0.00000  Uiso   1.00
N639   N     0.68426   0.15259   0.73584   0.00000  Uiso   1.00
O640   O     0.79464   0.23807   0.74633   0.00000  Uiso   1.00
O641   O     0.89524   0.24755   0.75587   0.00000  Uiso   1.00
O642   O     0.75848   0.15960   0.81840   0.00000  Uiso   1.00
O643   O     0.85908   0.16908   0.82793   0.00000  Uiso   1.00
O644   O     0.77142   0.08578   0.74414   0.00000  Uiso   1.00
O645   O     0.87203   0.09526   0.75367   0.00000  Uiso   1.00
O646   O     0.80758   0.16425   0.67207   0.00000  Uiso   1.00
O647   O     0.90819   0.17373   0.68161   0.00000  Uiso   1.00
O648   O     0.99642   0.21918   0.60225   0.00000  Uiso   1.00
C649   C     0.18181   0.60007   0.75144   0.00000  Uiso   1.00
C650   C     0.11197   0.49824   0.90348   0.00000  Uiso   1.00
C651   C     0.19041   0.65603   0.75203   0.00000  Uiso   1.00
C652   C     0.13302   0.49927   0.84727   0.00000  Uiso   1.00
C653   C     0.14266   0.34396   0.74881   0.00000  Uiso   1.00
C654   C     0.15142   0.39993   0.74886   0.00000  Uiso   1.00
C655   C     0.20080   0.50405   0.65284   0.00000  Uiso   1.00
C656   C     0.29440   0.55684   0.52401   0.00000  Uiso   1.00
C657   C     0.22144   0.51301   0.59748   0.00000  Uiso   1.00
C658   C     0.05045   0.47121   0.92468   0.00000  Uiso   1.00
C659   C     0.03248   0.46066   0.97657   0.00000  Uiso   1.00
C660   C     0.13870   0.50255   0.98793   0.00000  Uiso   1.00
C661   C     0.07601   0.47510   0.50782   0.00000  Uiso   1.00
C662   C     0.01435   0.60738   0.61157   0.00000  Uiso   1.00
C663   C     0.07988   0.61979   0.62410   0.00000  Uiso   1.00
C664   C     0.10491   0.34582   0.62884   0.00000  Uiso   1.00
C665   C     0.15480   0.51799   0.93600   0.00000  Uiso   1.00
C666   C     0.18607   0.51522   0.51764   0.00000  Uiso   1.00
C667   C     0.24666   0.54558   0.99605   0.00000  Uiso   1.00
C668   C     0.25894   0.56524   0.94698   0.00000  Uiso   1.00
C669   C     0.21322   0.55287   0.91792   0.00000  Uiso   1.00
C670   C     0.17549   0.49807   0.56794   0.00000  Uiso   1.00
C671   C     0.28191   0.54207   0.57526   0.00000  Uiso   1.00
Cu672  Cu    0.10710   0.49439   0.74436   0.00000  Uiso   1.00
Cu673  Cu    0.22623   0.50561   0.75565   0.00000  Uiso   1.00
H674   H     0.09661   0.65349   0.74585   0.00000  Uiso   1.00
H675   H     0.22424   0.57174   0.88133   0.00000  Uiso   1.00
H676   H     0.23645   0.34650   0.75502   0.00000  Uiso   1.00
H677   H     0.31326   0.61907   0.64474   0.00000  Uiso   1.00
H678   H     0.01647   0.63151   0.57817   0.00000  Uiso   1.00
H679   H     0.07763   0.60075   0.66055   0.00000  Uiso   1.00
H680   H     0.11311   0.60353   0.59321   0.00000  Uiso   1.00
H681   H     0.10943   0.36526   0.59214   0.00000  Uiso   1.00
H682   H     0.15225   0.35357   0.63831   0.00000  Uiso   1.00
H683   H     0.07253   0.36306   0.65952   0.00000  Uiso   1.00
H684   H     0.00362   0.53913   0.78961   0.00000  Uiso   1.00
H685   H     0.32973   0.46092   0.71035   0.00000  Uiso   1.00
H686   H     0.30411   0.59059   0.93097   0.00000  Uiso   1.00
H687   H     0.00812   0.57778   0.50620   0.00000  Uiso   1.00
H688   H     0.13111   0.47343   0.58565   0.00000  Uiso   1.00
H689   H     0.01666   0.45660   0.90080   0.00000  Uiso   1.00
H690   H     0.05853   0.46492   0.54747   0.00000  Uiso   1.00
H691   H     0.31812   0.43982   0.99254   0.00000  Uiso   1.00
N692   N     0.31574   0.51407   0.76416   0.00000  Uiso   1.00
N693   N     0.01759   0.48593   0.73584   0.00000  Uiso   1.00
O694   O     0.12797   0.57141   0.74633   0.00000  Uiso   1.00
O695   O     0.22858   0.58089   0.75587   0.00000  Uiso   1.00
O696   O     0.09181   0.49293   0.81840   0.00000  Uiso   1.00
O697   O     0.19242   0.50241   0.82793   0.00000  Uiso   1.00
O698   O     0.10476   0.41911   0.74414   0.00000  Uiso   1.00
O699   O     0.20536   0.42859   0.75367   0.00000  Uiso   1.00
O700   O     0.14092   0.49759   0.67207   0.00000  Uiso   1.00
O701   O     0.24152   0.50707   0.68161   0.00000  Uiso   1.00
O702   O     0.32976   0.55252   0.60225   0.00000  Uiso   1.00
C703   C     0.51514   0.60007   0.75144   0.00000  Uiso   1.00
C704   C     0.44530   0.49824   0.90348   0.00000  Uiso   1.00
C705   C     0.52374   0.65603   0.75203   0.00000  Uiso   1.00
C706   C     0.46635   0.49927   0.84727   0.00000  Uiso   1.00
C707   C     0.47599   0.34396   0.74881   0.00000  Uiso   1.00
C708   C     0.48476   0.39993   0.74886   0.00000  Uiso   1.00
C709   C     0.53413   0.50405   0.65284   0.00000  Uiso   1.00
C710   C     0.62773   0.55684   0.52401   0.00000  Uiso   1.00
C711   C     0.55478   0.51301   0.59748   0.00000  Uiso   1.00
C712   C     0.38379   0.47121   0.92468   0.00000  Uiso   1.00
C713   C     0.36582   0.46066   0.97657   0.00000  Uiso   1.00
C714   C     0.47204   0.50255   0.98793   0.00000  Uiso   1.00
C715   C     0.40934   0.47510   0.50782   0.00000  Uiso   1.00
C716   C     0.34769   0.60738   0.61157   0.00000  Uiso   1.00
C717   C     0.41322   0.61979   0.62410   0.00000  Uiso   1.00
C718   C     0.43824   0.34582   0.62884   0.00000  Uiso   1.00
C719   C     0.48813   0.51799   0.93600   0.00000  Uiso   1.00
C720   C     0.51940   0.51522   0.51764   0.00000  Uiso   1.00
C721   C     0.58000   0.54558   0.99605   0.00000  Uiso   1.00
C722   C     0.59227   0.56524   0.94698   0.00000  Uiso   1.00
C723   C     0.54656   0.55287   0.91792   0.00000  Uiso   1.00
C724   C     0.50882   0.49807   0.56794   0.00000  Uiso   1.00
C725   C     0.61524   0.54207   0.57526   0.00000  Uiso   1.00
Cu726  Cu    0.44043   0.49439   0.74436   0.00000  Uiso   1.00
Cu727  Cu    0.55957   0.50561   0.75565   0.00000  Uiso   1.00
H728   H     0.42995   0.65349   0.74585   0.00000  Uiso   1.00
H729   H     0.55757   0.57174   0.88133   0.00000  Uiso   1.00
H730   H     0.56979   0.34650   0.75502   0.00000  Uiso   1.00
H731   H     0.64659   0.61907   0.64474   0.00000  Uiso   1.00
H732   H     0.34981   0.63151   0.57817   0.00000  Uiso   1.00
H733   H     0.41096   0.60075   0.66055   0.00000  Uiso   1.00
H734   H     0.44645   0.60353   0.59321   0.00000  Uiso   1.00
H735   H     0.44276   0.36526   0.59214   0.00000  Uiso   1.00
H736   H     0.48558   0.35357   0.63831   0.00000  Uiso   1.00
H737   H     0.40587   0.36306   0.65952   0.00000  Uiso   1.00
H738   H     0.33695   0.53913   0.78961   0.00000  Uiso   1.00
H739   H     0.66307   0.46092   0.71035   0.00000  Uiso   1.00
H740   H     0.63744   0.59059   0.93097   0.00000  Uiso   1.00
H741   H     0.34145   0.57778   0.50620   0.00000  Uiso   1.00
H742   H     0.46444   0.47343   0.58565   0.00000  Uiso   1.00
H743   H     0.34999   0.45660   0.90080   0.00000  Uiso   1.00
H744   H     0.39187   0.46492   0.54747   0.00000  Uiso   1.00
H745   H     0.65145   0.43982   0.99254   0.00000  Uiso   1.00
N746   N     0.64908   0.51407   0.76416   0.00000  Uiso   1.00
N747   N     0.35092   0.48593   0.73584   0.00000  Uiso   1.00
O748   O     0.46131   0.57141   0.74633   0.00000  Uiso   1.00
O749   O     0.56191   0.58089   0.75587   0.00000  Uiso   1.00
O750   O     0.42515   0.49293   0.81840   0.00000  Uiso   1.00
O751   O     0.52575   0.50241   0.82793   0.00000  Uiso   1.00
O752   O     0.43809   0.41911   0.74414   0.00000  Uiso   1.00
O753   O     0.53869   0.42859   0.75367   0.00000  Uiso   1.00
O754   O     0.47425   0.49759   0.67207   0.00000  Uiso   1.00
O755   O     0.57485   0.50707   0.68161   0.00000  Uiso   1.00
O756   O     0.66309   0.55252   0.60225   0.00000  Uiso   1.00
C757   C     0.84847   0.60007   0.75144   0.00000  Uiso   1.00
C758   C     0.77863   0.49824   0.90348   0.00000  Uiso   1.00
C759   C     0.85708   0.65603   0.75203   0.00000  Uiso   1.00
C760   C     0.79969   0.49927   0.84727   0.00000  Uiso   1.00
C761   C     0.80933   0.34396   0.74881   0.00000  Uiso   1.00
C762   C     0.81809   0.39993   0.74886   0.00000  Uiso   1.00
C763   C     0.86747   0.50405   0.65284   0.00000  Uiso   1.00
C764   C     0.96106   0.55684   0.52401   0.00000  Uiso   1.00
C765   C     0.88811   0.51301   0.59748   0.00000  Uiso   1.00
C766   C     0.71712   0.47121   0.92468   0.00000  Uiso   1.00
C767   C     0.69915   0.46066   0.97657   0.00000  Uiso   1.00
C768   C     0.80537   0.50255   0.98793   0.00000  Uiso   1.00
C769   C     0.74268   0.47510   0.50782   0.00000  Uiso   1.00
C770   C     0.68102   0.60738   0.61157   0.00000  Uiso   1.00
C771   C     0.74655   0.61979   0.62410   0.00000  Uiso   1.00
C772   C     0.77157   0.34582   0.62884   0.00000  Uiso   1.00
C773   C     0.82147   0.51799   0.93600   0.00000  Uiso   1.00
C774   C     0.85273   0.51522   0.51764   0.00000  Uiso   1.00
C775   C     0.91333   0.54558   0.99605   0.00000  Uiso   1.00
C776   C     0.92560   0.56524   0.94698   0.00000  Uiso   1.00
C777   C     0.87989   0.55287   0.91792   0.00000  Uiso   1.00
C778   C     0.84215   0.49807   0.56794   0.00000  Uiso   1.00
C779   C     0.94857   0.54207   0.57526   0.00000  Uiso   1.00
Cu780  Cu    0.77377   0.49439   0.74436   0.00000  Uiso   1.00
Cu781  Cu    0.89290   0.50561   0.75565   0.00000  Uiso   1.00
H782   H     0.76328   0.65349   0.74585   0.00000  Uiso   1.00
H783   H     0.89090   0.57174   0.88133   0.00000  Uiso   1.00
H784   H     0.90312   0.34650   0.75502   0.00000  Uiso   1.00
H785   H     0.97993   0.61907   0.64474   0.00000  Uiso   1.00
H786   H     0.68314   0.63151   0.57817   0.00000  Uiso   1.00
H787   H     0.74429   0.60075   0.66055   0.00000  Uiso   1.00
H788   H     0.77978   0.60353   0.59321   0.00000  Uiso   1.00
H789   H     0.77610   0.36526   0.59214   0.00000  Uiso   1.00
H790   H     0.81891   0.35357   0.63831   0.00000  Uiso   1.00
H791   H     0.73920   0.36306   0.65952   0.00000  Uiso   1.00
H792   H     0.67029   0.53913   0.78961   0.00000  Uiso   1.00
H793   H     0.99640   0.46092   0.71035   0.00000  Uiso   1.00
H794   H     0.97077   0.59059   0.93097   0.00000  Uiso   1.00
H795   H     0.67478   0.57778   0.50620   0.00000  Uiso   1.00
H796   H     0.79777   0.47343   0.58565   0.00000  Uiso   1.00
H797   H     0.68332   0.45660   0.90080   0.00000  Uiso   1.00
H798   H     0.72520   0.46492   0.54747   0.00000  Uiso   1.00
H799   H     0.98478   0.43982   0.99254   0.00000  Uiso   1.00
N800   N     0.98241   0.51407   0.76416   0.00000  Uiso   1.00
N801   N     0.68426   0.48593   0.73584   0.00000  Uiso   1.00
O802   O     0.79464   0.57141   0.74633   0.00000  Uiso   1.00
O803   O     0.89524   0.58089   0.75587   0.00000  Uiso   1.00
O804   O     0.75848   0.49293   0.81840   0.00000  Uiso   1.00
O805   O     0.85908   0.50241   0.82793   0.00000  Uiso   1.00
O806   O     0.77142   0.41911   0.74414   0.00000  Uiso   1.00
O807   O     0.87203   0.42859   0.75367   0.00000  Uiso   1.00
O808   O     0.80758   0.49759   0.67207   0.00000  Uiso   1.00
O809   O     0.90819   0.50707   0.68161   0.00000  Uiso   1.00
O810   O     0.99642   0.55252   0.60225   0.00000  Uiso   1.00
C811   C     0.18181   0.93340   0.75144   0.00000  Uiso   1.00
C812   C     0.11197   0.83157   0.90348   0.00000  Uiso   1.00
C813   C     0.19041   0.98936   0.75203   0.00000  Uiso   1.00
C814   C     0.13302   0.83260   0.84727   0.00000  Uiso   1.00
C815   C     0.14266   0.67730   0.74881   0.00000  Uiso   1.00
C816   C     0.15142   0.73326   0.74886   0.00000  Uiso   1.00
C817   C     0.20080   0.83738   0.65284   0.00000  Uiso   1.00
C818   C     0.29440   0.89017   0.52401   0.00000  Uiso   1.00
C819   C     0.22144   0.84634   0.59748   0.00000  Uiso   1.00
C820   C     0.05045   0.80455   0.92468   0.00000  Uiso   1.00
C821   C     0.03248   0.79400   0.97657   0.00000  Uiso   1.00
C822   C     0.13870   0.83589   0.98793   0.00000  Uiso   1.00
C823   C     0.07601   0.80843   0.50782   0.00000  Uiso   1.00
C824   C     0.01435   0.94071   0.61157   0.00000  Uiso   1.00
C825   C     0.07988   0.95312   0.62410   0.00000  Uiso   1.00
C826   C     0.10491   0.67915   0.62884   0.00000  Uiso   1.00
C827   C     0.15480   0.85133   0.93600   0.00000  Uiso   1.00
C828   C     0.18607   0.84855   0.51764   0.00000  Uiso   1.00
C829   C     0.24666   0.87891   0.99605   0.00000  Uiso   1.00
C830   C     0.25894   0.89857   0.94698   0.00000  Uiso   1.00
C831   C     0.21322   0.88620   0.91792   0.00000  Uiso   1.00
C832   C     0.17549   0.83140   0.56794   0.00000  Uiso   1.00
C833   C     0.28191   0.87540   0.57526   0.00000  Uiso   1.00
Cu834  Cu    0.10710   0.82772   0.74436   0.00000  Uiso   1.00
Cu835  Cu    0.22623   0.83895   0.75565   0.00000  Uiso   1.00
H836   H     0.09661   0.98682   0.74585   0.00000  Uiso   1.00
H837   H     0.22424   0.90508   0.88133   0.00000  Uiso   1.00
H838   H     0.23645   0.67984   0.75502   0.00000  Uiso   1.00
H839   H     0.31326   0.95241   0.64474   0.00000  Uiso   1.00
H840   H     0.01647   0.96484   0.57817   0.00000  Uiso   1.00
H841   H     0.07763   0.93408   0.66055   0.00000  Uiso   1.00
H842   H     0.11311   0.93686   0.59321   0.00000  Uiso   1.00
H843   H     0.10943   0.69859   0.59214   0.00000  Uiso   1.00
H844   H     0.15225   0.68690   0.63831   0.00000  Uiso   1.00
H845   H     0.07253   0.69639   0.65952   0.00000  Uiso   1.00
H846   H     0.00362   0.87246   0.78961   0.00000  Uiso   1.00
H847   H     0.32973   0.79425   0.71035   0.00000  Uiso   1.00
H848   H     0.30411   0.92392   0.93097   0.00000  Uiso   1.00
H849   H     0.00812   0.91112   0.50620   0.00000  Uiso   1.00
H850   H     0.13111   0.80677   0.58565   0.00000  Uiso   1.00
H851   H     0.01666   0.78993   0.90080   0.00000  Uiso   1.00
H852   H     0.05853   0.79825   0.54747   0.00000  Uiso   1.00
H853   H     0.31812   0.77316   0.99254   0.00000  Uiso   1.00
N854   N     0.31574   0.84741   0.76416   0.00000  Uiso   1.00
N855   N     0.01759   0.81926   0.73584   0.00000  Uiso   1.00
O856   O     0.12797   0.90474   0.74633   0.00000  Uiso   1.00
O857   O     0.22858   0.91422   0.75587   0.00000  Uiso   1.00
O858   O     0.09181   0.82627   0.81840   0.00000  Uiso   1.00
O859   O     0.19242   0.83575   0.82793   0.00000  Uiso   1.00
O860   O     0.10476   0.75245   0.74414   0.00000  Uiso   1.00
O861   O     0.20536   0.76193   0.75367   0.00000  Uiso   1.00
O862   O     0.14092   0.83092   0.67207   0.00000  Uiso   1.00
O863   O     0.24152   0.84040   0.68161   0.00000  Uiso   1.00
O864   O     0.32976   0.88585   0.60225   0.00000  Uiso   1.00
C865   C     0.51514   0.93340   0.75144   0.00000  Uiso   1.00
C866   C     0.44530   0.83157   0.90348   0.00000  Uiso   1.00
C867   C     0.52374   0.98936   0.75203   0.00000  Uiso   1.00
C868   C     0.46635   0.83260   0.84727   0.00000  Uiso   1.00
C869   C     0.47599   0.67730   0.74881   0.00000  Uiso   1.00
C870   C     0.48476   0.73326   0.74886   0.00000  Uiso   1.00
C871   C     0.53413   0.83738   0.65284   0.00000  Uiso   1.00
C872   C     0.62773   0.89017   0.52401   0.00000  Uiso   1.00
C873   C     0.55478   0.84634   0.59748   0.00000  Uiso   1.00
C874   C     0.38379   0.80455   0.92468   0.00000  Uiso   1.00
C875   C     0.36582   0.79400   0.97657   0.00000  Uiso   1.00
C876   C     0.47204   0.83589   0.98793   0.00000  Uiso   1.00
C877   C     0.40934   0.80843   0.50782   0.00000  Uiso   1.00
C878   C     0.34769   0.94071   0.61157   0.00000  Uiso   1.00
C879   C     0.41322   0.95312   0.62410   0.00000  Uiso   1.00
C880   C     0.43824   0.67915   0.62884   0.00000  Uiso   1.00
C881   C     0.48813   0.85133   0.93600   0.00000  Uiso   1.00
C882   C     0.51940   0.84855   0.51764   0.00000  Uiso   1.00
C883   C     0.58000   0.87891   0.99605   0.00000  Uiso   1.00
C884   C     0.59227   0.89857   0.94698   0.00000  Uiso   1.00
C885   C     0.54656   0.88620   0.91792   0.00000  Uiso   1.00
C886   C     0.50882   0.83140   0.56794   0.00000  Uiso   1.00
C887   C     0.61524   0.87540   0.57526   0.00000  Uiso   1.00
Cu888  Cu    0.44043   0.82772   0.74436   0.00000  Uiso   1.00
Cu889  Cu    0.55957   0.83895   0.75565   0.00000  Uiso   1.00
H890   H     0.42995   0.98682   0.74585   0.00000  Uiso   1.00
H891   H     0.55757   0.90508   0.88133   0.00000  Uiso   1.00
H892   H     0.56979   0.67984   0.75502   0.00000  Uiso   1.00
H893   H     0.64659   0.95241   0.64474   0.00000  Uiso   1.00
H894   H     0.34981   0.96484   0.57817   0.00000  Uiso   1.00
H895   H     0.41096   0.93408   0.66055   0.00000  Uiso   1.00
H896   H     0.44645   0.93686   0.59321   0.00000  Uiso   1.00
H897   H     0.44276   0.69859   0.59214   0.00000  Uiso   1.00
H898   H     0.48558   0.68690   0.63831   0.00000  Uiso   1.00
H899   H     0.40587   0.69639   0.65952   0.00000  Uiso   1.00
H900   H     0.33695   0.87246   0.78961   0.00000  Uiso   1.00
H901   H     0.66307   0.79425   0.71035   0.00000  Uiso   1.00
H902   H     0.63744   0.92392   0.93097   0.00000  Uiso   1.00
H903   H     0.34145   0.91112   0.50620   0.00000  Uiso   1.00
H904   H     0.46444   0.80677   0.58565   0.00000  Uiso   1.00
H905   H     0.34999   0.78993   0.90080   0.00000  Uiso   1.00
H906   H     0.39187   0.79825   0.54747   0.00000  Uiso   1.00
H907   H     0.65145   0.77316   0.99254   0.00000  Uiso   1.00
N908   N     0.64908   0.84741   0.76416   0.00000  Uiso   1.00
N909   N     0.35092   0.81926   0.73584   0.00000  Uiso   1.00
O910   O     0.46131   0.90474   0.74633   0.00000  Uiso   1.00
O911   O     0.56191   0.91422   0.75587   0.00000  Uiso   1.00
O912   O     0.42515   0.82627   0.81840   0.00000  Uiso   1.00
O913   O     0.52575   0.83575   0.82793   0.00000  Uiso   1.00
O914   O     0.43809   0.75245   0.74414   0.00000  Uiso   1.00
O915   O     0.53869   0.76193   0.75367   0.00000  Uiso   1.00
O916   O     0.47425   0.83092   0.67207   0.00000  Uiso   1.00
O917   O     0.57485   0.84040   0.68161   0.00000  Uiso   1.00
O918   O     0.66309   0.88585   0.60225   0.00000  Uiso   1.00
C919   C     0.84847   0.93340   0.75144   0.00000  Uiso   1.00
C920   C     0.77863   0.83157   0.90348   0.00000  Uiso   1.00
C921   C     0.85708   0.98936   0.75203   0.00000  Uiso   1.00
C922   C     0.79969   0.83260   0.84727   0.00000  Uiso   1.00
C923   C     0.80933   0.67730   0.74881   0.00000  Uiso   1.00
C924   C     0.81809   0.73326   0.74886   0.00000  Uiso   1.00
C925   C     0.86747   0.83738   0.65284   0.00000  Uiso   1.00
C926   C     0.96106   0.89017   0.52401   0.00000  Uiso   1.00
C927   C     0.88811   0.84634   0.59748   0.00000  Uiso   1.00
C928   C     0.71712   0.80455   0.92468   0.00000  Uiso   1.00
C929   C     0.69915   0.79400   0.97657   0.00000  Uiso   1.00
C930   C     0.80537   0.83589   0.98793   0.00000  Uiso   1.00
C931   C     0.74268   0.80843   0.50782   0.00000  Uiso   1.00
C932   C     0.68102   0.94071   0.61157   0.00000  Uiso   1.00
C933   C     0.74655   0.95312   0.62410   0.00000  Uiso   1.00
C934   C     0.77157   0.67915   0.62884   0.00000  Uiso   1.00
C935   C     0.82147   0.85133   0.93600   0.00000  Uiso   1.00
C936   C     0.85273   0.84855   0.51764   0.00000  Uiso   1.00
C937   C     0.91333   0.87891   0.99605   0.00000  Uiso   1.00
C938   C     0.92560   0.89857   0.94698   0.00000  Uiso   1.00
C939   C     0.87989   0.88620   0.91792   0.00000  Uiso   1.00
C940   C     0.84215   0.83140   0.56794   0.00000  Uiso   1.00
C941   C     0.94857   0.87540   0.57526   0.00000  Uiso   1.00
Cu942  Cu    0.77377   0.82772   0.74436   0.00000  Uiso   1.00
Cu943  Cu    0.89290   0.83895   0.75565   0.00000  Uiso   1.00
H944   H     0.76328   0.98682   0.74585   0.00000  Uiso   1.00
H945   H     0.89090   0.90508   0.88133   0.00000  Uiso   1.00
H946   H     0.90312   0.67984   0.75502   0.00000  Uiso   1.00
H947   H     0.97993   0.95241   0.64474   0.00000  Uiso   1.00
H948   H     0.68314   0.96484   0.57817   0.00000  Uiso   1.00
H949   H     0.74429   0.93408   0.66055   0.00000  Uiso   1.00
H950   H     0.77978   0.93686   0.59321   0.00000  Uiso   1.00
H951   H     0.77610   0.69859   0.59214   0.00000  Uiso   1.00
H952   H     0.81891   0.68690   0.63831   0.00000  Uiso   1.00
H953   H     0.73920   0.69639   0.65952   0.00000  Uiso   1.00
H954   H     0.67029   0.87246   0.78961   0.00000  Uiso   1.00
H955   H     0.99640   0.79425   0.71035   0.00000  Uiso   1.00
H956   H     0.97077   0.92392   0.93097   0.00000  Uiso   1.00
H957   H     0.67478   0.91112   0.50620   0.00000  Uiso   1.00
H958   H     0.79777   0.80677   0.58565   0.00000  Uiso   1.00
H959   H     0.68332   0.78993   0.90080   0.00000  Uiso   1.00
H960   H     0.72520   0.79825   0.54747   0.00000  Uiso   1.00
H961   H     0.98478   0.77316   0.99254   0.00000  Uiso   1.00
N962   N     0.98241   0.84741   0.76416   0.00000  Uiso   1.00
N963   N     0.68426   0.81926   0.73584   0.00000  Uiso   1.00
O964   O     0.79464   0.90474   0.74633   0.00000  Uiso   1.00
O965   O     0.89524   0.91422   0.75587   0.00000  Uiso   1.00
O966   O     0.75848   0.82627   0.81840   0.00000  Uiso   1.00
O967   O     0.85908   0.83575   0.82793   0.00000  Uiso   1.00
O968   O     0.77142   0.75245   0.74414   0.00000  Uiso   1.00
O969   O     0.87203   0.76193   0.75367   0.00000  Uiso   1.00
O970   O     0.80758   0.83092   0.67207   0.00000  Uiso   1.00
O971   O     0.90819   0.84040   0.68161   0.00000  Uiso   1.00
O972   O     0.99642   0.88585   0.60225   0.00000  Uiso   1.00
loop_
_geom_bond_atom_site_label_1
_geom_bond_atom_site_label_2
_geom_bond_distance
_geom_bond_site_symmetry_2
_ccdc_geom_bond_type
C1     O47     1.284   .     A
C1     O46     1.291   .     A
C1     C3      1.426   .     S
C2     C4      1.476   .     S
C2     C17     1.422   .     A
C2     C10     1.401   .     A
C3     C167    1.327   .     S
C3     H190    1.088   .     S
C4     O49     1.295   .     A
C4     O48     1.304   .     A
C5     C6      1.426   .     S
C5     C327    1.327   1_545 S
C5     H350    1.088   1_545 S
C6     O50     1.284   .     A
C6     O51     1.291   .     A
C7     O52     1.295   .     A
C7     O53     1.302   .     A
C7     C9      1.471   .     S
C8     C23     1.402   .     A
C8     C505    1.401   1_554 S
C8     H93     1.084   .     S
C9     C23     1.407   .     A
C9     C22     1.402   .     A
C10    C11     1.388   .     A
C10    H41     1.083   .     S
C11    C499    1.392   .     S
C11    H151    1.083   1_455 S
C12    C17     1.420   .     A
C12    C499    1.418   .     S
C12    C504    1.427   .     S
C13    H42     1.077   .     S
C13    C498    1.418   1_554 S
C13    C497    1.392   1_554 S
C14    H30     1.115   .     S
C14    C15     1.529   .     S
C14    H137    1.113   1_455 S
C14    O162    1.415   1_455 S
C15    H32     1.112   .     S
C15    H31     1.112   .     S
C15    C178    1.527   .     S
C16    H34     1.110   .     S
C16    H33     1.111   .     S
C16    H35     1.110   .     S
C16    C339    1.527   1_545 S
C17    C21     1.412   .     A
C18    C22     1.402   .     A
C18    C498    1.427   1_554 S
C18    C505    1.418   1_554 S
C19    C20     1.391   .     A
C19    C504    1.418   .     S
C19    C494    1.401   .     S
C20    H38     1.084   .     S
C20    C21     1.385   .     A
C21    H27     1.080   .     S
C22    H40     1.076   .     S
C23    O54     1.385   .     S
Cu24   O52     1.917   .     S
Cu24   Cu25    2.685   .     S
Cu24   O46     1.954   .     S
Cu24   N45     2.018   .     S
Cu24   O50     1.949   .     S
Cu24   O48     1.940   .     S
Cu25   O51     1.954   .     S
Cu25   O47     1.949   .     S
Cu25   N44     2.018   .     S
Cu25   O53     1.940   .     S
Cu25   O49     1.917   .     S
H26    C167    1.088   .     S
H28    C327    1.088   1_545 S
H29    C68     1.113   .     S
H36    N152    1.029   1_455 S
H37    N99     1.029   .     S
H39    C116    1.084   1_455 S
H43    C65     1.083   .     S
N44    H90     1.029   .     S
N44    N99     1.285   .     S
N45    N152    1.285   1_455 S
N45    H145    1.029   1_455 S
O54    C68     1.415   .     S
C55    O101    1.284   .     A
C55    O100    1.291   .     A
C55    C57     1.426   .     S
C56    C58     1.476   .     S
C56    C71     1.422   .     A
C56    C64     1.401   .     A
C57    C221    1.327   .     S
C57    H244    1.088   .     S
C58    O103    1.295   .     A
C58    O102    1.304   .     A
C59    C60     1.426   .     S
C59    C381    1.327   1_545 S
C59    H404    1.088   1_545 S
C60    O104    1.284   .     A
C60    O105    1.291   .     A
C61    O106    1.295   .     A
C61    O107    1.302   .     A
C61    C63     1.471   .     S
C62    C77     1.402   .     A
C62    C559    1.401   1_554 S
C62    H147    1.084   .     S
C63    C77     1.407   .     A
C63    C76     1.402   .     A
C64    C65     1.388   .     A
C64    H95     1.083   .     S
C65    C553    1.392   .     S
C66    C71     1.420   .     A
C66    C553    1.418   .     S
C66    C558    1.427   .     S
C67    H96     1.077   .     S
C67    C552    1.418   1_554 S
C67    C551    1.392   1_554 S
C68    H84     1.115   .     S
C68    C69     1.529   .     S
C69    H86     1.112   .     S
C69    H85     1.112   .     S
C69    C232    1.527   .     S
C70    H88     1.110   .     S
C70    H87     1.111   .     S
C70    H89     1.110   .     S
C70    C393    1.527   1_545 S
C71    C75     1.412   .     A
C72    C76     1.402   .     A
C72    C552    1.427   1_554 S
C72    C559    1.418   1_554 S
C73    C74     1.391   .     A
C73    C558    1.418   .     S
C73    C548    1.401   .     S
C74    H92     1.084   .     S
C74    C75     1.385   .     A
C75    H81     1.080   .     S
C76    H94     1.076   .     S
C77    O108    1.385   .     S
Cu78   O106    1.917   .     S
Cu78   Cu79    2.685   .     S
Cu78   O100    1.954   .     S
Cu78   N99     2.018   .     S
Cu78   O104    1.949   .     S
Cu78   O102    1.940   .     S
Cu79   O105    1.954   .     S
Cu79   O101    1.949   .     S
Cu79   N98     2.018   .     S
Cu79   O107    1.940   .     S
Cu79   O103    1.917   .     S
H80    C221    1.088   .     S
H82    C381    1.088   1_545 S
H83    C122    1.113   .     S
H91    N153    1.029   .     S
H97    C119    1.083   .     S
N98    H144    1.029   .     S
N98    N153    1.285   .     S
O108   C122    1.415   .     S
C109   O155    1.284   .     A
C109   O154    1.291   .     A
C109   C111    1.426   .     S
C110   C112    1.476   .     S
C110   C125    1.422   .     A
C110   C118    1.401   .     A
C111   C275    1.327   .     S
C111   H298    1.088   .     S
C112   O157    1.295   .     A
C112   O156    1.304   .     A
C113   C114    1.426   .     S
C113   C435    1.327   1_545 S
C113   H458    1.088   1_545 S
C114   O158    1.284   .     A
C114   O159    1.291   .     A
C115   O160    1.295   .     A
C115   O161    1.302   .     A
C115   C117    1.471   .     S
C116   C131    1.402   .     A
C116   C613    1.401   1_554 S
C116   H39     1.084   1_655 S
C117   C131    1.407   .     A
C117   C130    1.402   .     A
C118   C119    1.388   .     A
C118   H149    1.083   .     S
C119   C607    1.392   .     S
C120   C125    1.420   .     A
C120   C607    1.418   .     S
C120   C612    1.427   .     S
C121   H150    1.077   .     S
C121   C606    1.418   1_554 S
C121   C605    1.392   1_554 S
C122   H138    1.115   .     S
C122   C123    1.529   .     S
C123   H140    1.112   .     S
C123   H139    1.112   .     S
C123   C286    1.527   .     S
C124   H142    1.110   .     S
C124   H141    1.111   .     S
C124   H143    1.110   .     S
C124   C447    1.527   1_545 S
C125   C129    1.412   .     A
C126   C130    1.402   .     A
C126   C606    1.427   1_554 S
C126   C613    1.418   1_554 S
C127   C128    1.391   .     A
C127   C612    1.418   .     S
C127   C602    1.401   .     S
C128   H146    1.084   .     S
C128   C129    1.385   .     A
C129   H135    1.080   .     S
C130   H148    1.076   .     S
C131   O162    1.385   .     S
Cu132  O160    1.917   .     S
Cu132  Cu133   2.685   .     S
Cu132  O154    1.954   .     S
Cu132  N153    2.018   .     S
Cu132  O158    1.949   .     S
Cu132  O156    1.940   .     S
Cu133  O159    1.954   .     S
Cu133  O155    1.949   .     S
Cu133  N152    2.018   .     S
Cu133  O161    1.940   .     S
Cu133  O157    1.917   .     S
H134   C275    1.088   .     S
H136   C435    1.088   1_545 S
H137   C14     1.113   1_655 S
H145   N45     1.029   1_655 S
H151   C11     1.083   1_655 S
N152   H36     1.029   1_655 S
N152   N45     1.285   1_655 S
O162   C14     1.415   1_655 S
C163   O209    1.284   .     A
C163   O208    1.291   .     A
C163   C165    1.426   .     S
C164   C166    1.476   .     S
C164   C179    1.422   .     A
C164   C172    1.401   .     A
C165   C329    1.327   .     S
C165   H352    1.088   .     S
C166   O211    1.295   .     A
C166   O210    1.304   .     A
C167   C168    1.426   .     S
C168   O212    1.284   .     A
C168   O213    1.291   .     A
C169   O214    1.295   .     A
C169   O215    1.302   .     A
C169   C171    1.471   .     S
C170   C185    1.402   .     A
C170   C667    1.401   1_554 S
C170   H255    1.084   .     S
C171   C185    1.407   .     A
C171   C184    1.402   .     A
C172   C173    1.388   .     A
C172   H203    1.083   .     S
C173   C661    1.392   .     S
C173   H313    1.083   1_455 S
C174   C179    1.420   .     A
C174   C661    1.418   .     S
C174   C666    1.427   .     S
C175   H204    1.077   .     S
C175   C660    1.418   1_554 S
C175   C659    1.392   1_554 S
C176   H192    1.115   .     S
C176   C177    1.529   .     S
C176   H299    1.113   1_455 S
C176   O324    1.415   1_455 S
C177   H194    1.112   .     S
C177   H193    1.112   .     S
C177   C340    1.527   .     S
C178   H196    1.110   .     S
C178   H195    1.111   .     S
C178   H197    1.110   .     S
C179   C183    1.412   .     A
C180   C184    1.402   .     A
C180   C660    1.427   1_554 S
C180   C667    1.418   1_554 S
C181   C182    1.391   .     A
C181   C666    1.418   .     S
C181   C656    1.401   .     S
C182   H200    1.084   .     S
C182   C183    1.385   .     A
C183   H189    1.080   .     S
C184   H202    1.076   .     S
C185   O216    1.385   .     S
Cu186  O214    1.917   .     S
Cu186  Cu187   2.685   .     S
Cu186  O208    1.954   .     S
Cu186  N207    2.018   .     S
Cu186  O212    1.949   .     S
Cu186  O210    1.940   .     S
Cu187  O213    1.954   .     S
Cu187  O209    1.949   .     S
Cu187  N206    2.018   .     S
Cu187  O215    1.940   .     S
Cu187  O211    1.917   .     S
H188   C329    1.088   .     S
H191   C230    1.113   .     S
H198   N314    1.029   1_455 S
H199   N261    1.029   .     S
H201   C278    1.084   1_455 S
H205   C227    1.083   .     S
N206   H252    1.029   .     S
N206   N261    1.285   .     S
N207   N314    1.285   1_455 S
N207   H307    1.029   1_455 S
O216   C230    1.415   .     S
C217   O263    1.284   .     A
C217   O262    1.291   .     A
C217   C219    1.426   .     S
C218   C220    1.476   .     S
C218   C233    1.422   .     A
C218   C226    1.401   .     A
C219   C383    1.327   .     S
C219   H406    1.088   .     S
C220   O265    1.295   .     A
C220   O264    1.304   .     A
C221   C222    1.426   .     S
C222   O266    1.284   .     A
C222   O267    1.291   .     A
C223   O268    1.295   .     A
C223   O269    1.302   .     A
C223   C225    1.471   .     S
C224   C239    1.402   .     A
C224   C721    1.401   1_554 S
C224   H309    1.084   .     S
C225   C239    1.407   .     A
C225   C238    1.402   .     A
C226   C227    1.388   .     A
C226   H257    1.083   .     S
C227   C715    1.392   .     S
C228   C233    1.420   .     A
C228   C715    1.418   .     S
C228   C720    1.427   .     S
C229   H258    1.077   .     S
C229   C714    1.418   1_554 S
C229   C713    1.392   1_554 S
C230   H246    1.115   .     S
C230   C231    1.529   .     S
C231   H248    1.112   .     S
C231   H247    1.112   .     S
C231   C394    1.527   .     S
C232   H250    1.110   .     S
C232   H249    1.111   .     S
C232   H251    1.110   .     S
C233   C237    1.412   .     A
C234   C238    1.402   .     A
C234   C714    1.427   1_554 S
C234   C721    1.418   1_554 S
C235   C236    1.391   .     A
C235   C720    1.418   .     S
C235   C710    1.401   .     S
C236   H254    1.084   .     S
C236   C237    1.385   .     A
C237   H243    1.080   .     S
C238   H256    1.076   .     S
C239   O270    1.385   .     S
Cu240  O268    1.917   .     S
Cu240  Cu241   2.685   .     S
Cu240  O262    1.954   .     S
Cu240  N261    2.018   .     S
Cu240  O266    1.949   .     S
Cu240  O264    1.940   .     S
Cu241  O267    1.954   .     S
Cu241  O263    1.949   .     S
Cu241  N260    2.018   .     S
Cu241  O269    1.940   .     S
Cu241  O265    1.917   .     S
H242   C383    1.088   .     S
H245   C284    1.113   .     S
H253   N315    1.029   .     S
H259   C281    1.083   .     S
N260   H306    1.029   .     S
N260   N315    1.285   .     S
O270   C284    1.415   .     S
C271   O317    1.284   .     A
C271   O316    1.291   .     A
C271   C273    1.426   .     S
C272   C274    1.476   .     S
C272   C287    1.422   .     A
C272   C280    1.401   .     A
C273   C437    1.327   .     S
C273   H460    1.088   .     S
C274   O319    1.295   .     A
C274   O318    1.304   .     A
C275   C276    1.426   .     S
C276   O320    1.284   .     A
C276   O321    1.291   .     A
C277   O322    1.295   .     A
C277   O323    1.302   .     A
C277   C279    1.471   .     S
C278   C293    1.402   .     A
C278   C775    1.401   1_554 S
C278   H201    1.084   1_655 S
C279   C293    1.407   .     A
C279   C292    1.402   .     A
C280   C281    1.388   .     A
C280   H311    1.083   .     S
C281   C769    1.392   .     S
C282   C287    1.420   .     A
C282   C769    1.418   .     S
C282   C774    1.427   .     S
C283   H312    1.077   .     S
C283   C768    1.418   1_554 S
C283   C767    1.392   1_554 S
C284   H300    1.115   .     S
C284   C285    1.529   .     S
C285   H302    1.112   .     S
C285   H301    1.112   .     S
C285   C448    1.527   .     S
C286   H304    1.110   .     S
C286   H303    1.111   .     S
C286   H305    1.110   .     S
C287   C291    1.412   .     A
C288   C292    1.402   .     A
C288   C768    1.427   1_554 S
C288   C775    1.418   1_554 S
C289   C290    1.391   .     A
C289   C774    1.418   .     S
C289   C764    1.401   .     S
C290   H308    1.084   .     S
C290   C291    1.385   .     A
C291   H297    1.080   .     S
C292   H310    1.076   .     S
C293   O324    1.385   .     S
Cu294  O322    1.917   .     S
Cu294  Cu295   2.685   .     S
Cu294  O316    1.954   .     S
Cu294  N315    2.018   .     S
Cu294  O320    1.949   .     S
Cu294  O318    1.940   .     S
Cu295  O321    1.954   .     S
Cu295  O317    1.949   .     S
Cu295  N314    2.018   .     S
Cu295  O323    1.940   .     S
Cu295  O319    1.917   .     S
H296   C437    1.088   .     S
H299   C176    1.113   1_655 S
H307   N207    1.029   1_655 S
H313   C173    1.083   1_655 S
N314   H198    1.029   1_655 S
N314   N207    1.285   1_655 S
O324   C176    1.415   1_655 S
C325   O371    1.284   .     A
C325   O370    1.291   .     A
C325   C327    1.426   .     S
C326   C328    1.476   .     S
C326   C341    1.422   .     A
C326   C334    1.401   .     A
C327   C5      1.327   1_565 S
C327   H28     1.088   1_565 S
C328   O373    1.295   .     A
C328   O372    1.304   .     A
C329   C330    1.426   .     S
C330   O374    1.284   .     A
C330   O375    1.291   .     A
C331   O376    1.295   .     A
C331   O377    1.302   .     A
C331   C333    1.471   .     S
C332   C347    1.402   .     A
C332   C829    1.401   1_554 S
C332   H417    1.084   .     S
C333   C347    1.407   .     A
C333   C346    1.402   .     A
C334   C335    1.388   .     A
C334   H365    1.083   .     S
C335   C823    1.392   .     S
C335   H475    1.083   1_455 S
C336   C341    1.420   .     A
C336   C823    1.418   .     S
C336   C828    1.427   .     S
C337   H366    1.077   .     S
C337   C822    1.418   1_554 S
C337   C821    1.392   1_554 S
C338   H354    1.115   .     S
C338   C339    1.529   .     S
C338   H461    1.113   1_455 S
C338   O486    1.415   1_455 S
C339   H356    1.112   .     S
C339   H355    1.112   .     S
C339   C16     1.527   1_565 S
C340   H358    1.110   .     S
C340   H357    1.111   .     S
C340   H359    1.110   .     S
C341   C345    1.412   .     A
C342   C346    1.402   .     A
C342   C822    1.427   1_554 S
C342   C829    1.418   1_554 S
C343   C344    1.391   .     A
C343   C828    1.418   .     S
C343   C818    1.401   .     S
C344   H362    1.084   .     S
C344   C345    1.385   .     A
C345   H351    1.080   .     S
C346   H364    1.076   .     S
C347   O378    1.385   .     S
Cu348  O376    1.917   .     S
Cu348  Cu349   2.685   .     S
Cu348  O370    1.954   .     S
Cu348  N369    2.018   .     S
Cu348  O374    1.949   .     S
Cu348  O372    1.940   .     S
Cu349  O375    1.954   .     S
Cu349  O371    1.949   .     S
Cu349  N368    2.018   .     S
Cu349  O377    1.940   .     S
Cu349  O373    1.917   .     S
H350   C5      1.088   1_565 S
H353   C392    1.113   .     S
H360   N476    1.029   1_455 S
H361   N423    1.029   .     S
H363   C440    1.084   1_455 S
H367   C389    1.083   .     S
N368   H414    1.029   .     S
N368   N423    1.285   .     S
N369   N476    1.285   1_455 S
N369   H469    1.029   1_455 S
O378   C392    1.415   .     S
C379   O425    1.284   .     A
C379   O424    1.291   .     A
C379   C381    1.426   .     S
C380   C382    1.476   .     S
C380   C395    1.422   .     A
C380   C388    1.401   .     A
C381   C59     1.327   1_565 S
C381   H82     1.088   1_565 S
C382   O427    1.295   .     A
C382   O426    1.304   .     A
C383   C384    1.426   .     S
C384   O428    1.284   .     A
C384   O429    1.291   .     A
C385   O430    1.295   .     A
C385   O431    1.302   .     A
C385   C387    1.471   .     S
C386   C401    1.402   .     A
C386   C883    1.401   1_554 S
C386   H471    1.084   .     S
C387   C401    1.407   .     A
C387   C400    1.402   .     A
C388   C389    1.388   .     A
C388   H419    1.083   .     S
C389   C877    1.392   .     S
C390   C395    1.420   .     A
C390   C877    1.418   .     S
C390   C882    1.427   .     S
C391   H420    1.077   .     S
C391   C876    1.418   1_554 S
C391   C875    1.392   1_554 S
C392   H408    1.115   .     S
C392   C393    1.529   .     S
C393   H410    1.112   .     S
C393   H409    1.112   .     S
C393   C70     1.527   1_565 S
C394   H412    1.110   .     S
C394   H411    1.111   .     S
C394   H413    1.110   .     S
C395   C399    1.412   .     A
C396   C400    1.402   .     A
C396   C876    1.427   1_554 S
C396   C883    1.418   1_554 S
C397   C398    1.391   .     A
C397   C882    1.418   .     S
C397   C872    1.401   .     S
C398   H416    1.084   .     S
C398   C399    1.385   .     A
C399   H405    1.080   .     S
C400   H418    1.076   .     S
C401   O432    1.385   .     S
Cu402  O430    1.917   .     S
Cu402  Cu403   2.685   .     S
Cu402  O424    1.954   .     S
Cu402  N423    2.018   .     S
Cu402  O428    1.949   .     S
Cu402  O426    1.940   .     S
Cu403  O429    1.954   .     S
Cu403  O425    1.949   .     S
Cu403  N422    2.018   .     S
Cu403  O431    1.940   .     S
Cu403  O427    1.917   .     S
H404   C59     1.088   1_565 S
H407   C446    1.113   .     S
H415   N477    1.029   .     S
H421   C443    1.083   .     S
N422   H468    1.029   .     S
N422   N477    1.285   .     S
O432   C446    1.415   .     S
C433   O479    1.284   .     A
C433   O478    1.291   .     A
C433   C435    1.426   .     S
C434   C436    1.476   .     S
C434   C449    1.422   .     A
C434   C442    1.401   .     A
C435   C113    1.327   1_565 S
C435   H136    1.088   1_565 S
C436   O481    1.295   .     A
C436   O480    1.304   .     A
C437   C438    1.426   .     S
C438   O482    1.284   .     A
C438   O483    1.291   .     A
C439   O484    1.295   .     A
C439   O485    1.302   .     A
C439   C441    1.471   .     S
C440   C455    1.402   .     A
C440   C937    1.401   1_554 S
C440   H363    1.084   1_655 S
C441   C455    1.407   .     A
C441   C454    1.402   .     A
C442   C443    1.388   .     A
C442   H473    1.083   .     S
C443   C931    1.392   .     S
C444   C449    1.420   .     A
C444   C931    1.418   .     S
C444   C936    1.427   .     S
C445   H474    1.077   .     S
C445   C930    1.418   1_554 S
C445   C929    1.392   1_554 S
C446   H462    1.115   .     S
C446   C447    1.529   .     S
C447   H464    1.112   .     S
C447   H463    1.112   .     S
C447   C124    1.527   1_565 S
C448   H466    1.110   .     S
C448   H465    1.111   .     S
C448   H467    1.110   .     S
C449   C453    1.412   .     A
C450   C454    1.402   .     A
C450   C930    1.427   1_554 S
C450   C937    1.418   1_554 S
C451   C452    1.391   .     A
C451   C936    1.418   .     S
C451   C926    1.401   .     S
C452   H470    1.084   .     S
C452   C453    1.385   .     A
C453   H459    1.080   .     S
C454   H472    1.076   .     S
C455   O486    1.385   .     S
Cu456  O484    1.917   .     S
Cu456  Cu457   2.685   .     S
Cu456  O478    1.954   .     S
Cu456  N477    2.018   .     S
Cu456  O482    1.949   .     S
Cu456  O480    1.940   .     S
Cu457  O483    1.954   .     S
Cu457  O479    1.949   .     S
Cu457  N476    2.018   .     S
Cu457  O485    1.940   .     S
Cu457  O481    1.917   .     S
H458   C113    1.088   1_565 S
H461   C338    1.113   1_655 S
H469   N369    1.029   1_655 S
H475   C335    1.083   1_655 S
N476   H360    1.029   1_655 S
N476   N369    1.285   1_655 S
O486   C338    1.415   1_655 S
C487   O533    1.284   .     A
C487   O532    1.291   .     A
C487   C489    1.426   .     S
C488   C490    1.476   .     S
C488   C503    1.422   .     A
C488   C496    1.401   .     A
C489   C653    1.327   .     S
C489   H676    1.088   .     S
C490   O535    1.295   .     A
C490   O534    1.304   .     A
C491   C492    1.426   .     S
C491   C813    1.327   1_545 S
C491   H836    1.088   1_545 S
C492   O536    1.284   .     A
C492   O537    1.291   .     A
C493   O538    1.295   .     A
C493   O539    1.302   .     A
C493   C495    1.471   .     S
C494   C509    1.402   .     A
C494   H579    1.084   .     S
C495   C509    1.407   .     A
C495   C508    1.402   .     A
C496   C497    1.388   .     A
C496   H527    1.083   .     S
C497   C13     1.392   1_556 S
C497   H637    1.083   1_455 S
C498   C503    1.420   .     A
C498   C13     1.418   1_556 S
C498   C18     1.427   1_556 S
C499   H528    1.077   .     S
C500   H516    1.115   .     S
C500   C501    1.529   .     S
C500   H623    1.113   1_455 S
C500   O648    1.415   1_455 S
C501   H518    1.112   .     S
C501   H517    1.112   .     S
C501   C664    1.527   .     S
C502   H520    1.110   .     S
C502   H519    1.111   .     S
C502   H521    1.110   .     S
C502   C825    1.527   1_545 S
C503   C507    1.412   .     A
C504   C508    1.402   .     A
C505   C506    1.391   .     A
C505   C18     1.418   1_556 S
C505   C8      1.401   1_556 S
C506   H524    1.084   .     S
C506   C507    1.385   .     A
C507   H513    1.080   .     S
C508   H526    1.076   .     S
C509   O540    1.385   .     S
Cu510  O538    1.917   .     S
Cu510  Cu511   2.685   .     S
Cu510  O532    1.954   .     S
Cu510  N531    2.018   .     S
Cu510  O536    1.949   .     S
Cu510  O534    1.940   .     S
Cu511  O537    1.954   .     S
Cu511  O533    1.949   .     S
Cu511  N530    2.018   .     S
Cu511  O539    1.940   .     S
Cu511  O535    1.917   .     S
H512   C653    1.088   .     S
H514   C813    1.088   1_545 S
H515   C554    1.113   .     S
H522   N638    1.029   1_455 S
H523   N585    1.029   .     S
H525   C602    1.084   1_455 S
H529   C551    1.083   .     S
N530   H576    1.029   .     S
N530   N585    1.285   .     S
N531   N638    1.285   1_455 S
N531   H631    1.029   1_455 S
O540   C554    1.415   .     S
C541   O587    1.284   .     A
C541   O586    1.291   .     A
C541   C543    1.426   .     S
C542   C544    1.476   .     S
C542   C557    1.422   .     A
C542   C550    1.401   .     A
C543   C707    1.327   .     S
C543   H730    1.088   .     S
C544   O589    1.295   .     A
C544   O588    1.304   .     A
C545   C546    1.426   .     S
C545   C867    1.327   1_545 S
C545   H890    1.088   1_545 S
C546   O590    1.284   .     A
C546   O591    1.291   .     A
C547   O592    1.295   .     A
C547   O593    1.302   .     A
C547   C549    1.471   .     S
C548   C563    1.402   .     A
C548   H633    1.084   .     S
C549   C563    1.407   .     A
C549   C562    1.402   .     A
C550   C551    1.388   .     A
C550   H581    1.083   .     S
C551   C67     1.392   1_556 S
C552   C557    1.420   .     A
C552   C67     1.418   1_556 S
C552   C72     1.427   1_556 S
C553   H582    1.077   .     S
C554   H570    1.115   .     S
C554   C555    1.529   .     S
C555   H572    1.112   .     S
C555   H571    1.112   .     S
C555   C718    1.527   .     S
C556   H574    1.110   .     S
C556   H573    1.111   .     S
C556   H575    1.110   .     S
C556   C879    1.527   1_545 S
C557   C561    1.412   .     A
C558   C562    1.402   .     A
C559   C560    1.391   .     A
C559   C72     1.418   1_556 S
C559   C62     1.401   1_556 S
C560   H578    1.084   .     S
C560   C561    1.385   .     A
C561   H567    1.080   .     S
C562   H580    1.076   .     S
C563   O594    1.385   .     S
Cu564  O592    1.917   .     S
Cu564  Cu565   2.685   .     S
Cu564  O586    1.954   .     S
Cu564  N585    2.018   .     S
Cu564  O590    1.949   .     S
Cu564  O588    1.940   .     S
Cu565  O591    1.954   .     S
Cu565  O587    1.949   .     S
Cu565  N584    2.018   .     S
Cu565  O593    1.940   .     S
Cu565  O589    1.917   .     S
H566   C707    1.088   .     S
H568   C867    1.088   1_545 S
H569   C608    1.113   .     S
H577   N639    1.029   .     S
H583   C605    1.083   .     S
N584   H630    1.029   .     S
N584   N639    1.285   .     S
O594   C608    1.415   .     S
C595   O641    1.284   .     A
C595   O640    1.291   .     A
C595   C597    1.426   .     S
C596   C598    1.476   .     S
C596   C611    1.422   .     A
C596   C604    1.401   .     A
C597   C761    1.327   .     S
C597   H784    1.088   .     S
C598   O643    1.295   .     A
C598   O642    1.304   .     A
C599   C600    1.426   .     S
C599   C921    1.327   1_545 S
C599   H944    1.088   1_545 S
C600   O644    1.284   .     A
C600   O645    1.291   .     A
C601   O646    1.295   .     A
C601   O647    1.302   .     A
C601   C603    1.471   .     S
C602   C617    1.402   .     A
C602   H525    1.084   1_655 S
C603   C617    1.407   .     A
C603   C616    1.402   .     A
C604   C605    1.388   .     A
C604   H635    1.083   .     S
C605   C121    1.392   1_556 S
C606   C611    1.420   .     A
C606   C121    1.418   1_556 S
C606   C126    1.427   1_556 S
C607   H636    1.077   .     S
C608   H624    1.115   .     S
C608   C609    1.529   .     S
C609   H626    1.112   .     S
C609   H625    1.112   .     S
C609   C772    1.527   .     S
C610   H628    1.110   .     S
C610   H627    1.111   .     S
C610   H629    1.110   .     S
C610   C933    1.527   1_545 S
C611   C615    1.412   .     A
C612   C616    1.402   .     A
C613   C614    1.391   .     A
C613   C126    1.418   1_556 S
C613   C116    1.401   1_556 S
C614   H632    1.084   .     S
C614   C615    1.385   .     A
C615   H621    1.080   .     S
C616   H634    1.076   .     S
C617   O648    1.385   .     S
Cu618  O646    1.917   .     S
Cu618  Cu619   2.685   .     S
Cu618  O640    1.954   .     S
Cu618  N639    2.018   .     S
Cu618  O644    1.949   .     S
Cu618  O642    1.940   .     S
Cu619  O645    1.954   .     S
Cu619  O641    1.949   .     S
Cu619  N638    2.018   .     S
Cu619  O647    1.940   .     S
Cu619  O643    1.917   .     S
H620   C761    1.088   .     S
H622   C921    1.088   1_545 S
H623   C500    1.113   1_655 S
H631   N531    1.029   1_655 S
H637   C497    1.083   1_655 S
N638   H522    1.029   1_655 S
N638   N531    1.285   1_655 S
O648   C500    1.415   1_655 S
C649   O695    1.284   .     A
C649   O694    1.291   .     A
C649   C651    1.426   .     S
C650   C652    1.476   .     S
C650   C665    1.422   .     A
C650   C658    1.401   .     A
C651   C815    1.327   .     S
C651   H838    1.088   .     S
C652   O697    1.295   .     A
C652   O696    1.304   .     A
C653   C654    1.426   .     S
C654   O698    1.284   .     A
C654   O699    1.291   .     A
C655   O700    1.295   .     A
C655   O701    1.302   .     A
C655   C657    1.471   .     S
C656   C671    1.402   .     A
C656   H741    1.084   .     S
C657   C671    1.407   .     A
C657   C670    1.402   .     A
C658   C659    1.388   .     A
C658   H689    1.083   .     S
C659   C175    1.392   1_556 S
C659   H799    1.083   1_455 S
C660   C665    1.420   .     A
C660   C175    1.418   1_556 S
C660   C180    1.427   1_556 S
C661   H690    1.077   .     S
C662   H678    1.115   .     S
C662   C663    1.529   .     S
C662   H785    1.113   1_455 S
C662   O810    1.415   1_455 S
C663   H680    1.112   .     S
C663   H679    1.112   .     S
C663   C826    1.527   .     S
C664   H682    1.110   .     S
C664   H681    1.111   .     S
C664   H683    1.110   .     S
C665   C669    1.412   .     A
C666   C670    1.402   .     A
C667   C668    1.391   .     A
C667   C180    1.418   1_556 S
C667   C170    1.401   1_556 S
C668   H686    1.084   .     S
C668   C669    1.385   .     A
C669   H675    1.080   .     S
C670   H688    1.076   .     S
C671   O702    1.385   .     S
Cu672  O700    1.917   .     S
Cu672  Cu673   2.685   .     S
Cu672  O694    1.954   .     S
Cu672  N693    2.018   .     S
Cu672  O698    1.949   .     S
Cu672  O696    1.940   .     S
Cu673  O699    1.954   .     S
Cu673  O695    1.949   .     S
Cu673  N692    2.018   .     S
Cu673  O701    1.940   .     S
Cu673  O697    1.917   .     S
H674   C815    1.088   .     S
H677   C716    1.113   .     S
H684   N800    1.029   1_455 S
H685   N747    1.029   .     S
H687   C764    1.084   1_455 S
H691   C713    1.083   .     S
N692   H738    1.029   .     S
N692   N747    1.285   .     S
N693   N800    1.285   1_455 S
N693   H793    1.029   1_455 S
O702   C716    1.415   .     S
C703   O749    1.284   .     A
C703   O748    1.291   .     A
C703   C705    1.426   .     S
C704   C706    1.476   .     S
C704   C719    1.422   .     A
C704   C712    1.401   .     A
C705   C869    1.327   .     S
C705   H892    1.088   .     S
C706   O751    1.295   .     A
C706   O750    1.304   .     A
C707   C708    1.426   .     S
C708   O752    1.284   .     A
C708   O753    1.291   .     A
C709   O754    1.295   .     A
C709   O755    1.302   .     A
C709   C711    1.471   .     S
C710   C725    1.402   .     A
C710   H795    1.084   .     S
C711   C725    1.407   .     A
C711   C724    1.402   .     A
C712   C713    1.388   .     A
C712   H743    1.083   .     S
C713   C229    1.392   1_556 S
C714   C719    1.420   .     A
C714   C229    1.418   1_556 S
C714   C234    1.427   1_556 S
C715   H744    1.077   .     S
C716   H732    1.115   .     S
C716   C717    1.529   .     S
C717   H734    1.112   .     S
C717   H733    1.112   .     S
C717   C880    1.527   .     S
C718   H736    1.110   .     S
C718   H735    1.111   .     S
C718   H737    1.110   .     S
C719   C723    1.412   .     A
C720   C724    1.402   .     A
C721   C722    1.391   .     A
C721   C234    1.418   1_556 S
C721   C224    1.401   1_556 S
C722   H740    1.084   .     S
C722   C723    1.385   .     A
C723   H729    1.080   .     S
C724   H742    1.076   .     S
C725   O756    1.385   .     S
Cu726  O754    1.917   .     S
Cu726  Cu727   2.685   .     S
Cu726  O748    1.954   .     S
Cu726  N747    2.018   .     S
Cu726  O752    1.949   .     S
Cu726  O750    1.940   .     S
Cu727  O753    1.954   .     S
Cu727  O749    1.949   .     S
Cu727  N746    2.018   .     S
Cu727  O755    1.940   .     S
Cu727  O751    1.917   .     S
H728   C869    1.088   .     S
H731   C770    1.113   .     S
H739   N801    1.029   .     S
H745   C767    1.083   .     S
N746   H792    1.029   .     S
N746   N801    1.285   .     S
O756   C770    1.415   .     S
C757   O803    1.284   .     A
C757   O802    1.291   .     A
C757   C759    1.426   .     S
C758   C760    1.476   .     S
C758   C773    1.422   .     A
C758   C766    1.401   .     A
C759   C923    1.327   .     S
C759   H946    1.088   .     S
C760   O805    1.295   .     A
C760   O804    1.304   .     A
C761   C762    1.426   .     S
C762   O806    1.284   .     A
C762   O807    1.291   .     A
C763   O808    1.295   .     A
C763   O809    1.302   .     A
C763   C765    1.471   .     S
C764   C779    1.402   .     A
C764   H687    1.084   1_655 S
C765   C779    1.407   .     A
C765   C778    1.402   .     A
C766   C767    1.388   .     A
C766   H797    1.083   .     S
C767   C283    1.392   1_556 S
C768   C773    1.420   .     A
C768   C283    1.418   1_556 S
C768   C288    1.427   1_556 S
C769   H798    1.077   .     S
C770   H786    1.115   .     S
C770   C771    1.529   .     S
C771   H788    1.112   .     S
C771   H787    1.112   .     S
C771   C934    1.527   .     S
C772   H790    1.110   .     S
C772   H789    1.111   .     S
C772   H791    1.110   .     S
C773   C777    1.412   .     A
C774   C778    1.402   .     A
C775   C776    1.391   .     A
C775   C288    1.418   1_556 S
C775   C278    1.401   1_556 S
C776   H794    1.084   .     S
C776   C777    1.385   .     A
C777   H783    1.080   .     S
C778   H796    1.076   .     S
C779   O810    1.385   .     S
Cu780  O808    1.917   .     S
Cu780  Cu781   2.685   .     S
Cu780  O802    1.954   .     S
Cu780  N801    2.018   .     S
Cu780  O806    1.949   .     S
Cu780  O804    1.940   .     S
Cu781  O807    1.954   .     S
Cu781  O803    1.949   .     S
Cu781  N800    2.018   .     S
Cu781  O809    1.940   .     S
Cu781  O805    1.917   .     S
H782   C923    1.088   .     S
H785   C662    1.113   1_655 S
H793   N693    1.029   1_655 S
H799   C659    1.083   1_655 S
N800   H684    1.029   1_655 S
N800   N693    1.285   1_655 S
O810   C662    1.415   1_655 S
C811   O857    1.284   .     A
C811   O856    1.291   .     A
C811   C813    1.426   .     S
C812   C814    1.476   .     S
C812   C827    1.422   .     A
C812   C820    1.401   .     A
C813   C491    1.327   1_565 S
C813   H514    1.088   1_565 S
C814   O859    1.295   .     A
C814   O858    1.304   .     A
C815   C816    1.426   .     S
C816   O860    1.284   .     A
C816   O861    1.291   .     A
C817   O862    1.295   .     A
C817   O863    1.302   .     A
C817   C819    1.471   .     S
C818   C833    1.402   .     A
C818   H903    1.084   .     S
C819   C833    1.407   .     A
C819   C832    1.402   .     A
C820   C821    1.388   .     A
C820   H851    1.083   .     S
C821   C337    1.392   1_556 S
C821   H961    1.083   1_455 S
C822   C827    1.420   .     A
C822   C337    1.418   1_556 S
C822   C342    1.427   1_556 S
C823   H852    1.077   .     S
C824   H840    1.115   .     S
C824   C825    1.529   .     S
C824   H947    1.113   1_455 S
C824   O972    1.415   1_455 S
C825   H842    1.112   .     S
C825   H841    1.112   .     S
C825   C502    1.527   1_565 S
C826   H844    1.110   .     S
C826   H843    1.111   .     S
C826   H845    1.110   .     S
C827   C831    1.412   .     A
C828   C832    1.402   .     A
C829   C830    1.391   .     A
C829   C342    1.418   1_556 S
C829   C332    1.401   1_556 S
C830   H848    1.084   .     S
C830   C831    1.385   .     A
C831   H837    1.080   .     S
C832   H850    1.076   .     S
C833   O864    1.385   .     S
Cu834  O862    1.917   .     S
Cu834  Cu835   2.685   .     S
Cu834  O856    1.954   .     S
Cu834  N855    2.018   .     S
Cu834  O860    1.949   .     S
Cu834  O858    1.940   .     S
Cu835  O861    1.954   .     S
Cu835  O857    1.949   .     S
Cu835  N854    2.018   .     S
Cu835  O863    1.940   .     S
Cu835  O859    1.917   .     S
H836   C491    1.088   1_565 S
H839   C878    1.113   .     S
H846   N962    1.029   1_455 S
H847   N909    1.029   .     S
H849   C926    1.084   1_455 S
H853   C875    1.083   .     S
N854   H900    1.029   .     S
N854   N909    1.285   .     S
N855   N962    1.285   1_455 S
N855   H955    1.029   1_455 S
O864   C878    1.415   .     S
C865   O911    1.284   .     A
C865   O910    1.291   .     A
C865   C867    1.426   .     S
C866   C868    1.476   .     S
C866   C881    1.422   .     A
C866   C874    1.401   .     A
C867   C545    1.327   1_565 S
C867   H568    1.088   1_565 S
C868   O913    1.295   .     A
C868   O912    1.304   .     A
C869   C870    1.426   .     S
C870   O914    1.284   .     A
C870   O915    1.291   .     A
C871   O916    1.295   .     A
C871   O917    1.302   .     A
C871   C873    1.471   .     S
C872   C887    1.402   .     A
C872   H957    1.084   .     S
C873   C887    1.407   .     A
C873   C886    1.402   .     A
C874   C875    1.388   .     A
C874   H905    1.083   .     S
C875   C391    1.392   1_556 S
C876   C881    1.420   .     A
C876   C391    1.418   1_556 S
C876   C396    1.427   1_556 S
C877   H906    1.077   .     S
C878   H894    1.115   .     S
C878   C879    1.529   .     S
C879   H896    1.112   .     S
C879   H895    1.112   .     S
C879   C556    1.527   1_565 S
C880   H898    1.110   .     S
C880   H897    1.111   .     S
C880   H899    1.110   .     S
C881   C885    1.412   .     A
C882   C886    1.402   .     A
C883   C884    1.391   .     A
C883   C396    1.418   1_556 S
C883   C386    1.401   1_556 S
C884   H902    1.084   .     S
C884   C885    1.385   .     A
C885   H891    1.080   .     S
C886   H904    1.076   .     S
C887   O918    1.385   .     S
Cu888  O916    1.917   .     S
Cu888  Cu889   2.685   .     S
Cu888  O910    1.954   .     S
Cu888  N909    2.018   .     S
Cu888  O914    1.949   .     S
Cu888  O912    1.940   .     S
Cu889  O915    1.954   .     S
Cu889  O911    1.949   .     S
Cu889  N908    2.018   .     S
Cu889  O917    1.940   .     S
Cu889  O913    1.917   .     S
H890   C545    1.088   1_565 S
H893   C932    1.113   .     S
H901   N963    1.029   .     S
H907   C929    1.083   .     S
N908   H954    1.029   .     S
N908   N963    1.285   .     S
O918   C932    1.415   .     S
C919   O965    1.284   .     A
C919   O964    1.291   .     A
C919   C921    1.426   .     S
C920   C922    1.476   .     S
C920   C935    1.422   .     A
C920   C928    1.401   .     A
C921   C599    1.327   1_565 S
C921   H622    1.088   1_565 S
C922   O967    1.295   .     A
C922   O966    1.304   .     A
C923   C924    1.426   .     S
C924   O968    1.284   .     A
C924   O969    1.291   .     A
C925   O970    1.295   .     A
C925   O971    1.302   .     A
C925   C927    1.471   .     S
C926   C941    1.402   .     A
C926   H849    1.084   1_655 S
C927   C941    1.407   .     A
C927   C940    1.402   .     A
C928   C929    1.388   .     A
C928   H959    1.083   .     S
C929   C445    1.392   1_556 S
C930   C935    1.420   .     A
C930   C445    1.418   1_556 S
C930   C450    1.427   1_556 S
C931   H960    1.077   .     S
C932   H948    1.115   .     S
C932   C933    1.529   .     S
C933   H950    1.112   .     S
C933   H949    1.112   .     S
C933   C610    1.527   1_565 S
C934   H952    1.110   .     S
C934   H951    1.111   .     S
C934   H953    1.110   .     S
C935   C939    1.412   .     A
C936   C940    1.402   .     A
C937   C938    1.391   .     A
C937   C450    1.418   1_556 S
C937   C440    1.401   1_556 S
C938   H956    1.084   .     S
C938   C939    1.385   .     A
C939   H945    1.080   .     S
C940   H958    1.076   .     S
C941   O972    1.385   .     S
Cu942  O970    1.917   .     S
Cu942  Cu943   2.685   .     S
Cu942  O964    1.954   .     S
Cu942  N963    2.018   .     S
Cu942  O968    1.949   .     S
Cu942  O966    1.940   .     S
Cu943  O969    1.954   .     S
Cu943  O965    1.949   .     S
Cu943  N962    2.018   .     S
Cu943  O971    1.940   .     S
Cu943  O967    1.917   .     S
H944   C599    1.088   1_565 S
H947   C824    1.113   1_655 S
H955   N855    1.029   1_655 S
H961   C821    1.083   1_655 S
N962   H846    1.029   1_655 S
N962   N855    1.285   1_655 S
O972   C824    1.415   1_655 S
