data_str_m3_o1_o16_pcu_sym.13
_audit_creation_date              2020-01-03
_audit_creation_method            'Materials Studio'
_symmetry_space_group_name_H-M    'P1'
_symmetry_Int_Tables_number       1
_symmetry_cell_setting            triclinic
loop_
_symmetry_equiv_pos_as_xyz
  x,y,z
_cell_length_a                    29.5293
_cell_length_b                    32.1369
_cell_length_c                    26.2126
_cell_angle_alpha                 90.0040
_cell_angle_beta                  70.5910
_cell_angle_gamma                 90.0421
loop_
_atom_site_label
_atom_site_type_symbol
_atom_site_fract_x
_atom_site_fract_y
_atom_site_fract_z
_atom_site_U_iso_or_equiv
_atom_site_adp_type
_atom_site_occupancy
C1     C     0.16668   0.24671   0.25005   0.00000  Uiso   1.00
C2     C     0.12330   0.15714   0.41036   0.00000  Uiso   1.00
C3     C     0.20269   0.31207   0.26306   0.00000  Uiso   1.00
C4     C     0.14028   0.16382   0.35195   0.00000  Uiso   1.00
C5     C     0.20266   0.02137   0.26308   0.00000  Uiso   1.00
C6     C     0.16661   0.04249   0.25009   0.00000  Uiso   1.00
C7     C     0.13057   0.02129   0.23715   0.00000  Uiso   1.00
C8     C     0.13058   0.31199   0.23717   0.00000  Uiso   1.00
C9     C     0.16666   0.29086   0.25009   0.00000  Uiso   1.00
C10    C     0.31396   0.13214   0.23442   0.00000  Uiso   1.00
C11    C     0.02847   0.13211   0.23469   0.00000  Uiso   1.00
C12    C     0.14191   0.14715   0.49276   0.00000  Uiso   1.00
C13    C     0.01926   0.20109   0.26597   0.00000  Uiso   1.00
C14    C     0.30465   0.20105   0.26606   0.00000  Uiso   1.00
C15    C     0.16664   0.08663   0.25001   0.00000  Uiso   1.00
C16    C     0.19309   0.16594   0.14780   0.00000  Uiso   1.00
C17    C     0.25995   0.12317   0.00986   0.00000  Uiso   1.00
C18    C     0.20828   0.15781   0.08994   0.00000  Uiso   1.00
C19    C     0.07664   0.16967   0.44084   0.00000  Uiso   1.00
C20    C     0.06106   0.16708   0.49684   0.00000  Uiso   1.00
C21    C     0.09293   0.15529   0.02335   0.00000  Uiso   1.00
C22    C     0.06547   0.10544   0.08693   0.00000  Uiso   1.00
C23    C     0.15438   0.14127   0.43667   0.00000  Uiso   1.00
C24    C     0.17898   0.14471   0.01556   0.00000  Uiso   1.00
C25    C     0.22373   0.12640   0.48629   0.00000  Uiso   1.00
C26    C     0.23153   0.11211   0.43387   0.00000  Uiso   1.00
C27    C     0.19753   0.11996   0.40893   0.00000  Uiso   1.00
C28    C     0.17381   0.16315   0.06504   0.00000  Uiso   1.00
C29    C     0.25183   0.13810   0.06220   0.00000  Uiso   1.00
H30    H     0.27874   0.13325   0.08136   0.00000  Uiso   1.00
H31    H     0.29400   0.10856   0.48826   0.00000  Uiso   1.00
H32    H     0.14255   0.18182   0.08519   0.00000  Uiso   1.00
H33    H     0.05198   0.18110   0.42135   0.00000  Uiso   1.00
H34    H     0.02412   0.17437   0.01989   0.00000  Uiso   1.00
H35    H     0.20517   0.10853   0.36815   0.00000  Uiso   1.00
H36    H     0.23053   0.29583   0.27354   0.00000  Uiso   1.00
H37    H     0.09943   0.08723   0.07363   0.00000  Uiso   1.00
H38    H     0.04043   0.09401   0.06624   0.00000  Uiso   1.00
H39    H     0.04796   0.09974   0.13067   0.00000  Uiso   1.00
H40    H     0.23047   0.03768   0.27360   0.00000  Uiso   1.00
H41    H     0.10275   0.03752   0.22663   0.00000  Uiso   1.00
H42    H     0.10275   0.29570   0.22670   0.00000  Uiso   1.00
H43    H     0.29967   0.10453   0.22171   0.00000  Uiso   1.00
H44    H     0.05014   0.10442   0.22248   0.00000  Uiso   1.00
H45    H     0.03351   0.22864   0.27887   0.00000  Uiso   1.00
H46    H     0.28279   0.22855   0.27907   0.00000  Uiso   1.00
H47    H     0.26473   0.09660   0.41133   0.00000  Uiso   1.00
N48    N     0.04760   0.16668   0.25001   0.00000  Uiso   1.00
N49    N     0.28573   0.16665   0.25000   0.00000  Uiso   1.00
O50    O     0.12846   0.22775   0.25000   0.00000  Uiso   1.00
O51    O     0.20490   0.22774   0.25000   0.00000  Uiso   1.00
O52    O     0.10947   0.16666   0.32681   0.00000  Uiso   1.00
O53    O     0.18591   0.16665   0.32681   0.00000  Uiso   1.00
O54    O     0.12843   0.10559   0.24999   0.00000  Uiso   1.00
O55    O     0.20488   0.10558   0.24999   0.00000  Uiso   1.00
O56    O     0.14742   0.16668   0.17319   0.00000  Uiso   1.00
O57    O     0.22387   0.16667   0.17319   0.00000  Uiso   1.00
O58    O     0.07454   0.14845   0.07847   0.00000  Uiso   1.00
Zn59   Zn    0.11562   0.16667   0.25000   0.00000  Uiso   1.00
Zn60   Zn    0.21771   0.16666   0.25000   0.00000  Uiso   1.00
C61    C     0.50001   0.24671   0.25005   0.00000  Uiso   1.00
C62    C     0.45663   0.15714   0.41036   0.00000  Uiso   1.00
C63    C     0.53602   0.31207   0.26306   0.00000  Uiso   1.00
C64    C     0.47361   0.16382   0.35195   0.00000  Uiso   1.00
C65    C     0.53599   0.02137   0.26308   0.00000  Uiso   1.00
C66    C     0.49995   0.04249   0.25009   0.00000  Uiso   1.00
C67    C     0.46391   0.02129   0.23715   0.00000  Uiso   1.00
C68    C     0.46392   0.31199   0.23717   0.00000  Uiso   1.00
C69    C     0.50000   0.29086   0.25009   0.00000  Uiso   1.00
C70    C     0.64729   0.13214   0.23442   0.00000  Uiso   1.00
C71    C     0.36180   0.13211   0.23469   0.00000  Uiso   1.00
C72    C     0.47524   0.14715   0.49276   0.00000  Uiso   1.00
C73    C     0.35260   0.20109   0.26597   0.00000  Uiso   1.00
C74    C     0.63799   0.20105   0.26606   0.00000  Uiso   1.00
C75    C     0.49997   0.08663   0.25001   0.00000  Uiso   1.00
C76    C     0.52642   0.16594   0.14780   0.00000  Uiso   1.00
C77    C     0.59328   0.12317   0.00986   0.00000  Uiso   1.00
C78    C     0.54162   0.15781   0.08994   0.00000  Uiso   1.00
C79    C     0.40997   0.16967   0.44084   0.00000  Uiso   1.00
C80    C     0.39440   0.16708   0.49684   0.00000  Uiso   1.00
C81    C     0.42627   0.15529   0.02335   0.00000  Uiso   1.00
C82    C     0.39880   0.10544   0.08693   0.00000  Uiso   1.00
C83    C     0.48771   0.14127   0.43667   0.00000  Uiso   1.00
C84    C     0.51231   0.14471   0.01556   0.00000  Uiso   1.00
C85    C     0.55706   0.12640   0.48629   0.00000  Uiso   1.00
C86    C     0.56486   0.11211   0.43387   0.00000  Uiso   1.00
C87    C     0.53086   0.11996   0.40893   0.00000  Uiso   1.00
C88    C     0.50714   0.16315   0.06504   0.00000  Uiso   1.00
C89    C     0.58517   0.13810   0.06220   0.00000  Uiso   1.00
H90    H     0.61207   0.13325   0.08136   0.00000  Uiso   1.00
H91    H     0.62733   0.10856   0.48826   0.00000  Uiso   1.00
H92    H     0.47588   0.18182   0.08519   0.00000  Uiso   1.00
H93    H     0.38532   0.18110   0.42135   0.00000  Uiso   1.00
H94    H     0.35745   0.17437   0.01989   0.00000  Uiso   1.00
H95    H     0.53851   0.10853   0.36815   0.00000  Uiso   1.00
H96    H     0.56386   0.29583   0.27354   0.00000  Uiso   1.00
H97    H     0.43277   0.08723   0.07363   0.00000  Uiso   1.00
H98    H     0.37376   0.09401   0.06624   0.00000  Uiso   1.00
H99    H     0.38129   0.09974   0.13067   0.00000  Uiso   1.00
H100   H     0.56380   0.03768   0.27360   0.00000  Uiso   1.00
H101   H     0.43609   0.03752   0.22663   0.00000  Uiso   1.00
H102   H     0.43608   0.29570   0.22670   0.00000  Uiso   1.00
H103   H     0.63301   0.10453   0.22171   0.00000  Uiso   1.00
H104   H     0.38347   0.10442   0.22248   0.00000  Uiso   1.00
H105   H     0.36684   0.22864   0.27887   0.00000  Uiso   1.00
H106   H     0.61613   0.22855   0.27907   0.00000  Uiso   1.00
H107   H     0.59807   0.09660   0.41133   0.00000  Uiso   1.00
N108   N     0.38093   0.16668   0.25001   0.00000  Uiso   1.00
N109   N     0.61906   0.16665   0.25000   0.00000  Uiso   1.00
O110   O     0.46179   0.22775   0.25000   0.00000  Uiso   1.00
O111   O     0.53823   0.22774   0.25000   0.00000  Uiso   1.00
O112   O     0.44280   0.16666   0.32681   0.00000  Uiso   1.00
O113   O     0.51924   0.16665   0.32681   0.00000  Uiso   1.00
O114   O     0.46177   0.10559   0.24999   0.00000  Uiso   1.00
O115   O     0.53821   0.10558   0.24999   0.00000  Uiso   1.00
O116   O     0.48076   0.16668   0.17319   0.00000  Uiso   1.00
O117   O     0.55720   0.16667   0.17319   0.00000  Uiso   1.00
O118   O     0.40788   0.14845   0.07847   0.00000  Uiso   1.00
Zn119  Zn    0.44896   0.16667   0.25000   0.00000  Uiso   1.00
Zn120  Zn    0.55104   0.16666   0.25000   0.00000  Uiso   1.00
C121   C     0.83334   0.24671   0.25005   0.00000  Uiso   1.00
C122   C     0.78997   0.15714   0.41036   0.00000  Uiso   1.00
C123   C     0.86936   0.31207   0.26306   0.00000  Uiso   1.00
C124   C     0.80695   0.16382   0.35195   0.00000  Uiso   1.00
C125   C     0.86932   0.02137   0.26308   0.00000  Uiso   1.00
C126   C     0.83328   0.04249   0.25009   0.00000  Uiso   1.00
C127   C     0.79724   0.02129   0.23715   0.00000  Uiso   1.00
C128   C     0.79725   0.31199   0.23717   0.00000  Uiso   1.00
C129   C     0.83333   0.29086   0.25009   0.00000  Uiso   1.00
C130   C     0.98062   0.13214   0.23442   0.00000  Uiso   1.00
C131   C     0.69513   0.13211   0.23469   0.00000  Uiso   1.00
C132   C     0.80858   0.14715   0.49276   0.00000  Uiso   1.00
C133   C     0.68593   0.20109   0.26597   0.00000  Uiso   1.00
C134   C     0.97132   0.20105   0.26606   0.00000  Uiso   1.00
C135   C     0.83331   0.08663   0.25001   0.00000  Uiso   1.00
C136   C     0.85976   0.16594   0.14780   0.00000  Uiso   1.00
C137   C     0.92661   0.12317   0.00986   0.00000  Uiso   1.00
C138   C     0.87495   0.15781   0.08994   0.00000  Uiso   1.00
C139   C     0.74330   0.16967   0.44084   0.00000  Uiso   1.00
C140   C     0.72773   0.16708   0.49684   0.00000  Uiso   1.00
C141   C     0.75960   0.15529   0.02335   0.00000  Uiso   1.00
C142   C     0.73213   0.10544   0.08693   0.00000  Uiso   1.00
C143   C     0.82104   0.14127   0.43667   0.00000  Uiso   1.00
C144   C     0.84564   0.14471   0.01556   0.00000  Uiso   1.00
C145   C     0.89039   0.12640   0.48629   0.00000  Uiso   1.00
C146   C     0.89820   0.11211   0.43387   0.00000  Uiso   1.00
C147   C     0.86419   0.11996   0.40893   0.00000  Uiso   1.00
C148   C     0.84047   0.16315   0.06504   0.00000  Uiso   1.00
C149   C     0.91850   0.13810   0.06220   0.00000  Uiso   1.00
H150   H     0.94541   0.13325   0.08136   0.00000  Uiso   1.00
H151   H     0.96066   0.10856   0.48826   0.00000  Uiso   1.00
H152   H     0.80921   0.18182   0.08519   0.00000  Uiso   1.00
H153   H     0.71865   0.18110   0.42135   0.00000  Uiso   1.00
H154   H     0.69079   0.17437   0.01989   0.00000  Uiso   1.00
H155   H     0.87184   0.10853   0.36815   0.00000  Uiso   1.00
H156   H     0.89719   0.29583   0.27354   0.00000  Uiso   1.00
H157   H     0.76610   0.08723   0.07363   0.00000  Uiso   1.00
H158   H     0.70709   0.09401   0.06624   0.00000  Uiso   1.00
H159   H     0.71463   0.09974   0.13067   0.00000  Uiso   1.00
H160   H     0.89713   0.03768   0.27360   0.00000  Uiso   1.00
H161   H     0.76942   0.03752   0.22663   0.00000  Uiso   1.00
H162   H     0.76941   0.29570   0.22670   0.00000  Uiso   1.00
H163   H     0.96634   0.10453   0.22171   0.00000  Uiso   1.00
H164   H     0.71680   0.10442   0.22248   0.00000  Uiso   1.00
H165   H     0.70017   0.22864   0.27887   0.00000  Uiso   1.00
H166   H     0.94946   0.22855   0.27907   0.00000  Uiso   1.00
H167   H     0.93140   0.09660   0.41133   0.00000  Uiso   1.00
N168   N     0.71426   0.16668   0.25001   0.00000  Uiso   1.00
N169   N     0.95239   0.16665   0.25000   0.00000  Uiso   1.00
O170   O     0.79512   0.22775   0.25000   0.00000  Uiso   1.00
O171   O     0.87157   0.22774   0.25000   0.00000  Uiso   1.00
O172   O     0.77613   0.16666   0.32681   0.00000  Uiso   1.00
O173   O     0.85258   0.16665   0.32681   0.00000  Uiso   1.00
O174   O     0.79510   0.10559   0.24999   0.00000  Uiso   1.00
O175   O     0.87154   0.10558   0.24999   0.00000  Uiso   1.00
O176   O     0.81409   0.16668   0.17319   0.00000  Uiso   1.00
O177   O     0.89053   0.16667   0.17319   0.00000  Uiso   1.00
O178   O     0.74121   0.14845   0.07847   0.00000  Uiso   1.00
Zn179  Zn    0.78229   0.16667   0.25000   0.00000  Uiso   1.00
Zn180  Zn    0.88438   0.16666   0.25000   0.00000  Uiso   1.00
C181   C     0.16668   0.58004   0.25005   0.00000  Uiso   1.00
C182   C     0.12330   0.49047   0.41036   0.00000  Uiso   1.00
C183   C     0.20269   0.64540   0.26306   0.00000  Uiso   1.00
C184   C     0.14028   0.49716   0.35195   0.00000  Uiso   1.00
C185   C     0.20266   0.35470   0.26308   0.00000  Uiso   1.00
C186   C     0.16661   0.37583   0.25009   0.00000  Uiso   1.00
C187   C     0.13057   0.35462   0.23715   0.00000  Uiso   1.00
C188   C     0.13058   0.64532   0.23717   0.00000  Uiso   1.00
C189   C     0.16666   0.62419   0.25009   0.00000  Uiso   1.00
C190   C     0.31396   0.46548   0.23442   0.00000  Uiso   1.00
C191   C     0.02847   0.46544   0.23469   0.00000  Uiso   1.00
C192   C     0.14191   0.48048   0.49276   0.00000  Uiso   1.00
C193   C     0.01926   0.53442   0.26597   0.00000  Uiso   1.00
C194   C     0.30465   0.53438   0.26606   0.00000  Uiso   1.00
C195   C     0.16664   0.41996   0.25001   0.00000  Uiso   1.00
C196   C     0.19309   0.49928   0.14780   0.00000  Uiso   1.00
C197   C     0.25995   0.45650   0.00986   0.00000  Uiso   1.00
C198   C     0.20828   0.49114   0.08994   0.00000  Uiso   1.00
C199   C     0.07664   0.50300   0.44084   0.00000  Uiso   1.00
C200   C     0.06106   0.50042   0.49684   0.00000  Uiso   1.00
C201   C     0.09293   0.48862   0.02335   0.00000  Uiso   1.00
C202   C     0.06547   0.43877   0.08693   0.00000  Uiso   1.00
C203   C     0.15438   0.47460   0.43667   0.00000  Uiso   1.00
C204   C     0.17898   0.47804   0.01556   0.00000  Uiso   1.00
C205   C     0.22373   0.45973   0.48629   0.00000  Uiso   1.00
C206   C     0.23153   0.44545   0.43387   0.00000  Uiso   1.00
C207   C     0.19753   0.45329   0.40893   0.00000  Uiso   1.00
C208   C     0.17381   0.49648   0.06504   0.00000  Uiso   1.00
C209   C     0.25183   0.47143   0.06220   0.00000  Uiso   1.00
H210   H     0.27874   0.46659   0.08136   0.00000  Uiso   1.00
H211   H     0.29400   0.44189   0.48826   0.00000  Uiso   1.00
H212   H     0.14255   0.51515   0.08519   0.00000  Uiso   1.00
H213   H     0.05198   0.51443   0.42135   0.00000  Uiso   1.00
H214   H     0.02412   0.50770   0.01989   0.00000  Uiso   1.00
H215   H     0.20517   0.44187   0.36815   0.00000  Uiso   1.00
H216   H     0.23053   0.62917   0.27354   0.00000  Uiso   1.00
H217   H     0.09943   0.42057   0.07363   0.00000  Uiso   1.00
H218   H     0.04043   0.42734   0.06624   0.00000  Uiso   1.00
H219   H     0.04796   0.43308   0.13067   0.00000  Uiso   1.00
H220   H     0.23047   0.37101   0.27360   0.00000  Uiso   1.00
H221   H     0.10275   0.37085   0.22663   0.00000  Uiso   1.00
H222   H     0.10275   0.62903   0.22670   0.00000  Uiso   1.00
H223   H     0.29967   0.43787   0.22171   0.00000  Uiso   1.00
H224   H     0.05014   0.43776   0.22248   0.00000  Uiso   1.00
H225   H     0.03351   0.56197   0.27887   0.00000  Uiso   1.00
H226   H     0.28279   0.56189   0.27907   0.00000  Uiso   1.00
H227   H     0.26473   0.42994   0.41133   0.00000  Uiso   1.00
N228   N     0.04760   0.50001   0.25001   0.00000  Uiso   1.00
N229   N     0.28573   0.49998   0.25000   0.00000  Uiso   1.00
O230   O     0.12846   0.56108   0.25000   0.00000  Uiso   1.00
O231   O     0.20490   0.56107   0.25000   0.00000  Uiso   1.00
O232   O     0.10947   0.50000   0.32681   0.00000  Uiso   1.00
O233   O     0.18591   0.49999   0.32681   0.00000  Uiso   1.00
O234   O     0.12843   0.43893   0.24999   0.00000  Uiso   1.00
O235   O     0.20488   0.43892   0.24999   0.00000  Uiso   1.00
O236   O     0.14742   0.50001   0.17319   0.00000  Uiso   1.00
O237   O     0.22387   0.50000   0.17319   0.00000  Uiso   1.00
O238   O     0.07454   0.48178   0.07847   0.00000  Uiso   1.00
Zn239  Zn    0.11562   0.50001   0.25000   0.00000  Uiso   1.00
Zn240  Zn    0.21771   0.49999   0.25000   0.00000  Uiso   1.00
C241   C     0.50001   0.58004   0.25005   0.00000  Uiso   1.00
C242   C     0.45663   0.49047   0.41036   0.00000  Uiso   1.00
C243   C     0.53602   0.64540   0.26306   0.00000  Uiso   1.00
C244   C     0.47361   0.49716   0.35195   0.00000  Uiso   1.00
C245   C     0.53599   0.35470   0.26308   0.00000  Uiso   1.00
C246   C     0.49995   0.37583   0.25009   0.00000  Uiso   1.00
C247   C     0.46391   0.35462   0.23715   0.00000  Uiso   1.00
C248   C     0.46392   0.64532   0.23717   0.00000  Uiso   1.00
C249   C     0.50000   0.62419   0.25009   0.00000  Uiso   1.00
C250   C     0.64729   0.46548   0.23442   0.00000  Uiso   1.00
C251   C     0.36180   0.46544   0.23469   0.00000  Uiso   1.00
C252   C     0.47524   0.48048   0.49276   0.00000  Uiso   1.00
C253   C     0.35260   0.53442   0.26597   0.00000  Uiso   1.00
C254   C     0.63799   0.53438   0.26606   0.00000  Uiso   1.00
C255   C     0.49997   0.41996   0.25001   0.00000  Uiso   1.00
C256   C     0.52642   0.49928   0.14780   0.00000  Uiso   1.00
C257   C     0.59328   0.45650   0.00986   0.00000  Uiso   1.00
C258   C     0.54162   0.49114   0.08994   0.00000  Uiso   1.00
C259   C     0.40997   0.50300   0.44084   0.00000  Uiso   1.00
C260   C     0.39440   0.50042   0.49684   0.00000  Uiso   1.00
C261   C     0.42627   0.48862   0.02335   0.00000  Uiso   1.00
C262   C     0.39880   0.43877   0.08693   0.00000  Uiso   1.00
C263   C     0.48771   0.47460   0.43667   0.00000  Uiso   1.00
C264   C     0.51231   0.47804   0.01556   0.00000  Uiso   1.00
C265   C     0.55706   0.45973   0.48629   0.00000  Uiso   1.00
C266   C     0.56486   0.44545   0.43387   0.00000  Uiso   1.00
C267   C     0.53086   0.45329   0.40893   0.00000  Uiso   1.00
C268   C     0.50714   0.49648   0.06504   0.00000  Uiso   1.00
C269   C     0.58517   0.47143   0.06220   0.00000  Uiso   1.00
H270   H     0.61207   0.46659   0.08136   0.00000  Uiso   1.00
H271   H     0.62733   0.44189   0.48826   0.00000  Uiso   1.00
H272   H     0.47588   0.51515   0.08519   0.00000  Uiso   1.00
H273   H     0.38532   0.51443   0.42135   0.00000  Uiso   1.00
H274   H     0.35745   0.50770   0.01989   0.00000  Uiso   1.00
H275   H     0.53851   0.44187   0.36815   0.00000  Uiso   1.00
H276   H     0.56386   0.62917   0.27354   0.00000  Uiso   1.00
H277   H     0.43277   0.42057   0.07363   0.00000  Uiso   1.00
H278   H     0.37376   0.42734   0.06624   0.00000  Uiso   1.00
H279   H     0.38129   0.43308   0.13067   0.00000  Uiso   1.00
H280   H     0.56380   0.37101   0.27360   0.00000  Uiso   1.00
H281   H     0.43609   0.37085   0.22663   0.00000  Uiso   1.00
H282   H     0.43608   0.62903   0.22670   0.00000  Uiso   1.00
H283   H     0.63301   0.43787   0.22171   0.00000  Uiso   1.00
H284   H     0.38347   0.43776   0.22248   0.00000  Uiso   1.00
H285   H     0.36684   0.56197   0.27887   0.00000  Uiso   1.00
H286   H     0.61613   0.56189   0.27907   0.00000  Uiso   1.00
H287   H     0.59807   0.42994   0.41133   0.00000  Uiso   1.00
N288   N     0.38093   0.50001   0.25001   0.00000  Uiso   1.00
N289   N     0.61906   0.49998   0.25000   0.00000  Uiso   1.00
O290   O     0.46179   0.56108   0.25000   0.00000  Uiso   1.00
O291   O     0.53823   0.56107   0.25000   0.00000  Uiso   1.00
O292   O     0.44280   0.50000   0.32681   0.00000  Uiso   1.00
O293   O     0.51924   0.49999   0.32681   0.00000  Uiso   1.00
O294   O     0.46177   0.43893   0.24999   0.00000  Uiso   1.00
O295   O     0.53821   0.43892   0.24999   0.00000  Uiso   1.00
O296   O     0.48076   0.50001   0.17319   0.00000  Uiso   1.00
O297   O     0.55720   0.50000   0.17319   0.00000  Uiso   1.00
O298   O     0.40788   0.48178   0.07847   0.00000  Uiso   1.00
Zn299  Zn    0.44896   0.50001   0.25000   0.00000  Uiso   1.00
Zn300  Zn    0.55104   0.49999   0.25000   0.00000  Uiso   1.00
C301   C     0.83334   0.58004   0.25005   0.00000  Uiso   1.00
C302   C     0.78997   0.49047   0.41036   0.00000  Uiso   1.00
C303   C     0.86936   0.64540   0.26306   0.00000  Uiso   1.00
C304   C     0.80695   0.49716   0.35195   0.00000  Uiso   1.00
C305   C     0.86932   0.35470   0.26308   0.00000  Uiso   1.00
C306   C     0.83328   0.37583   0.25009   0.00000  Uiso   1.00
C307   C     0.79724   0.35462   0.23715   0.00000  Uiso   1.00
C308   C     0.79725   0.64532   0.23717   0.00000  Uiso   1.00
C309   C     0.83333   0.62419   0.25009   0.00000  Uiso   1.00
C310   C     0.98062   0.46548   0.23442   0.00000  Uiso   1.00
C311   C     0.69513   0.46544   0.23469   0.00000  Uiso   1.00
C312   C     0.80858   0.48048   0.49276   0.00000  Uiso   1.00
C313   C     0.68593   0.53442   0.26597   0.00000  Uiso   1.00
C314   C     0.97132   0.53438   0.26606   0.00000  Uiso   1.00
C315   C     0.83331   0.41996   0.25001   0.00000  Uiso   1.00
C316   C     0.85976   0.49928   0.14780   0.00000  Uiso   1.00
C317   C     0.92661   0.45650   0.00986   0.00000  Uiso   1.00
C318   C     0.87495   0.49114   0.08994   0.00000  Uiso   1.00
C319   C     0.74330   0.50300   0.44084   0.00000  Uiso   1.00
C320   C     0.72773   0.50042   0.49684   0.00000  Uiso   1.00
C321   C     0.75960   0.48862   0.02335   0.00000  Uiso   1.00
C322   C     0.73213   0.43877   0.08693   0.00000  Uiso   1.00
C323   C     0.82104   0.47460   0.43667   0.00000  Uiso   1.00
C324   C     0.84564   0.47804   0.01556   0.00000  Uiso   1.00
C325   C     0.89039   0.45973   0.48629   0.00000  Uiso   1.00
C326   C     0.89820   0.44545   0.43387   0.00000  Uiso   1.00
C327   C     0.86419   0.45329   0.40893   0.00000  Uiso   1.00
C328   C     0.84047   0.49648   0.06504   0.00000  Uiso   1.00
C329   C     0.91850   0.47143   0.06220   0.00000  Uiso   1.00
H330   H     0.94541   0.46659   0.08136   0.00000  Uiso   1.00
H331   H     0.96066   0.44189   0.48826   0.00000  Uiso   1.00
H332   H     0.80921   0.51515   0.08519   0.00000  Uiso   1.00
H333   H     0.71865   0.51443   0.42135   0.00000  Uiso   1.00
H334   H     0.69079   0.50770   0.01989   0.00000  Uiso   1.00
H335   H     0.87184   0.44187   0.36815   0.00000  Uiso   1.00
H336   H     0.89719   0.62917   0.27354   0.00000  Uiso   1.00
H337   H     0.76610   0.42057   0.07363   0.00000  Uiso   1.00
H338   H     0.70709   0.42734   0.06624   0.00000  Uiso   1.00
H339   H     0.71463   0.43308   0.13067   0.00000  Uiso   1.00
H340   H     0.89713   0.37101   0.27360   0.00000  Uiso   1.00
H341   H     0.76942   0.37085   0.22663   0.00000  Uiso   1.00
H342   H     0.76941   0.62903   0.22670   0.00000  Uiso   1.00
H343   H     0.96634   0.43787   0.22171   0.00000  Uiso   1.00
H344   H     0.71680   0.43776   0.22248   0.00000  Uiso   1.00
H345   H     0.70017   0.56197   0.27887   0.00000  Uiso   1.00
H346   H     0.94946   0.56189   0.27907   0.00000  Uiso   1.00
H347   H     0.93140   0.42994   0.41133   0.00000  Uiso   1.00
N348   N     0.71426   0.50001   0.25001   0.00000  Uiso   1.00
N349   N     0.95239   0.49998   0.25000   0.00000  Uiso   1.00
O350   O     0.79512   0.56108   0.25000   0.00000  Uiso   1.00
O351   O     0.87157   0.56107   0.25000   0.00000  Uiso   1.00
O352   O     0.77613   0.50000   0.32681   0.00000  Uiso   1.00
O353   O     0.85258   0.49999   0.32681   0.00000  Uiso   1.00
O354   O     0.79510   0.43893   0.24999   0.00000  Uiso   1.00
O355   O     0.87154   0.43892   0.24999   0.00000  Uiso   1.00
O356   O     0.81409   0.50001   0.17319   0.00000  Uiso   1.00
O357   O     0.89053   0.50000   0.17319   0.00000  Uiso   1.00
O358   O     0.74121   0.48178   0.07847   0.00000  Uiso   1.00
Zn359  Zn    0.78229   0.50001   0.25000   0.00000  Uiso   1.00
Zn360  Zn    0.88438   0.49999   0.25000   0.00000  Uiso   1.00
C361   C     0.16668   0.91337   0.25005   0.00000  Uiso   1.00
C362   C     0.12330   0.82381   0.41036   0.00000  Uiso   1.00
C363   C     0.20269   0.97873   0.26306   0.00000  Uiso   1.00
C364   C     0.14028   0.83049   0.35195   0.00000  Uiso   1.00
C365   C     0.20266   0.68804   0.26308   0.00000  Uiso   1.00
C366   C     0.16661   0.70916   0.25009   0.00000  Uiso   1.00
C367   C     0.13057   0.68796   0.23715   0.00000  Uiso   1.00
C368   C     0.13058   0.97866   0.23717   0.00000  Uiso   1.00
C369   C     0.16666   0.95753   0.25009   0.00000  Uiso   1.00
C370   C     0.31396   0.79881   0.23442   0.00000  Uiso   1.00
C371   C     0.02847   0.79877   0.23469   0.00000  Uiso   1.00
C372   C     0.14191   0.81381   0.49276   0.00000  Uiso   1.00
C373   C     0.01926   0.86776   0.26597   0.00000  Uiso   1.00
C374   C     0.30465   0.86772   0.26606   0.00000  Uiso   1.00
C375   C     0.16664   0.75330   0.25001   0.00000  Uiso   1.00
C376   C     0.19309   0.83261   0.14780   0.00000  Uiso   1.00
C377   C     0.25995   0.78983   0.00986   0.00000  Uiso   1.00
C378   C     0.20828   0.82447   0.08994   0.00000  Uiso   1.00
C379   C     0.07664   0.83634   0.44084   0.00000  Uiso   1.00
C380   C     0.06106   0.83375   0.49684   0.00000  Uiso   1.00
C381   C     0.09293   0.82196   0.02335   0.00000  Uiso   1.00
C382   C     0.06547   0.77211   0.08693   0.00000  Uiso   1.00
C383   C     0.15438   0.80794   0.43667   0.00000  Uiso   1.00
C384   C     0.17898   0.81137   0.01556   0.00000  Uiso   1.00
C385   C     0.22373   0.79307   0.48629   0.00000  Uiso   1.00
C386   C     0.23153   0.77878   0.43387   0.00000  Uiso   1.00
C387   C     0.19753   0.78663   0.40893   0.00000  Uiso   1.00
C388   C     0.17381   0.82981   0.06504   0.00000  Uiso   1.00
C389   C     0.25183   0.80477   0.06220   0.00000  Uiso   1.00
H390   H     0.27874   0.79992   0.08136   0.00000  Uiso   1.00
H391   H     0.29400   0.77522   0.48826   0.00000  Uiso   1.00
H392   H     0.14255   0.84848   0.08519   0.00000  Uiso   1.00
H393   H     0.05198   0.84777   0.42135   0.00000  Uiso   1.00
H394   H     0.02412   0.84104   0.01989   0.00000  Uiso   1.00
H395   H     0.20517   0.77520   0.36815   0.00000  Uiso   1.00
H396   H     0.23053   0.96250   0.27354   0.00000  Uiso   1.00
H397   H     0.09943   0.75390   0.07363   0.00000  Uiso   1.00
H398   H     0.04043   0.76067   0.06624   0.00000  Uiso   1.00
H399   H     0.04796   0.76641   0.13067   0.00000  Uiso   1.00
H400   H     0.23047   0.70434   0.27360   0.00000  Uiso   1.00
H401   H     0.10275   0.70419   0.22663   0.00000  Uiso   1.00
H402   H     0.10275   0.96236   0.22670   0.00000  Uiso   1.00
H403   H     0.29967   0.77120   0.22171   0.00000  Uiso   1.00
H404   H     0.05014   0.77109   0.22248   0.00000  Uiso   1.00
H405   H     0.03351   0.89531   0.27887   0.00000  Uiso   1.00
H406   H     0.28279   0.89522   0.27907   0.00000  Uiso   1.00
H407   H     0.26473   0.76327   0.41133   0.00000  Uiso   1.00
N408   N     0.04760   0.83334   0.25001   0.00000  Uiso   1.00
N409   N     0.28573   0.83331   0.25000   0.00000  Uiso   1.00
O410   O     0.12846   0.89442   0.25000   0.00000  Uiso   1.00
O411   O     0.20490   0.89441   0.25000   0.00000  Uiso   1.00
O412   O     0.10947   0.83333   0.32681   0.00000  Uiso   1.00
O413   O     0.18591   0.83332   0.32681   0.00000  Uiso   1.00
O414   O     0.12843   0.77226   0.24999   0.00000  Uiso   1.00
O415   O     0.20488   0.77225   0.24999   0.00000  Uiso   1.00
O416   O     0.14742   0.83335   0.17319   0.00000  Uiso   1.00
O417   O     0.22387   0.83334   0.17319   0.00000  Uiso   1.00
O418   O     0.07454   0.81512   0.07847   0.00000  Uiso   1.00
Zn419  Zn    0.11562   0.83334   0.25000   0.00000  Uiso   1.00
Zn420  Zn    0.21771   0.83333   0.25000   0.00000  Uiso   1.00
C421   C     0.50001   0.91337   0.25005   0.00000  Uiso   1.00
C422   C     0.45663   0.82381   0.41036   0.00000  Uiso   1.00
C423   C     0.53602   0.97873   0.26306   0.00000  Uiso   1.00
C424   C     0.47361   0.83049   0.35195   0.00000  Uiso   1.00
C425   C     0.53599   0.68804   0.26308   0.00000  Uiso   1.00
C426   C     0.49995   0.70916   0.25009   0.00000  Uiso   1.00
C427   C     0.46391   0.68796   0.23715   0.00000  Uiso   1.00
C428   C     0.46392   0.97866   0.23717   0.00000  Uiso   1.00
C429   C     0.50000   0.95753   0.25009   0.00000  Uiso   1.00
C430   C     0.64729   0.79881   0.23442   0.00000  Uiso   1.00
C431   C     0.36180   0.79877   0.23469   0.00000  Uiso   1.00
C432   C     0.47524   0.81381   0.49276   0.00000  Uiso   1.00
C433   C     0.35260   0.86776   0.26597   0.00000  Uiso   1.00
C434   C     0.63799   0.86772   0.26606   0.00000  Uiso   1.00
C435   C     0.49997   0.75330   0.25001   0.00000  Uiso   1.00
C436   C     0.52642   0.83261   0.14780   0.00000  Uiso   1.00
C437   C     0.59328   0.78983   0.00986   0.00000  Uiso   1.00
C438   C     0.54162   0.82447   0.08994   0.00000  Uiso   1.00
C439   C     0.40997   0.83634   0.44084   0.00000  Uiso   1.00
C440   C     0.39440   0.83375   0.49684   0.00000  Uiso   1.00
C441   C     0.42627   0.82196   0.02335   0.00000  Uiso   1.00
C442   C     0.39880   0.77211   0.08693   0.00000  Uiso   1.00
C443   C     0.48771   0.80794   0.43667   0.00000  Uiso   1.00
C444   C     0.51231   0.81137   0.01556   0.00000  Uiso   1.00
C445   C     0.55706   0.79307   0.48629   0.00000  Uiso   1.00
C446   C     0.56486   0.77878   0.43387   0.00000  Uiso   1.00
C447   C     0.53086   0.78663   0.40893   0.00000  Uiso   1.00
C448   C     0.50714   0.82981   0.06504   0.00000  Uiso   1.00
C449   C     0.58517   0.80477   0.06220   0.00000  Uiso   1.00
H450   H     0.61207   0.79992   0.08136   0.00000  Uiso   1.00
H451   H     0.62733   0.77522   0.48826   0.00000  Uiso   1.00
H452   H     0.47588   0.84848   0.08519   0.00000  Uiso   1.00
H453   H     0.38532   0.84777   0.42135   0.00000  Uiso   1.00
H454   H     0.35745   0.84104   0.01989   0.00000  Uiso   1.00
H455   H     0.53851   0.77520   0.36815   0.00000  Uiso   1.00
H456   H     0.56386   0.96250   0.27354   0.00000  Uiso   1.00
H457   H     0.43277   0.75390   0.07363   0.00000  Uiso   1.00
H458   H     0.37376   0.76067   0.06624   0.00000  Uiso   1.00
H459   H     0.38129   0.76641   0.13067   0.00000  Uiso   1.00
H460   H     0.56380   0.70434   0.27360   0.00000  Uiso   1.00
H461   H     0.43609   0.70419   0.22663   0.00000  Uiso   1.00
H462   H     0.43608   0.96236   0.22670   0.00000  Uiso   1.00
H463   H     0.63301   0.77120   0.22171   0.00000  Uiso   1.00
H464   H     0.38347   0.77109   0.22248   0.00000  Uiso   1.00
H465   H     0.36684   0.89531   0.27887   0.00000  Uiso   1.00
H466   H     0.61613   0.89522   0.27907   0.00000  Uiso   1.00
H467   H     0.59807   0.76327   0.41133   0.00000  Uiso   1.00
N468   N     0.38093   0.83334   0.25001   0.00000  Uiso   1.00
N469   N     0.61906   0.83331   0.25000   0.00000  Uiso   1.00
O470   O     0.46179   0.89442   0.25000   0.00000  Uiso   1.00
O471   O     0.53823   0.89441   0.25000   0.00000  Uiso   1.00
O472   O     0.44280   0.83333   0.32681   0.00000  Uiso   1.00
O473   O     0.51924   0.83332   0.32681   0.00000  Uiso   1.00
O474   O     0.46177   0.77226   0.24999   0.00000  Uiso   1.00
O475   O     0.53821   0.77225   0.24999   0.00000  Uiso   1.00
O476   O     0.48076   0.83335   0.17319   0.00000  Uiso   1.00
O477   O     0.55720   0.83334   0.17319   0.00000  Uiso   1.00
O478   O     0.40788   0.81512   0.07847   0.00000  Uiso   1.00
Zn479  Zn    0.44896   0.83334   0.25000   0.00000  Uiso   1.00
Zn480  Zn    0.55104   0.83333   0.25000   0.00000  Uiso   1.00
C481   C     0.83334   0.91337   0.25005   0.00000  Uiso   1.00
C482   C     0.78997   0.82381   0.41036   0.00000  Uiso   1.00
C483   C     0.86936   0.97873   0.26306   0.00000  Uiso   1.00
C484   C     0.80695   0.83049   0.35195   0.00000  Uiso   1.00
C485   C     0.86932   0.68804   0.26308   0.00000  Uiso   1.00
C486   C     0.83328   0.70916   0.25009   0.00000  Uiso   1.00
C487   C     0.79724   0.68796   0.23715   0.00000  Uiso   1.00
C488   C     0.79725   0.97866   0.23717   0.00000  Uiso   1.00
C489   C     0.83333   0.95753   0.25009   0.00000  Uiso   1.00
C490   C     0.98062   0.79881   0.23442   0.00000  Uiso   1.00
C491   C     0.69513   0.79877   0.23469   0.00000  Uiso   1.00
C492   C     0.80858   0.81381   0.49276   0.00000  Uiso   1.00
C493   C     0.68593   0.86776   0.26597   0.00000  Uiso   1.00
C494   C     0.97132   0.86772   0.26606   0.00000  Uiso   1.00
C495   C     0.83331   0.75330   0.25001   0.00000  Uiso   1.00
C496   C     0.85976   0.83261   0.14780   0.00000  Uiso   1.00
C497   C     0.92661   0.78983   0.00986   0.00000  Uiso   1.00
C498   C     0.87495   0.82447   0.08994   0.00000  Uiso   1.00
C499   C     0.74330   0.83634   0.44084   0.00000  Uiso   1.00
C500   C     0.72773   0.83375   0.49684   0.00000  Uiso   1.00
C501   C     0.75960   0.82196   0.02335   0.00000  Uiso   1.00
C502   C     0.73213   0.77211   0.08693   0.00000  Uiso   1.00
C503   C     0.82104   0.80794   0.43667   0.00000  Uiso   1.00
C504   C     0.84564   0.81137   0.01556   0.00000  Uiso   1.00
C505   C     0.89039   0.79307   0.48629   0.00000  Uiso   1.00
C506   C     0.89820   0.77878   0.43387   0.00000  Uiso   1.00
C507   C     0.86419   0.78663   0.40893   0.00000  Uiso   1.00
C508   C     0.84047   0.82981   0.06504   0.00000  Uiso   1.00
C509   C     0.91850   0.80477   0.06220   0.00000  Uiso   1.00
H510   H     0.94541   0.79992   0.08136   0.00000  Uiso   1.00
H511   H     0.96066   0.77522   0.48826   0.00000  Uiso   1.00
H512   H     0.80921   0.84848   0.08519   0.00000  Uiso   1.00
H513   H     0.71865   0.84777   0.42135   0.00000  Uiso   1.00
H514   H     0.69079   0.84104   0.01989   0.00000  Uiso   1.00
H515   H     0.87184   0.77520   0.36815   0.00000  Uiso   1.00
H516   H     0.89719   0.96250   0.27354   0.00000  Uiso   1.00
H517   H     0.76610   0.75390   0.07363   0.00000  Uiso   1.00
H518   H     0.70709   0.76067   0.06624   0.00000  Uiso   1.00
H519   H     0.71463   0.76641   0.13067   0.00000  Uiso   1.00
H520   H     0.89713   0.70434   0.27360   0.00000  Uiso   1.00
H521   H     0.76942   0.70419   0.22663   0.00000  Uiso   1.00
H522   H     0.76941   0.96236   0.22670   0.00000  Uiso   1.00
H523   H     0.96634   0.77120   0.22171   0.00000  Uiso   1.00
H524   H     0.71680   0.77109   0.22248   0.00000  Uiso   1.00
H525   H     0.70017   0.89531   0.27887   0.00000  Uiso   1.00
H526   H     0.94946   0.89522   0.27907   0.00000  Uiso   1.00
H527   H     0.93140   0.76327   0.41133   0.00000  Uiso   1.00
N528   N     0.71426   0.83334   0.25001   0.00000  Uiso   1.00
N529   N     0.95239   0.83331   0.25000   0.00000  Uiso   1.00
O530   O     0.79512   0.89442   0.25000   0.00000  Uiso   1.00
O531   O     0.87157   0.89441   0.25000   0.00000  Uiso   1.00
O532   O     0.77613   0.83333   0.32681   0.00000  Uiso   1.00
O533   O     0.85258   0.83332   0.32681   0.00000  Uiso   1.00
O534   O     0.79510   0.77226   0.24999   0.00000  Uiso   1.00
O535   O     0.87154   0.77225   0.24999   0.00000  Uiso   1.00
O536   O     0.81409   0.83335   0.17319   0.00000  Uiso   1.00
O537   O     0.89053   0.83334   0.17319   0.00000  Uiso   1.00
O538   O     0.74121   0.81512   0.07847   0.00000  Uiso   1.00
Zn539  Zn    0.78229   0.83334   0.25000   0.00000  Uiso   1.00
Zn540  Zn    0.88438   0.83333   0.25000   0.00000  Uiso   1.00
C541   C     0.16668   0.24671   0.75005   0.00000  Uiso   1.00
C542   C     0.12330   0.15714   0.91036   0.00000  Uiso   1.00
C543   C     0.20269   0.31207   0.76306   0.00000  Uiso   1.00
C544   C     0.14028   0.16382   0.85195   0.00000  Uiso   1.00
C545   C     0.20266   0.02137   0.76308   0.00000  Uiso   1.00
C546   C     0.16661   0.04249   0.75009   0.00000  Uiso   1.00
C547   C     0.13057   0.02129   0.73715   0.00000  Uiso   1.00
C548   C     0.13058   0.31199   0.73717   0.00000  Uiso   1.00
C549   C     0.16666   0.29086   0.75009   0.00000  Uiso   1.00
C550   C     0.31396   0.13214   0.73442   0.00000  Uiso   1.00
C551   C     0.02847   0.13211   0.73469   0.00000  Uiso   1.00
C552   C     0.14191   0.14715   0.99276   0.00000  Uiso   1.00
C553   C     0.01926   0.20109   0.76597   0.00000  Uiso   1.00
C554   C     0.30465   0.20105   0.76606   0.00000  Uiso   1.00
C555   C     0.16664   0.08663   0.75001   0.00000  Uiso   1.00
C556   C     0.19309   0.16594   0.64780   0.00000  Uiso   1.00
C557   C     0.25995   0.12317   0.50986   0.00000  Uiso   1.00
C558   C     0.20828   0.15781   0.58994   0.00000  Uiso   1.00
C559   C     0.07664   0.16967   0.94084   0.00000  Uiso   1.00
C560   C     0.06106   0.16708   0.99684   0.00000  Uiso   1.00
C561   C     0.09293   0.15529   0.52335   0.00000  Uiso   1.00
C562   C     0.06547   0.10544   0.58693   0.00000  Uiso   1.00
C563   C     0.15438   0.14127   0.93667   0.00000  Uiso   1.00
C564   C     0.17898   0.14471   0.51556   0.00000  Uiso   1.00
C565   C     0.22373   0.12640   0.98629   0.00000  Uiso   1.00
C566   C     0.23153   0.11211   0.93387   0.00000  Uiso   1.00
C567   C     0.19753   0.11996   0.90893   0.00000  Uiso   1.00
C568   C     0.17381   0.16315   0.56504   0.00000  Uiso   1.00
C569   C     0.25183   0.13810   0.56220   0.00000  Uiso   1.00
H570   H     0.27874   0.13325   0.58136   0.00000  Uiso   1.00
H571   H     0.29400   0.10856   0.98826   0.00000  Uiso   1.00
H572   H     0.14255   0.18182   0.58519   0.00000  Uiso   1.00
H573   H     0.05198   0.18110   0.92135   0.00000  Uiso   1.00
H574   H     0.02412   0.17437   0.51989   0.00000  Uiso   1.00
H575   H     0.20517   0.10853   0.86815   0.00000  Uiso   1.00
H576   H     0.23053   0.29583   0.77354   0.00000  Uiso   1.00
H577   H     0.09943   0.08723   0.57363   0.00000  Uiso   1.00
H578   H     0.04043   0.09401   0.56624   0.00000  Uiso   1.00
H579   H     0.04796   0.09974   0.63067   0.00000  Uiso   1.00
H580   H     0.23047   0.03768   0.77360   0.00000  Uiso   1.00
H581   H     0.10275   0.03752   0.72663   0.00000  Uiso   1.00
H582   H     0.10275   0.29570   0.72670   0.00000  Uiso   1.00
H583   H     0.29967   0.10453   0.72171   0.00000  Uiso   1.00
H584   H     0.05014   0.10442   0.72248   0.00000  Uiso   1.00
H585   H     0.03351   0.22864   0.77887   0.00000  Uiso   1.00
H586   H     0.28279   0.22855   0.77907   0.00000  Uiso   1.00
H587   H     0.26473   0.09660   0.91133   0.00000  Uiso   1.00
N588   N     0.04760   0.16668   0.75001   0.00000  Uiso   1.00
N589   N     0.28573   0.16665   0.75000   0.00000  Uiso   1.00
O590   O     0.12846   0.22775   0.75000   0.00000  Uiso   1.00
O591   O     0.20490   0.22774   0.75000   0.00000  Uiso   1.00
O592   O     0.10947   0.16666   0.82681   0.00000  Uiso   1.00
O593   O     0.18591   0.16665   0.82681   0.00000  Uiso   1.00
O594   O     0.12843   0.10559   0.74999   0.00000  Uiso   1.00
O595   O     0.20488   0.10558   0.74999   0.00000  Uiso   1.00
O596   O     0.14742   0.16668   0.67319   0.00000  Uiso   1.00
O597   O     0.22387   0.16667   0.67319   0.00000  Uiso   1.00
O598   O     0.07454   0.14845   0.57847   0.00000  Uiso   1.00
Zn599  Zn    0.11562   0.16667   0.75000   0.00000  Uiso   1.00
Zn600  Zn    0.21771   0.16666   0.75000   0.00000  Uiso   1.00
C601   C     0.50001   0.24671   0.75005   0.00000  Uiso   1.00
C602   C     0.45663   0.15714   0.91036   0.00000  Uiso   1.00
C603   C     0.53602   0.31207   0.76306   0.00000  Uiso   1.00
C604   C     0.47361   0.16382   0.85195   0.00000  Uiso   1.00
C605   C     0.53599   0.02137   0.76308   0.00000  Uiso   1.00
C606   C     0.49995   0.04249   0.75009   0.00000  Uiso   1.00
C607   C     0.46391   0.02129   0.73715   0.00000  Uiso   1.00
C608   C     0.46392   0.31199   0.73717   0.00000  Uiso   1.00
C609   C     0.50000   0.29086   0.75009   0.00000  Uiso   1.00
C610   C     0.64729   0.13214   0.73442   0.00000  Uiso   1.00
C611   C     0.36180   0.13211   0.73469   0.00000  Uiso   1.00
C612   C     0.47524   0.14715   0.99276   0.00000  Uiso   1.00
C613   C     0.35260   0.20109   0.76597   0.00000  Uiso   1.00
C614   C     0.63799   0.20105   0.76606   0.00000  Uiso   1.00
C615   C     0.49997   0.08663   0.75001   0.00000  Uiso   1.00
C616   C     0.52642   0.16594   0.64780   0.00000  Uiso   1.00
C617   C     0.59328   0.12317   0.50986   0.00000  Uiso   1.00
C618   C     0.54162   0.15781   0.58994   0.00000  Uiso   1.00
C619   C     0.40997   0.16967   0.94084   0.00000  Uiso   1.00
C620   C     0.39440   0.16708   0.99684   0.00000  Uiso   1.00
C621   C     0.42627   0.15529   0.52335   0.00000  Uiso   1.00
C622   C     0.39880   0.10544   0.58693   0.00000  Uiso   1.00
C623   C     0.48771   0.14127   0.93667   0.00000  Uiso   1.00
C624   C     0.51231   0.14471   0.51556   0.00000  Uiso   1.00
C625   C     0.55706   0.12640   0.98629   0.00000  Uiso   1.00
C626   C     0.56486   0.11211   0.93387   0.00000  Uiso   1.00
C627   C     0.53086   0.11996   0.90893   0.00000  Uiso   1.00
C628   C     0.50714   0.16315   0.56504   0.00000  Uiso   1.00
C629   C     0.58517   0.13810   0.56220   0.00000  Uiso   1.00
H630   H     0.61207   0.13325   0.58136   0.00000  Uiso   1.00
H631   H     0.62733   0.10856   0.98826   0.00000  Uiso   1.00
H632   H     0.47588   0.18182   0.58519   0.00000  Uiso   1.00
H633   H     0.38532   0.18110   0.92135   0.00000  Uiso   1.00
H634   H     0.35745   0.17437   0.51989   0.00000  Uiso   1.00
H635   H     0.53851   0.10853   0.86815   0.00000  Uiso   1.00
H636   H     0.56386   0.29583   0.77354   0.00000  Uiso   1.00
H637   H     0.43277   0.08723   0.57363   0.00000  Uiso   1.00
H638   H     0.37376   0.09401   0.56624   0.00000  Uiso   1.00
H639   H     0.38129   0.09974   0.63067   0.00000  Uiso   1.00
H640   H     0.56380   0.03768   0.77360   0.00000  Uiso   1.00
H641   H     0.43609   0.03752   0.72663   0.00000  Uiso   1.00
H642   H     0.43608   0.29570   0.72670   0.00000  Uiso   1.00
H643   H     0.63301   0.10453   0.72171   0.00000  Uiso   1.00
H644   H     0.38347   0.10442   0.72248   0.00000  Uiso   1.00
H645   H     0.36684   0.22864   0.77887   0.00000  Uiso   1.00
H646   H     0.61613   0.22855   0.77907   0.00000  Uiso   1.00
H647   H     0.59807   0.09660   0.91133   0.00000  Uiso   1.00
N648   N     0.38093   0.16668   0.75001   0.00000  Uiso   1.00
N649   N     0.61906   0.16665   0.75000   0.00000  Uiso   1.00
O650   O     0.46179   0.22775   0.75000   0.00000  Uiso   1.00
O651   O     0.53823   0.22774   0.75000   0.00000  Uiso   1.00
O652   O     0.44280   0.16666   0.82681   0.00000  Uiso   1.00
O653   O     0.51924   0.16665   0.82681   0.00000  Uiso   1.00
O654   O     0.46177   0.10559   0.74999   0.00000  Uiso   1.00
O655   O     0.53821   0.10558   0.74999   0.00000  Uiso   1.00
O656   O     0.48076   0.16668   0.67319   0.00000  Uiso   1.00
O657   O     0.55720   0.16667   0.67319   0.00000  Uiso   1.00
O658   O     0.40788   0.14845   0.57847   0.00000  Uiso   1.00
Zn659  Zn    0.44896   0.16667   0.75000   0.00000  Uiso   1.00
Zn660  Zn    0.55104   0.16666   0.75000   0.00000  Uiso   1.00
C661   C     0.83334   0.24671   0.75005   0.00000  Uiso   1.00
C662   C     0.78997   0.15714   0.91036   0.00000  Uiso   1.00
C663   C     0.86936   0.31207   0.76306   0.00000  Uiso   1.00
C664   C     0.80695   0.16382   0.85195   0.00000  Uiso   1.00
C665   C     0.86932   0.02137   0.76308   0.00000  Uiso   1.00
C666   C     0.83328   0.04249   0.75009   0.00000  Uiso   1.00
C667   C     0.79724   0.02129   0.73715   0.00000  Uiso   1.00
C668   C     0.79725   0.31199   0.73717   0.00000  Uiso   1.00
C669   C     0.83333   0.29086   0.75009   0.00000  Uiso   1.00
C670   C     0.98062   0.13214   0.73442   0.00000  Uiso   1.00
C671   C     0.69513   0.13211   0.73469   0.00000  Uiso   1.00
C672   C     0.80858   0.14715   0.99276   0.00000  Uiso   1.00
C673   C     0.68593   0.20109   0.76597   0.00000  Uiso   1.00
C674   C     0.97132   0.20105   0.76606   0.00000  Uiso   1.00
C675   C     0.83331   0.08663   0.75001   0.00000  Uiso   1.00
C676   C     0.85976   0.16594   0.64780   0.00000  Uiso   1.00
C677   C     0.92661   0.12317   0.50986   0.00000  Uiso   1.00
C678   C     0.87495   0.15781   0.58994   0.00000  Uiso   1.00
C679   C     0.74330   0.16967   0.94084   0.00000  Uiso   1.00
C680   C     0.72773   0.16708   0.99684   0.00000  Uiso   1.00
C681   C     0.75960   0.15529   0.52335   0.00000  Uiso   1.00
C682   C     0.73213   0.10544   0.58693   0.00000  Uiso   1.00
C683   C     0.82104   0.14127   0.93667   0.00000  Uiso   1.00
C684   C     0.84564   0.14471   0.51556   0.00000  Uiso   1.00
C685   C     0.89039   0.12640   0.98629   0.00000  Uiso   1.00
C686   C     0.89820   0.11211   0.93387   0.00000  Uiso   1.00
C687   C     0.86419   0.11996   0.90893   0.00000  Uiso   1.00
C688   C     0.84047   0.16315   0.56504   0.00000  Uiso   1.00
C689   C     0.91850   0.13810   0.56220   0.00000  Uiso   1.00
H690   H     0.94541   0.13325   0.58136   0.00000  Uiso   1.00
H691   H     0.96066   0.10856   0.98826   0.00000  Uiso   1.00
H692   H     0.80921   0.18182   0.58519   0.00000  Uiso   1.00
H693   H     0.71865   0.18110   0.92135   0.00000  Uiso   1.00
H694   H     0.69079   0.17437   0.51989   0.00000  Uiso   1.00
H695   H     0.87184   0.10853   0.86815   0.00000  Uiso   1.00
H696   H     0.89719   0.29583   0.77354   0.00000  Uiso   1.00
H697   H     0.76610   0.08723   0.57363   0.00000  Uiso   1.00
H698   H     0.70709   0.09401   0.56624   0.00000  Uiso   1.00
H699   H     0.71463   0.09974   0.63067   0.00000  Uiso   1.00
H700   H     0.89713   0.03768   0.77360   0.00000  Uiso   1.00
H701   H     0.76942   0.03752   0.72663   0.00000  Uiso   1.00
H702   H     0.76941   0.29570   0.72670   0.00000  Uiso   1.00
H703   H     0.96634   0.10453   0.72171   0.00000  Uiso   1.00
H704   H     0.71680   0.10442   0.72248   0.00000  Uiso   1.00
H705   H     0.70017   0.22864   0.77887   0.00000  Uiso   1.00
H706   H     0.94946   0.22855   0.77907   0.00000  Uiso   1.00
H707   H     0.93140   0.09660   0.91133   0.00000  Uiso   1.00
N708   N     0.71426   0.16668   0.75001   0.00000  Uiso   1.00
N709   N     0.95239   0.16665   0.75000   0.00000  Uiso   1.00
O710   O     0.79512   0.22775   0.75000   0.00000  Uiso   1.00
O711   O     0.87157   0.22774   0.75000   0.00000  Uiso   1.00
O712   O     0.77613   0.16666   0.82681   0.00000  Uiso   1.00
O713   O     0.85258   0.16665   0.82681   0.00000  Uiso   1.00
O714   O     0.79510   0.10559   0.74999   0.00000  Uiso   1.00
O715   O     0.87154   0.10558   0.74999   0.00000  Uiso   1.00
O716   O     0.81409   0.16668   0.67319   0.00000  Uiso   1.00
O717   O     0.89053   0.16667   0.67319   0.00000  Uiso   1.00
O718   O     0.74121   0.14845   0.57847   0.00000  Uiso   1.00
Zn719  Zn    0.78229   0.16667   0.75000   0.00000  Uiso   1.00
Zn720  Zn    0.88438   0.16666   0.75000   0.00000  Uiso   1.00
C721   C     0.16668   0.58004   0.75005   0.00000  Uiso   1.00
C722   C     0.12330   0.49047   0.91036   0.00000  Uiso   1.00
C723   C     0.20269   0.64540   0.76306   0.00000  Uiso   1.00
C724   C     0.14028   0.49716   0.85195   0.00000  Uiso   1.00
C725   C     0.20266   0.35470   0.76308   0.00000  Uiso   1.00
C726   C     0.16661   0.37583   0.75009   0.00000  Uiso   1.00
C727   C     0.13057   0.35462   0.73715   0.00000  Uiso   1.00
C728   C     0.13058   0.64532   0.73717   0.00000  Uiso   1.00
C729   C     0.16666   0.62419   0.75009   0.00000  Uiso   1.00
C730   C     0.31396   0.46548   0.73442   0.00000  Uiso   1.00
C731   C     0.02847   0.46544   0.73469   0.00000  Uiso   1.00
C732   C     0.14191   0.48048   0.99276   0.00000  Uiso   1.00
C733   C     0.01926   0.53442   0.76597   0.00000  Uiso   1.00
C734   C     0.30465   0.53438   0.76606   0.00000  Uiso   1.00
C735   C     0.16664   0.41996   0.75001   0.00000  Uiso   1.00
C736   C     0.19309   0.49928   0.64780   0.00000  Uiso   1.00
C737   C     0.25995   0.45650   0.50986   0.00000  Uiso   1.00
C738   C     0.20828   0.49114   0.58994   0.00000  Uiso   1.00
C739   C     0.07664   0.50300   0.94084   0.00000  Uiso   1.00
C740   C     0.06106   0.50042   0.99684   0.00000  Uiso   1.00
C741   C     0.09293   0.48862   0.52335   0.00000  Uiso   1.00
C742   C     0.06547   0.43877   0.58693   0.00000  Uiso   1.00
C743   C     0.15438   0.47460   0.93667   0.00000  Uiso   1.00
C744   C     0.17898   0.47804   0.51556   0.00000  Uiso   1.00
C745   C     0.22373   0.45973   0.98629   0.00000  Uiso   1.00
C746   C     0.23153   0.44545   0.93387   0.00000  Uiso   1.00
C747   C     0.19753   0.45329   0.90893   0.00000  Uiso   1.00
C748   C     0.17381   0.49648   0.56504   0.00000  Uiso   1.00
C749   C     0.25183   0.47143   0.56220   0.00000  Uiso   1.00
H750   H     0.27874   0.46659   0.58136   0.00000  Uiso   1.00
H751   H     0.29400   0.44189   0.98826   0.00000  Uiso   1.00
H752   H     0.14255   0.51515   0.58519   0.00000  Uiso   1.00
H753   H     0.05198   0.51443   0.92135   0.00000  Uiso   1.00
H754   H     0.02412   0.50770   0.51989   0.00000  Uiso   1.00
H755   H     0.20517   0.44187   0.86815   0.00000  Uiso   1.00
H756   H     0.23053   0.62917   0.77354   0.00000  Uiso   1.00
H757   H     0.09943   0.42057   0.57363   0.00000  Uiso   1.00
H758   H     0.04043   0.42734   0.56624   0.00000  Uiso   1.00
H759   H     0.04796   0.43308   0.63067   0.00000  Uiso   1.00
H760   H     0.23047   0.37101   0.77360   0.00000  Uiso   1.00
H761   H     0.10275   0.37085   0.72663   0.00000  Uiso   1.00
H762   H     0.10275   0.62903   0.72670   0.00000  Uiso   1.00
H763   H     0.29967   0.43787   0.72171   0.00000  Uiso   1.00
H764   H     0.05014   0.43776   0.72248   0.00000  Uiso   1.00
H765   H     0.03351   0.56197   0.77887   0.00000  Uiso   1.00
H766   H     0.28279   0.56189   0.77907   0.00000  Uiso   1.00
H767   H     0.26473   0.42994   0.91133   0.00000  Uiso   1.00
N768   N     0.04760   0.50001   0.75001   0.00000  Uiso   1.00
N769   N     0.28573   0.49998   0.75000   0.00000  Uiso   1.00
O770   O     0.12846   0.56108   0.75000   0.00000  Uiso   1.00
O771   O     0.20490   0.56107   0.75000   0.00000  Uiso   1.00
O772   O     0.10947   0.50000   0.82681   0.00000  Uiso   1.00
O773   O     0.18591   0.49999   0.82681   0.00000  Uiso   1.00
O774   O     0.12843   0.43893   0.74999   0.00000  Uiso   1.00
O775   O     0.20488   0.43892   0.74999   0.00000  Uiso   1.00
O776   O     0.14742   0.50001   0.67319   0.00000  Uiso   1.00
O777   O     0.22387   0.50000   0.67319   0.00000  Uiso   1.00
O778   O     0.07454   0.48178   0.57847   0.00000  Uiso   1.00
Zn779  Zn    0.11562   0.50001   0.75000   0.00000  Uiso   1.00
Zn780  Zn    0.21771   0.49999   0.75000   0.00000  Uiso   1.00
C781   C     0.50001   0.58004   0.75005   0.00000  Uiso   1.00
C782   C     0.45663   0.49047   0.91036   0.00000  Uiso   1.00
C783   C     0.53602   0.64540   0.76306   0.00000  Uiso   1.00
C784   C     0.47361   0.49716   0.85195   0.00000  Uiso   1.00
C785   C     0.53599   0.35470   0.76308   0.00000  Uiso   1.00
C786   C     0.49995   0.37583   0.75009   0.00000  Uiso   1.00
C787   C     0.46391   0.35462   0.73715   0.00000  Uiso   1.00
C788   C     0.46392   0.64532   0.73717   0.00000  Uiso   1.00
C789   C     0.50000   0.62419   0.75009   0.00000  Uiso   1.00
C790   C     0.64729   0.46548   0.73442   0.00000  Uiso   1.00
C791   C     0.36180   0.46544   0.73469   0.00000  Uiso   1.00
C792   C     0.47524   0.48048   0.99276   0.00000  Uiso   1.00
C793   C     0.35260   0.53442   0.76597   0.00000  Uiso   1.00
C794   C     0.63799   0.53438   0.76606   0.00000  Uiso   1.00
C795   C     0.49997   0.41996   0.75001   0.00000  Uiso   1.00
C796   C     0.52642   0.49928   0.64780   0.00000  Uiso   1.00
C797   C     0.59328   0.45650   0.50986   0.00000  Uiso   1.00
C798   C     0.54162   0.49114   0.58994   0.00000  Uiso   1.00
C799   C     0.40997   0.50300   0.94084   0.00000  Uiso   1.00
C800   C     0.39440   0.50042   0.99684   0.00000  Uiso   1.00
C801   C     0.42627   0.48862   0.52335   0.00000  Uiso   1.00
C802   C     0.39880   0.43877   0.58693   0.00000  Uiso   1.00
C803   C     0.48771   0.47460   0.93667   0.00000  Uiso   1.00
C804   C     0.51231   0.47804   0.51556   0.00000  Uiso   1.00
C805   C     0.55706   0.45973   0.98629   0.00000  Uiso   1.00
C806   C     0.56486   0.44545   0.93387   0.00000  Uiso   1.00
C807   C     0.53086   0.45329   0.90893   0.00000  Uiso   1.00
C808   C     0.50714   0.49648   0.56504   0.00000  Uiso   1.00
C809   C     0.58517   0.47143   0.56220   0.00000  Uiso   1.00
H810   H     0.61207   0.46659   0.58136   0.00000  Uiso   1.00
H811   H     0.62733   0.44189   0.98826   0.00000  Uiso   1.00
H812   H     0.47588   0.51515   0.58519   0.00000  Uiso   1.00
H813   H     0.38532   0.51443   0.92135   0.00000  Uiso   1.00
H814   H     0.35745   0.50770   0.51989   0.00000  Uiso   1.00
H815   H     0.53851   0.44187   0.86815   0.00000  Uiso   1.00
H816   H     0.56386   0.62917   0.77354   0.00000  Uiso   1.00
H817   H     0.43277   0.42057   0.57363   0.00000  Uiso   1.00
H818   H     0.37376   0.42734   0.56624   0.00000  Uiso   1.00
H819   H     0.38129   0.43308   0.63067   0.00000  Uiso   1.00
H820   H     0.56380   0.37101   0.77360   0.00000  Uiso   1.00
H821   H     0.43609   0.37085   0.72663   0.00000  Uiso   1.00
H822   H     0.43608   0.62903   0.72670   0.00000  Uiso   1.00
H823   H     0.63301   0.43787   0.72171   0.00000  Uiso   1.00
H824   H     0.38347   0.43776   0.72248   0.00000  Uiso   1.00
H825   H     0.36684   0.56197   0.77887   0.00000  Uiso   1.00
H826   H     0.61613   0.56189   0.77907   0.00000  Uiso   1.00
H827   H     0.59807   0.42994   0.91133   0.00000  Uiso   1.00
N828   N     0.38093   0.50001   0.75001   0.00000  Uiso   1.00
N829   N     0.61906   0.49998   0.75000   0.00000  Uiso   1.00
O830   O     0.46179   0.56108   0.75000   0.00000  Uiso   1.00
O831   O     0.53823   0.56107   0.75000   0.00000  Uiso   1.00
O832   O     0.44280   0.50000   0.82681   0.00000  Uiso   1.00
O833   O     0.51924   0.49999   0.82681   0.00000  Uiso   1.00
O834   O     0.46177   0.43893   0.74999   0.00000  Uiso   1.00
O835   O     0.53821   0.43892   0.74999   0.00000  Uiso   1.00
O836   O     0.48076   0.50001   0.67319   0.00000  Uiso   1.00
O837   O     0.55720   0.50000   0.67319   0.00000  Uiso   1.00
O838   O     0.40788   0.48178   0.57847   0.00000  Uiso   1.00
Zn839  Zn    0.44896   0.50001   0.75000   0.00000  Uiso   1.00
Zn840  Zn    0.55104   0.49999   0.75000   0.00000  Uiso   1.00
C841   C     0.83334   0.58004   0.75005   0.00000  Uiso   1.00
C842   C     0.78997   0.49047   0.91036   0.00000  Uiso   1.00
C843   C     0.86936   0.64540   0.76306   0.00000  Uiso   1.00
C844   C     0.80695   0.49716   0.85195   0.00000  Uiso   1.00
C845   C     0.86932   0.35470   0.76308   0.00000  Uiso   1.00
C846   C     0.83328   0.37583   0.75009   0.00000  Uiso   1.00
C847   C     0.79724   0.35462   0.73715   0.00000  Uiso   1.00
C848   C     0.79725   0.64532   0.73717   0.00000  Uiso   1.00
C849   C     0.83333   0.62419   0.75009   0.00000  Uiso   1.00
C850   C     0.98062   0.46548   0.73442   0.00000  Uiso   1.00
C851   C     0.69513   0.46544   0.73469   0.00000  Uiso   1.00
C852   C     0.80858   0.48048   0.99276   0.00000  Uiso   1.00
C853   C     0.68593   0.53442   0.76597   0.00000  Uiso   1.00
C854   C     0.97132   0.53438   0.76606   0.00000  Uiso   1.00
C855   C     0.83331   0.41996   0.75001   0.00000  Uiso   1.00
C856   C     0.85976   0.49928   0.64780   0.00000  Uiso   1.00
C857   C     0.92661   0.45650   0.50986   0.00000  Uiso   1.00
C858   C     0.87495   0.49114   0.58994   0.00000  Uiso   1.00
C859   C     0.74330   0.50300   0.94084   0.00000  Uiso   1.00
C860   C     0.72773   0.50042   0.99684   0.00000  Uiso   1.00
C861   C     0.75960   0.48862   0.52335   0.00000  Uiso   1.00
C862   C     0.73213   0.43877   0.58693   0.00000  Uiso   1.00
C863   C     0.82104   0.47460   0.93667   0.00000  Uiso   1.00
C864   C     0.84564   0.47804   0.51556   0.00000  Uiso   1.00
C865   C     0.89039   0.45973   0.98629   0.00000  Uiso   1.00
C866   C     0.89820   0.44545   0.93387   0.00000  Uiso   1.00
C867   C     0.86419   0.45329   0.90893   0.00000  Uiso   1.00
C868   C     0.84047   0.49648   0.56504   0.00000  Uiso   1.00
C869   C     0.91850   0.47143   0.56220   0.00000  Uiso   1.00
H870   H     0.94541   0.46659   0.58136   0.00000  Uiso   1.00
H871   H     0.96066   0.44189   0.98826   0.00000  Uiso   1.00
H872   H     0.80921   0.51515   0.58519   0.00000  Uiso   1.00
H873   H     0.71865   0.51443   0.92135   0.00000  Uiso   1.00
H874   H     0.69079   0.50770   0.51989   0.00000  Uiso   1.00
H875   H     0.87184   0.44187   0.86815   0.00000  Uiso   1.00
H876   H     0.89719   0.62917   0.77354   0.00000  Uiso   1.00
H877   H     0.76610   0.42057   0.57363   0.00000  Uiso   1.00
H878   H     0.70709   0.42734   0.56624   0.00000  Uiso   1.00
H879   H     0.71463   0.43308   0.63067   0.00000  Uiso   1.00
H880   H     0.89713   0.37101   0.77360   0.00000  Uiso   1.00
H881   H     0.76942   0.37085   0.72663   0.00000  Uiso   1.00
H882   H     0.76941   0.62903   0.72670   0.00000  Uiso   1.00
H883   H     0.96634   0.43787   0.72171   0.00000  Uiso   1.00
H884   H     0.71680   0.43776   0.72248   0.00000  Uiso   1.00
H885   H     0.70017   0.56197   0.77887   0.00000  Uiso   1.00
H886   H     0.94946   0.56189   0.77907   0.00000  Uiso   1.00
H887   H     0.93140   0.42994   0.91133   0.00000  Uiso   1.00
N888   N     0.71426   0.50001   0.75001   0.00000  Uiso   1.00
N889   N     0.95239   0.49998   0.75000   0.00000  Uiso   1.00
O890   O     0.79512   0.56108   0.75000   0.00000  Uiso   1.00
O891   O     0.87157   0.56107   0.75000   0.00000  Uiso   1.00
O892   O     0.77613   0.50000   0.82681   0.00000  Uiso   1.00
O893   O     0.85258   0.49999   0.82681   0.00000  Uiso   1.00
O894   O     0.79510   0.43893   0.74999   0.00000  Uiso   1.00
O895   O     0.87154   0.43892   0.74999   0.00000  Uiso   1.00
O896   O     0.81409   0.50001   0.67319   0.00000  Uiso   1.00
O897   O     0.89053   0.50000   0.67319   0.00000  Uiso   1.00
O898   O     0.74121   0.48178   0.57847   0.00000  Uiso   1.00
Zn899  Zn    0.78229   0.50001   0.75000   0.00000  Uiso   1.00
Zn900  Zn    0.88438   0.49999   0.75000   0.00000  Uiso   1.00
C901   C     0.16668   0.91337   0.75005   0.00000  Uiso   1.00
C902   C     0.12330   0.82381   0.91036   0.00000  Uiso   1.00
C903   C     0.20269   0.97873   0.76306   0.00000  Uiso   1.00
C904   C     0.14028   0.83049   0.85195   0.00000  Uiso   1.00
C905   C     0.20266   0.68804   0.76308   0.00000  Uiso   1.00
C906   C     0.16661   0.70916   0.75009   0.00000  Uiso   1.00
C907   C     0.13057   0.68796   0.73715   0.00000  Uiso   1.00
C908   C     0.13058   0.97866   0.73717   0.00000  Uiso   1.00
C909   C     0.16666   0.95753   0.75009   0.00000  Uiso   1.00
C910   C     0.31396   0.79881   0.73442   0.00000  Uiso   1.00
C911   C     0.02847   0.79877   0.73469   0.00000  Uiso   1.00
C912   C     0.14191   0.81381   0.99276   0.00000  Uiso   1.00
C913   C     0.01926   0.86776   0.76597   0.00000  Uiso   1.00
C914   C     0.30465   0.86772   0.76606   0.00000  Uiso   1.00
C915   C     0.16664   0.75330   0.75001   0.00000  Uiso   1.00
C916   C     0.19309   0.83261   0.64780   0.00000  Uiso   1.00
C917   C     0.25995   0.78983   0.50986   0.00000  Uiso   1.00
C918   C     0.20828   0.82447   0.58994   0.00000  Uiso   1.00
C919   C     0.07664   0.83634   0.94084   0.00000  Uiso   1.00
C920   C     0.06106   0.83375   0.99684   0.00000  Uiso   1.00
C921   C     0.09293   0.82196   0.52335   0.00000  Uiso   1.00
C922   C     0.06547   0.77211   0.58693   0.00000  Uiso   1.00
C923   C     0.15438   0.80794   0.93667   0.00000  Uiso   1.00
C924   C     0.17898   0.81137   0.51556   0.00000  Uiso   1.00
C925   C     0.22373   0.79307   0.98629   0.00000  Uiso   1.00
C926   C     0.23153   0.77878   0.93387   0.00000  Uiso   1.00
C927   C     0.19753   0.78663   0.90893   0.00000  Uiso   1.00
C928   C     0.17381   0.82981   0.56504   0.00000  Uiso   1.00
C929   C     0.25183   0.80477   0.56220   0.00000  Uiso   1.00
H930   H     0.27874   0.79992   0.58136   0.00000  Uiso   1.00
H931   H     0.29400   0.77522   0.98826   0.00000  Uiso   1.00
H932   H     0.14255   0.84848   0.58519   0.00000  Uiso   1.00
H933   H     0.05198   0.84777   0.92135   0.00000  Uiso   1.00
H934   H     0.02412   0.84104   0.51989   0.00000  Uiso   1.00
H935   H     0.20517   0.77520   0.86815   0.00000  Uiso   1.00
H936   H     0.23053   0.96250   0.77354   0.00000  Uiso   1.00
H937   H     0.09943   0.75390   0.57363   0.00000  Uiso   1.00
H938   H     0.04043   0.76067   0.56624   0.00000  Uiso   1.00
H939   H     0.04796   0.76641   0.63067   0.00000  Uiso   1.00
H940   H     0.23047   0.70434   0.77360   0.00000  Uiso   1.00
H941   H     0.10275   0.70419   0.72663   0.00000  Uiso   1.00
H942   H     0.10275   0.96236   0.72670   0.00000  Uiso   1.00
H943   H     0.29967   0.77120   0.72171   0.00000  Uiso   1.00
H944   H     0.05014   0.77109   0.72248   0.00000  Uiso   1.00
H945   H     0.03351   0.89531   0.77887   0.00000  Uiso   1.00
H946   H     0.28279   0.89522   0.77907   0.00000  Uiso   1.00
H947   H     0.26473   0.76327   0.91133   0.00000  Uiso   1.00
N948   N     0.04760   0.83334   0.75001   0.00000  Uiso   1.00
N949   N     0.28573   0.83331   0.75000   0.00000  Uiso   1.00
O950   O     0.12846   0.89442   0.75000   0.00000  Uiso   1.00
O951   O     0.20490   0.89441   0.75000   0.00000  Uiso   1.00
O952   O     0.10947   0.83333   0.82681   0.00000  Uiso   1.00
O953   O     0.18591   0.83332   0.82681   0.00000  Uiso   1.00
O954   O     0.12843   0.77226   0.74999   0.00000  Uiso   1.00
O955   O     0.20488   0.77225   0.74999   0.00000  Uiso   1.00
O956   O     0.14742   0.83335   0.67319   0.00000  Uiso   1.00
O957   O     0.22387   0.83334   0.67319   0.00000  Uiso   1.00
O958   O     0.07454   0.81512   0.57847   0.00000  Uiso   1.00
Zn959  Zn    0.11562   0.83334   0.75000   0.00000  Uiso   1.00
Zn960  Zn    0.21771   0.83333   0.75000   0.00000  Uiso   1.00
C961   C     0.50001   0.91337   0.75005   0.00000  Uiso   1.00
C962   C     0.45663   0.82381   0.91036   0.00000  Uiso   1.00
C963   C     0.53602   0.97873   0.76306   0.00000  Uiso   1.00
C964   C     0.47361   0.83049   0.85195   0.00000  Uiso   1.00
C965   C     0.53599   0.68804   0.76308   0.00000  Uiso   1.00
C966   C     0.49995   0.70916   0.75009   0.00000  Uiso   1.00
C967   C     0.46391   0.68796   0.73715   0.00000  Uiso   1.00
C968   C     0.46392   0.97866   0.73717   0.00000  Uiso   1.00
C969   C     0.50000   0.95753   0.75009   0.00000  Uiso   1.00
C970   C     0.64729   0.79881   0.73442   0.00000  Uiso   1.00
C971   C     0.36180   0.79877   0.73469   0.00000  Uiso   1.00
C972   C     0.47524   0.81381   0.99276   0.00000  Uiso   1.00
C973   C     0.35260   0.86776   0.76597   0.00000  Uiso   1.00
C974   C     0.63799   0.86772   0.76606   0.00000  Uiso   1.00
C975   C     0.49997   0.75330   0.75001   0.00000  Uiso   1.00
C976   C     0.52642   0.83261   0.64780   0.00000  Uiso   1.00
C977   C     0.59328   0.78983   0.50986   0.00000  Uiso   1.00
C978   C     0.54162   0.82447   0.58994   0.00000  Uiso   1.00
C979   C     0.40997   0.83634   0.94084   0.00000  Uiso   1.00
C980   C     0.39440   0.83375   0.99684   0.00000  Uiso   1.00
C981   C     0.42627   0.82196   0.52335   0.00000  Uiso   1.00
C982   C     0.39880   0.77211   0.58693   0.00000  Uiso   1.00
C983   C     0.48771   0.80794   0.93667   0.00000  Uiso   1.00
C984   C     0.51231   0.81137   0.51556   0.00000  Uiso   1.00
C985   C     0.55706   0.79307   0.98629   0.00000  Uiso   1.00
C986   C     0.56486   0.77878   0.93387   0.00000  Uiso   1.00
C987   C     0.53086   0.78663   0.90893   0.00000  Uiso   1.00
C988   C     0.50714   0.82981   0.56504   0.00000  Uiso   1.00
C989   C     0.58517   0.80477   0.56220   0.00000  Uiso   1.00
H990   H     0.61207   0.79992   0.58136   0.00000  Uiso   1.00
H991   H     0.62733   0.77522   0.98826   0.00000  Uiso   1.00
H992   H     0.47588   0.84848   0.58519   0.00000  Uiso   1.00
H993   H     0.38532   0.84777   0.92135   0.00000  Uiso   1.00
H994   H     0.35745   0.84104   0.51989   0.00000  Uiso   1.00
H995   H     0.53851   0.77520   0.86815   0.00000  Uiso   1.00
H996   H     0.56386   0.96250   0.77354   0.00000  Uiso   1.00
H997   H     0.43277   0.75390   0.57363   0.00000  Uiso   1.00
H998   H     0.37376   0.76067   0.56624   0.00000  Uiso   1.00
H999   H     0.38129   0.76641   0.63067   0.00000  Uiso   1.00
H1000  H     0.56380   0.70434   0.77360   0.00000  Uiso   1.00
H1001  H     0.43609   0.70419   0.72663   0.00000  Uiso   1.00
H1002  H     0.43608   0.96236   0.72670   0.00000  Uiso   1.00
H1003  H     0.63301   0.77120   0.72171   0.00000  Uiso   1.00
H1004  H     0.38347   0.77109   0.72248   0.00000  Uiso   1.00
H1005  H     0.36684   0.89531   0.77887   0.00000  Uiso   1.00
H1006  H     0.61613   0.89522   0.77907   0.00000  Uiso   1.00
H1007  H     0.59807   0.76327   0.91133   0.00000  Uiso   1.00
N1008  N     0.38093   0.83334   0.75001   0.00000  Uiso   1.00
N1009  N     0.61906   0.83331   0.75000   0.00000  Uiso   1.00
O1010  O     0.46179   0.89442   0.75000   0.00000  Uiso   1.00
O1011  O     0.53823   0.89441   0.75000   0.00000  Uiso   1.00
O1012  O     0.44280   0.83333   0.82681   0.00000  Uiso   1.00
O1013  O     0.51924   0.83332   0.82681   0.00000  Uiso   1.00
O1014  O     0.46177   0.77226   0.74999   0.00000  Uiso   1.00
O1015  O     0.53821   0.77225   0.74999   0.00000  Uiso   1.00
O1016  O     0.48076   0.83335   0.67319   0.00000  Uiso   1.00
O1017  O     0.55720   0.83334   0.67319   0.00000  Uiso   1.00
O1018  O     0.40788   0.81512   0.57847   0.00000  Uiso   1.00
Zn1019 Zn    0.44896   0.83334   0.75000   0.00000  Uiso   1.00
Zn1020 Zn    0.55104   0.83333   0.75000   0.00000  Uiso   1.00
C1021  C     0.83334   0.91337   0.75005   0.00000  Uiso   1.00
C1022  C     0.78997   0.82381   0.91036   0.00000  Uiso   1.00
C1023  C     0.86936   0.97873   0.76306   0.00000  Uiso   1.00
C1024  C     0.80695   0.83049   0.85195   0.00000  Uiso   1.00
C1025  C     0.86932   0.68804   0.76308   0.00000  Uiso   1.00
C1026  C     0.83328   0.70916   0.75009   0.00000  Uiso   1.00
C1027  C     0.79724   0.68796   0.73715   0.00000  Uiso   1.00
C1028  C     0.79725   0.97866   0.73717   0.00000  Uiso   1.00
C1029  C     0.83333   0.95753   0.75009   0.00000  Uiso   1.00
C1030  C     0.98062   0.79881   0.73442   0.00000  Uiso   1.00
C1031  C     0.69513   0.79877   0.73469   0.00000  Uiso   1.00
C1032  C     0.80858   0.81381   0.99276   0.00000  Uiso   1.00
C1033  C     0.68593   0.86776   0.76597   0.00000  Uiso   1.00
C1034  C     0.97132   0.86772   0.76606   0.00000  Uiso   1.00
C1035  C     0.83331   0.75330   0.75001   0.00000  Uiso   1.00
C1036  C     0.85976   0.83261   0.64780   0.00000  Uiso   1.00
C1037  C     0.92661   0.78983   0.50986   0.00000  Uiso   1.00
C1038  C     0.87495   0.82447   0.58994   0.00000  Uiso   1.00
C1039  C     0.74330   0.83634   0.94084   0.00000  Uiso   1.00
C1040  C     0.72773   0.83375   0.99684   0.00000  Uiso   1.00
C1041  C     0.75960   0.82196   0.52335   0.00000  Uiso   1.00
C1042  C     0.73213   0.77211   0.58693   0.00000  Uiso   1.00
C1043  C     0.82104   0.80794   0.93667   0.00000  Uiso   1.00
C1044  C     0.84564   0.81137   0.51556   0.00000  Uiso   1.00
C1045  C     0.89039   0.79307   0.98629   0.00000  Uiso   1.00
C1046  C     0.89820   0.77878   0.93387   0.00000  Uiso   1.00
C1047  C     0.86419   0.78663   0.90893   0.00000  Uiso   1.00
C1048  C     0.84047   0.82981   0.56504   0.00000  Uiso   1.00
C1049  C     0.91850   0.80477   0.56220   0.00000  Uiso   1.00
H1050  H     0.94541   0.79992   0.58136   0.00000  Uiso   1.00
H1051  H     0.96066   0.77522   0.98826   0.00000  Uiso   1.00
H1052  H     0.80921   0.84848   0.58519   0.00000  Uiso   1.00
H1053  H     0.71865   0.84777   0.92135   0.00000  Uiso   1.00
H1054  H     0.69079   0.84104   0.51989   0.00000  Uiso   1.00
H1055  H     0.87184   0.77520   0.86815   0.00000  Uiso   1.00
H1056  H     0.89719   0.96250   0.77354   0.00000  Uiso   1.00
H1057  H     0.76610   0.75390   0.57363   0.00000  Uiso   1.00
H1058  H     0.70709   0.76067   0.56624   0.00000  Uiso   1.00
H1059  H     0.71463   0.76641   0.63067   0.00000  Uiso   1.00
H1060  H     0.89713   0.70434   0.77360   0.00000  Uiso   1.00
H1061  H     0.76942   0.70419   0.72663   0.00000  Uiso   1.00
H1062  H     0.76941   0.96236   0.72670   0.00000  Uiso   1.00
H1063  H     0.96634   0.77120   0.72171   0.00000  Uiso   1.00
H1064  H     0.71680   0.77109   0.72248   0.00000  Uiso   1.00
H1065  H     0.70017   0.89531   0.77887   0.00000  Uiso   1.00
H1066  H     0.94946   0.89522   0.77907   0.00000  Uiso   1.00
H1067  H     0.93140   0.76327   0.91133   0.00000  Uiso   1.00
N1068  N     0.71426   0.83334   0.75001   0.00000  Uiso   1.00
N1069  N     0.95239   0.83331   0.75000   0.00000  Uiso   1.00
O1070  O     0.79512   0.89442   0.75000   0.00000  Uiso   1.00
O1071  O     0.87157   0.89441   0.75000   0.00000  Uiso   1.00
O1072  O     0.77613   0.83333   0.82681   0.00000  Uiso   1.00
O1073  O     0.85258   0.83332   0.82681   0.00000  Uiso   1.00
O1074  O     0.79510   0.77226   0.74999   0.00000  Uiso   1.00
O1075  O     0.87154   0.77225   0.74999   0.00000  Uiso   1.00
O1076  O     0.81409   0.83335   0.67319   0.00000  Uiso   1.00
O1077  O     0.89053   0.83334   0.67319   0.00000  Uiso   1.00
O1078  O     0.74121   0.81512   0.57847   0.00000  Uiso   1.00
Zn1079 Zn    0.78229   0.83334   0.75000   0.00000  Uiso   1.00
Zn1080 Zn    0.88438   0.83333   0.75000   0.00000  Uiso   1.00
loop_
_geom_bond_atom_site_label_1
_geom_bond_atom_site_label_2
_geom_bond_distance
_geom_bond_site_symmetry_2
_ccdc_geom_bond_type
C1     O50     1.283   .     A
C1     O51     1.283   .     A
C1     C9      1.419   .     S
C2     C4      1.460   .     S
C2     C23     1.414   .     A
C2     C19     1.403   .     A
C3     C9      1.397   .     A
C3     H36     1.084   .     S
C3     C185    1.370   .     S
C4     O53     1.291   .     A
C4     O52     1.292   .     A
C5     C6      1.397   .     A
C5     H40     1.084   .     S
C5     C363    1.370   1_545 S
C6     C7      1.397   .     A
C6     C15     1.418   .     S
C7     H41     1.084   .     S
C7     C368    1.370   1_545 S
C8     H42     1.084   .     S
C8     C9      1.397   .     A
C8     C187    1.370   .     S
C10    N49     1.366   .     A
C10    H43     1.081   .     S
C10    C71     1.415   .     S
C11    H44     1.081   .     S
C11    N48     1.365   .     A
C11    C130    1.415   1_455 S
C12    C23     1.405   .     A
C12    C561    1.426   .     S
C12    C564    1.413   .     S
C13    N48     1.366   .     A
C13    H45     1.081   .     S
C13    C134    1.415   1_455 S
C14    H46     1.081   .     S
C14    N49     1.366   .     A
C14    C73     1.415   .     S
C15    O54     1.283   .     A
C15    O55     1.282   .     A
C16    O56     1.291   .     A
C16    O57     1.293   .     A
C16    C18     1.455   .     S
C17    C29     1.397   .     A
C17    C565    1.406   1_554 S
C17    H571    1.084   1_554 S
C18    C29     1.401   .     A
C18    C28     1.391   .     A
C19    C20     1.387   .     A
C19    H33     1.083   .     S
C20    C561    1.396   .     S
C20    H574    1.083   .     S
C21    O58     1.382   .     S
C21    C560    1.396   1_554 S
C21    C552    1.426   1_554 S
C22    O58     1.411   .     S
C22    H39     1.105   .     S
C22    H38     1.114   .     S
C22    H37     1.113   .     S
C23    C27     1.417   .     A
C24    C28     1.388   .     A
C24    C552    1.413   1_554 S
C24    C565    1.417   1_554 S
C25    C26     1.393   .     A
C25    C557    1.406   .     S
C25    C564    1.417   .     S
C26    C27     1.391   .     A
C26    H47     1.084   .     S
C27    H35     1.081   .     S
C28    H32     1.081   .     S
C29    H30     1.083   .     S
H31    C557    1.084   .     S
H34    C560    1.083   1_554 S
N48    Zn59    2.009   .     S
N49    Zn60    2.009   .     S
O50    Zn59    1.999   .     S
O51    Zn60    1.999   .     S
O52    Zn59    1.960   .     S
O53    Zn60    1.918   .     S
O54    Zn59    1.999   .     S
O55    Zn60    1.999   .     S
O56    Zn59    1.918   .     S
O57    Zn60    1.960   .     S
C61    O110    1.283   .     A
C61    O111    1.283   .     A
C61    C69     1.419   .     S
C62    C64     1.460   .     S
C62    C83     1.414   .     A
C62    C79     1.403   .     A
C63    C69     1.397   .     A
C63    H96     1.084   .     S
C63    C245    1.370   .     S
C64    O113    1.291   .     A
C64    O112    1.292   .     A
C65    C66     1.397   .     A
C65    H100    1.084   .     S
C65    C423    1.370   1_545 S
C66    C67     1.397   .     A
C66    C75     1.418   .     S
C67    H101    1.084   .     S
C67    C428    1.370   1_545 S
C68    H102    1.084   .     S
C68    C69     1.397   .     A
C68    C247    1.370   .     S
C70    N109    1.366   .     A
C70    H103    1.081   .     S
C70    C131    1.415   .     S
C71    H104    1.081   .     S
C71    N108    1.365   .     A
C72    C83     1.405   .     A
C72    C621    1.426   .     S
C72    C624    1.413   .     S
C73    N108    1.366   .     A
C73    H105    1.081   .     S
C74    H106    1.081   .     S
C74    N109    1.366   .     A
C74    C133    1.415   .     S
C75    O114    1.283   .     A
C75    O115    1.282   .     A
C76    O116    1.291   .     A
C76    O117    1.293   .     A
C76    C78     1.455   .     S
C77    C89     1.397   .     A
C77    C625    1.406   1_554 S
C77    H631    1.084   1_554 S
C78    C89     1.401   .     A
C78    C88     1.391   .     A
C79    C80     1.387   .     A
C79    H93     1.083   .     S
C80    C621    1.396   .     S
C80    H634    1.083   .     S
C81    O118    1.382   .     S
C81    C620    1.396   1_554 S
C81    C612    1.426   1_554 S
C82    O118    1.411   .     S
C82    H99     1.105   .     S
C82    H98     1.114   .     S
C82    H97     1.113   .     S
C83    C87     1.417   .     A
C84    C88     1.388   .     A
C84    C612    1.413   1_554 S
C84    C625    1.417   1_554 S
C85    C86     1.393   .     A
C85    C617    1.406   .     S
C85    C624    1.417   .     S
C86    C87     1.391   .     A
C86    H107    1.084   .     S
C87    H95     1.081   .     S
C88    H92     1.081   .     S
C89    H90     1.083   .     S
H91    C617    1.084   .     S
H94    C620    1.083   1_554 S
N108   Zn119   2.009   .     S
N109   Zn120   2.009   .     S
O110   Zn119   1.999   .     S
O111   Zn120   1.999   .     S
O112   Zn119   1.960   .     S
O113   Zn120   1.918   .     S
O114   Zn119   1.999   .     S
O115   Zn120   1.999   .     S
O116   Zn119   1.918   .     S
O117   Zn120   1.960   .     S
C121   O170    1.283   .     A
C121   O171    1.283   .     A
C121   C129    1.419   .     S
C122   C124    1.460   .     S
C122   C143    1.414   .     A
C122   C139    1.403   .     A
C123   C129    1.397   .     A
C123   H156    1.084   .     S
C123   C305    1.370   .     S
C124   O173    1.291   .     A
C124   O172    1.292   .     A
C125   C126    1.397   .     A
C125   H160    1.084   .     S
C125   C483    1.370   1_545 S
C126   C127    1.397   .     A
C126   C135    1.418   .     S
C127   H161    1.084   .     S
C127   C488    1.370   1_545 S
C128   H162    1.084   .     S
C128   C129    1.397   .     A
C128   C307    1.370   .     S
C130   N169    1.366   .     A
C130   H163    1.081   .     S
C130   C11     1.415   1_655 S
C131   H164    1.081   .     S
C131   N168    1.365   .     A
C132   C143    1.405   .     A
C132   C681    1.426   .     S
C132   C684    1.413   .     S
C133   N168    1.366   .     A
C133   H165    1.081   .     S
C134   H166    1.081   .     S
C134   N169    1.366   .     A
C134   C13     1.415   1_655 S
C135   O174    1.283   .     A
C135   O175    1.282   .     A
C136   O176    1.291   .     A
C136   O177    1.293   .     A
C136   C138    1.455   .     S
C137   C149    1.397   .     A
C137   C685    1.406   1_554 S
C137   H691    1.084   1_554 S
C138   C149    1.401   .     A
C138   C148    1.391   .     A
C139   C140    1.387   .     A
C139   H153    1.083   .     S
C140   C681    1.396   .     S
C140   H694    1.083   .     S
C141   O178    1.382   .     S
C141   C680    1.396   1_554 S
C141   C672    1.426   1_554 S
C142   O178    1.411   .     S
C142   H159    1.105   .     S
C142   H158    1.114   .     S
C142   H157    1.113   .     S
C143   C147    1.417   .     A
C144   C148    1.388   .     A
C144   C672    1.413   1_554 S
C144   C685    1.417   1_554 S
C145   C146    1.393   .     A
C145   C677    1.406   .     S
C145   C684    1.417   .     S
C146   C147    1.391   .     A
C146   H167    1.084   .     S
C147   H155    1.081   .     S
C148   H152    1.081   .     S
C149   H150    1.083   .     S
H151   C677    1.084   .     S
H154   C680    1.083   1_554 S
N168   Zn179   2.009   .     S
N169   Zn180   2.009   .     S
O170   Zn179   1.999   .     S
O171   Zn180   1.999   .     S
O172   Zn179   1.960   .     S
O173   Zn180   1.918   .     S
O174   Zn179   1.999   .     S
O175   Zn180   1.999   .     S
O176   Zn179   1.918   .     S
O177   Zn180   1.960   .     S
C181   O230    1.283   .     A
C181   O231    1.283   .     A
C181   C189    1.419   .     S
C182   C184    1.460   .     S
C182   C203    1.414   .     A
C182   C199    1.403   .     A
C183   C189    1.397   .     A
C183   H216    1.084   .     S
C183   C365    1.370   .     S
C184   O233    1.291   .     A
C184   O232    1.292   .     A
C185   C186    1.397   .     A
C185   H220    1.084   .     S
C186   C187    1.397   .     A
C186   C195    1.418   .     S
C187   H221    1.084   .     S
C188   H222    1.084   .     S
C188   C189    1.397   .     A
C188   C367    1.370   .     S
C190   N229    1.366   .     A
C190   H223    1.081   .     S
C190   C251    1.415   .     S
C191   H224    1.081   .     S
C191   N228    1.365   .     A
C191   C310    1.415   1_455 S
C192   C203    1.405   .     A
C192   C741    1.426   .     S
C192   C744    1.413   .     S
C193   N228    1.366   .     A
C193   H225    1.081   .     S
C193   C314    1.415   1_455 S
C194   H226    1.081   .     S
C194   N229    1.366   .     A
C194   C253    1.415   .     S
C195   O234    1.283   .     A
C195   O235    1.282   .     A
C196   O236    1.291   .     A
C196   O237    1.293   .     A
C196   C198    1.455   .     S
C197   C209    1.397   .     A
C197   C745    1.406   1_554 S
C197   H751    1.084   1_554 S
C198   C209    1.401   .     A
C198   C208    1.391   .     A
C199   C200    1.387   .     A
C199   H213    1.083   .     S
C200   C741    1.396   .     S
C200   H754    1.083   .     S
C201   O238    1.382   .     S
C201   C740    1.396   1_554 S
C201   C732    1.426   1_554 S
C202   O238    1.411   .     S
C202   H219    1.105   .     S
C202   H218    1.114   .     S
C202   H217    1.113   .     S
C203   C207    1.417   .     A
C204   C208    1.388   .     A
C204   C732    1.413   1_554 S
C204   C745    1.417   1_554 S
C205   C206    1.393   .     A
C205   C737    1.406   .     S
C205   C744    1.417   .     S
C206   C207    1.391   .     A
C206   H227    1.084   .     S
C207   H215    1.081   .     S
C208   H212    1.081   .     S
C209   H210    1.083   .     S
H211   C737    1.084   .     S
H214   C740    1.083   1_554 S
N228   Zn239   2.009   .     S
N229   Zn240   2.009   .     S
O230   Zn239   1.999   .     S
O231   Zn240   1.999   .     S
O232   Zn239   1.960   .     S
O233   Zn240   1.918   .     S
O234   Zn239   1.999   .     S
O235   Zn240   1.999   .     S
O236   Zn239   1.918   .     S
O237   Zn240   1.960   .     S
C241   O290    1.283   .     A
C241   O291    1.283   .     A
C241   C249    1.419   .     S
C242   C244    1.460   .     S
C242   C263    1.414   .     A
C242   C259    1.403   .     A
C243   C249    1.397   .     A
C243   H276    1.084   .     S
C243   C425    1.370   .     S
C244   O293    1.291   .     A
C244   O292    1.292   .     A
C245   C246    1.397   .     A
C245   H280    1.084   .     S
C246   C247    1.397   .     A
C246   C255    1.418   .     S
C247   H281    1.084   .     S
C248   H282    1.084   .     S
C248   C249    1.397   .     A
C248   C427    1.370   .     S
C250   N289    1.366   .     A
C250   H283    1.081   .     S
C250   C311    1.415   .     S
C251   H284    1.081   .     S
C251   N288    1.365   .     A
C252   C263    1.405   .     A
C252   C801    1.426   .     S
C252   C804    1.413   .     S
C253   N288    1.366   .     A
C253   H285    1.081   .     S
C254   H286    1.081   .     S
C254   N289    1.366   .     A
C254   C313    1.415   .     S
C255   O294    1.283   .     A
C255   O295    1.282   .     A
C256   O296    1.291   .     A
C256   O297    1.293   .     A
C256   C258    1.455   .     S
C257   C269    1.397   .     A
C257   C805    1.406   1_554 S
C257   H811    1.084   1_554 S
C258   C269    1.401   .     A
C258   C268    1.391   .     A
C259   C260    1.387   .     A
C259   H273    1.083   .     S
C260   C801    1.396   .     S
C260   H814    1.083   .     S
C261   O298    1.382   .     S
C261   C800    1.396   1_554 S
C261   C792    1.426   1_554 S
C262   O298    1.411   .     S
C262   H279    1.105   .     S
C262   H278    1.114   .     S
C262   H277    1.113   .     S
C263   C267    1.417   .     A
C264   C268    1.388   .     A
C264   C792    1.413   1_554 S
C264   C805    1.417   1_554 S
C265   C266    1.393   .     A
C265   C797    1.406   .     S
C265   C804    1.417   .     S
C266   C267    1.391   .     A
C266   H287    1.084   .     S
C267   H275    1.081   .     S
C268   H272    1.081   .     S
C269   H270    1.083   .     S
H271   C797    1.084   .     S
H274   C800    1.083   1_554 S
N288   Zn299   2.009   .     S
N289   Zn300   2.009   .     S
O290   Zn299   1.999   .     S
O291   Zn300   1.999   .     S
O292   Zn299   1.960   .     S
O293   Zn300   1.918   .     S
O294   Zn299   1.999   .     S
O295   Zn300   1.999   .     S
O296   Zn299   1.918   .     S
O297   Zn300   1.960   .     S
C301   O350    1.283   .     A
C301   O351    1.283   .     A
C301   C309    1.419   .     S
C302   C304    1.460   .     S
C302   C323    1.414   .     A
C302   C319    1.403   .     A
C303   C309    1.397   .     A
C303   H336    1.084   .     S
C303   C485    1.370   .     S
C304   O353    1.291   .     A
C304   O352    1.292   .     A
C305   C306    1.397   .     A
C305   H340    1.084   .     S
C306   C307    1.397   .     A
C306   C315    1.418   .     S
C307   H341    1.084   .     S
C308   H342    1.084   .     S
C308   C309    1.397   .     A
C308   C487    1.370   .     S
C310   N349    1.366   .     A
C310   H343    1.081   .     S
C310   C191    1.415   1_655 S
C311   H344    1.081   .     S
C311   N348    1.365   .     A
C312   C323    1.405   .     A
C312   C861    1.426   .     S
C312   C864    1.413   .     S
C313   N348    1.366   .     A
C313   H345    1.081   .     S
C314   H346    1.081   .     S
C314   N349    1.366   .     A
C314   C193    1.415   1_655 S
C315   O354    1.283   .     A
C315   O355    1.282   .     A
C316   O356    1.291   .     A
C316   O357    1.293   .     A
C316   C318    1.455   .     S
C317   C329    1.397   .     A
C317   C865    1.406   1_554 S
C317   H871    1.084   1_554 S
C318   C329    1.401   .     A
C318   C328    1.391   .     A
C319   C320    1.387   .     A
C319   H333    1.083   .     S
C320   C861    1.396   .     S
C320   H874    1.083   .     S
C321   O358    1.382   .     S
C321   C860    1.396   1_554 S
C321   C852    1.426   1_554 S
C322   O358    1.411   .     S
C322   H339    1.105   .     S
C322   H338    1.114   .     S
C322   H337    1.113   .     S
C323   C327    1.417   .     A
C324   C328    1.388   .     A
C324   C852    1.413   1_554 S
C324   C865    1.417   1_554 S
C325   C326    1.393   .     A
C325   C857    1.406   .     S
C325   C864    1.417   .     S
C326   C327    1.391   .     A
C326   H347    1.084   .     S
C327   H335    1.081   .     S
C328   H332    1.081   .     S
C329   H330    1.083   .     S
H331   C857    1.084   .     S
H334   C860    1.083   1_554 S
N348   Zn359   2.009   .     S
N349   Zn360   2.009   .     S
O350   Zn359   1.999   .     S
O351   Zn360   1.999   .     S
O352   Zn359   1.960   .     S
O353   Zn360   1.918   .     S
O354   Zn359   1.999   .     S
O355   Zn360   1.999   .     S
O356   Zn359   1.918   .     S
O357   Zn360   1.960   .     S
C361   O410    1.283   .     A
C361   O411    1.283   .     A
C361   C369    1.419   .     S
C362   C364    1.460   .     S
C362   C383    1.414   .     A
C362   C379    1.403   .     A
C363   C369    1.397   .     A
C363   H396    1.084   .     S
C363   C5      1.370   1_565 S
C364   O413    1.291   .     A
C364   O412    1.292   .     A
C365   C366    1.397   .     A
C365   H400    1.084   .     S
C366   C367    1.397   .     A
C366   C375    1.418   .     S
C367   H401    1.084   .     S
C368   H402    1.084   .     S
C368   C369    1.397   .     A
C368   C7      1.370   1_565 S
C370   N409    1.366   .     A
C370   H403    1.081   .     S
C370   C431    1.415   .     S
C371   H404    1.081   .     S
C371   N408    1.365   .     A
C371   C490    1.415   1_455 S
C372   C383    1.405   .     A
C372   C921    1.426   .     S
C372   C924    1.413   .     S
C373   N408    1.366   .     A
C373   H405    1.081   .     S
C373   C494    1.415   1_455 S
C374   H406    1.081   .     S
C374   N409    1.366   .     A
C374   C433    1.415   .     S
C375   O414    1.283   .     A
C375   O415    1.282   .     A
C376   O416    1.291   .     A
C376   O417    1.293   .     A
C376   C378    1.455   .     S
C377   C389    1.397   .     A
C377   C925    1.406   1_554 S
C377   H931    1.084   1_554 S
C378   C389    1.401   .     A
C378   C388    1.391   .     A
C379   C380    1.387   .     A
C379   H393    1.083   .     S
C380   C921    1.396   .     S
C380   H934    1.083   .     S
C381   O418    1.382   .     S
C381   C920    1.396   1_554 S
C381   C912    1.426   1_554 S
C382   O418    1.411   .     S
C382   H399    1.105   .     S
C382   H398    1.114   .     S
C382   H397    1.113   .     S
C383   C387    1.417   .     A
C384   C388    1.388   .     A
C384   C912    1.413   1_554 S
C384   C925    1.417   1_554 S
C385   C386    1.393   .     A
C385   C917    1.406   .     S
C385   C924    1.417   .     S
C386   C387    1.391   .     A
C386   H407    1.084   .     S
C387   H395    1.081   .     S
C388   H392    1.081   .     S
C389   H390    1.083   .     S
H391   C917    1.084   .     S
H394   C920    1.083   1_554 S
N408   Zn419   2.009   .     S
N409   Zn420   2.009   .     S
O410   Zn419   1.999   .     S
O411   Zn420   1.999   .     S
O412   Zn419   1.960   .     S
O413   Zn420   1.918   .     S
O414   Zn419   1.999   .     S
O415   Zn420   1.999   .     S
O416   Zn419   1.918   .     S
O417   Zn420   1.960   .     S
C421   O470    1.283   .     A
C421   O471    1.283   .     A
C421   C429    1.419   .     S
C422   C424    1.460   .     S
C422   C443    1.414   .     A
C422   C439    1.403   .     A
C423   C429    1.397   .     A
C423   H456    1.084   .     S
C423   C65     1.370   1_565 S
C424   O473    1.291   .     A
C424   O472    1.292   .     A
C425   C426    1.397   .     A
C425   H460    1.084   .     S
C426   C427    1.397   .     A
C426   C435    1.418   .     S
C427   H461    1.084   .     S
C428   H462    1.084   .     S
C428   C429    1.397   .     A
C428   C67     1.370   1_565 S
C430   N469    1.366   .     A
C430   H463    1.081   .     S
C430   C491    1.415   .     S
C431   H464    1.081   .     S
C431   N468    1.365   .     A
C432   C443    1.405   .     A
C432   C981    1.426   .     S
C432   C984    1.413   .     S
C433   N468    1.366   .     A
C433   H465    1.081   .     S
C434   H466    1.081   .     S
C434   N469    1.366   .     A
C434   C493    1.415   .     S
C435   O474    1.283   .     A
C435   O475    1.282   .     A
C436   O476    1.291   .     A
C436   O477    1.293   .     A
C436   C438    1.455   .     S
C437   C449    1.397   .     A
C437   C985    1.406   1_554 S
C437   H991    1.084   1_554 S
C438   C449    1.401   .     A
C438   C448    1.391   .     A
C439   C440    1.387   .     A
C439   H453    1.083   .     S
C440   C981    1.396   .     S
C440   H994    1.083   .     S
C441   O478    1.382   .     S
C441   C980    1.396   1_554 S
C441   C972    1.426   1_554 S
C442   O478    1.411   .     S
C442   H459    1.105   .     S
C442   H458    1.114   .     S
C442   H457    1.113   .     S
C443   C447    1.417   .     A
C444   C448    1.388   .     A
C444   C972    1.413   1_554 S
C444   C985    1.417   1_554 S
C445   C446    1.393   .     A
C445   C977    1.406   .     S
C445   C984    1.417   .     S
C446   C447    1.391   .     A
C446   H467    1.084   .     S
C447   H455    1.081   .     S
C448   H452    1.081   .     S
C449   H450    1.083   .     S
H451   C977    1.084   .     S
H454   C980    1.083   1_554 S
N468   Zn479   2.009   .     S
N469   Zn480   2.009   .     S
O470   Zn479   1.999   .     S
O471   Zn480   1.999   .     S
O472   Zn479   1.960   .     S
O473   Zn480   1.918   .     S
O474   Zn479   1.999   .     S
O475   Zn480   1.999   .     S
O476   Zn479   1.918   .     S
O477   Zn480   1.960   .     S
C481   O530    1.283   .     A
C481   O531    1.283   .     A
C481   C489    1.419   .     S
C482   C484    1.460   .     S
C482   C503    1.414   .     A
C482   C499    1.403   .     A
C483   C489    1.397   .     A
C483   H516    1.084   .     S
C483   C125    1.370   1_565 S
C484   O533    1.291   .     A
C484   O532    1.292   .     A
C485   C486    1.397   .     A
C485   H520    1.084   .     S
C486   C487    1.397   .     A
C486   C495    1.418   .     S
C487   H521    1.084   .     S
C488   H522    1.084   .     S
C488   C489    1.397   .     A
C488   C127    1.370   1_565 S
C490   N529    1.366   .     A
C490   H523    1.081   .     S
C490   C371    1.415   1_655 S
C491   H524    1.081   .     S
C491   N528    1.365   .     A
C492   C503    1.405   .     A
C492   C1041   1.426   .     S
C492   C1044   1.413   .     S
C493   N528    1.366   .     A
C493   H525    1.081   .     S
C494   H526    1.081   .     S
C494   N529    1.366   .     A
C494   C373    1.415   1_655 S
C495   O534    1.283   .     A
C495   O535    1.282   .     A
C496   O536    1.291   .     A
C496   O537    1.293   .     A
C496   C498    1.455   .     S
C497   C509    1.397   .     A
C497   C1045   1.406   1_554 S
C497   H1051   1.084   1_554 S
C498   C509    1.401   .     A
C498   C508    1.391   .     A
C499   C500    1.387   .     A
C499   H513    1.083   .     S
C500   C1041   1.396   .     S
C500   H1054   1.083   .     S
C501   O538    1.382   .     S
C501   C1040   1.396   1_554 S
C501   C1032   1.426   1_554 S
C502   O538    1.411   .     S
C502   H519    1.105   .     S
C502   H518    1.114   .     S
C502   H517    1.113   .     S
C503   C507    1.417   .     A
C504   C508    1.388   .     A
C504   C1032   1.413   1_554 S
C504   C1045   1.417   1_554 S
C505   C506    1.393   .     A
C505   C1037   1.406   .     S
C505   C1044   1.417   .     S
C506   C507    1.391   .     A
C506   H527    1.084   .     S
C507   H515    1.081   .     S
C508   H512    1.081   .     S
C509   H510    1.083   .     S
H511   C1037   1.084   .     S
H514   C1040   1.083   1_554 S
N528   Zn539   2.009   .     S
N529   Zn540   2.009   .     S
O530   Zn539   1.999   .     S
O531   Zn540   1.999   .     S
O532   Zn539   1.960   .     S
O533   Zn540   1.918   .     S
O534   Zn539   1.999   .     S
O535   Zn540   1.999   .     S
O536   Zn539   1.918   .     S
O537   Zn540   1.960   .     S
C541   O590    1.283   .     A
C541   O591    1.283   .     A
C541   C549    1.419   .     S
C542   C544    1.460   .     S
C542   C563    1.414   .     A
C542   C559    1.403   .     A
C543   C549    1.397   .     A
C543   H576    1.084   .     S
C543   C725    1.370   .     S
C544   O593    1.291   .     A
C544   O592    1.292   .     A
C545   C546    1.397   .     A
C545   H580    1.084   .     S
C545   C903    1.370   1_545 S
C546   C547    1.397   .     A
C546   C555    1.418   .     S
C547   H581    1.084   .     S
C547   C908    1.370   1_545 S
C548   H582    1.084   .     S
C548   C549    1.397   .     A
C548   C727    1.370   .     S
C550   N589    1.366   .     A
C550   H583    1.081   .     S
C550   C611    1.415   .     S
C551   H584    1.081   .     S
C551   N588    1.365   .     A
C551   C670    1.415   1_455 S
C552   C563    1.405   .     A
C552   C21     1.426   1_556 S
C552   C24     1.413   1_556 S
C553   N588    1.366   .     A
C553   H585    1.081   .     S
C553   C674    1.415   1_455 S
C554   H586    1.081   .     S
C554   N589    1.366   .     A
C554   C613    1.415   .     S
C555   O594    1.283   .     A
C555   O595    1.282   .     A
C556   O596    1.291   .     A
C556   O597    1.293   .     A
C556   C558    1.455   .     S
C557   C569    1.397   .     A
C558   C569    1.401   .     A
C558   C568    1.391   .     A
C559   C560    1.387   .     A
C559   H573    1.083   .     S
C560   C21     1.396   1_556 S
C560   H34     1.083   1_556 S
C561   O598    1.382   .     S
C562   O598    1.411   .     S
C562   H579    1.105   .     S
C562   H578    1.114   .     S
C562   H577    1.113   .     S
C563   C567    1.417   .     A
C564   C568    1.388   .     A
C565   C566    1.393   .     A
C565   C17     1.406   1_556 S
C565   C24     1.417   1_556 S
C566   C567    1.391   .     A
C566   H587    1.084   .     S
C567   H575    1.081   .     S
C568   H572    1.081   .     S
C569   H570    1.083   .     S
H571   C17     1.084   1_556 S
N588   Zn599   2.009   .     S
N589   Zn600   2.009   .     S
O590   Zn599   1.999   .     S
O591   Zn600   1.999   .     S
O592   Zn599   1.960   .     S
O593   Zn600   1.918   .     S
O594   Zn599   1.999   .     S
O595   Zn600   1.999   .     S
O596   Zn599   1.918   .     S
O597   Zn600   1.960   .     S
C601   O650    1.283   .     A
C601   O651    1.283   .     A
C601   C609    1.419   .     S
C602   C604    1.460   .     S
C602   C623    1.414   .     A
C602   C619    1.403   .     A
C603   C609    1.397   .     A
C603   H636    1.084   .     S
C603   C785    1.370   .     S
C604   O653    1.291   .     A
C604   O652    1.292   .     A
C605   C606    1.397   .     A
C605   H640    1.084   .     S
C605   C963    1.370   1_545 S
C606   C607    1.397   .     A
C606   C615    1.418   .     S
C607   H641    1.084   .     S
C607   C968    1.370   1_545 S
C608   H642    1.084   .     S
C608   C609    1.397   .     A
C608   C787    1.370   .     S
C610   N649    1.366   .     A
C610   H643    1.081   .     S
C610   C671    1.415   .     S
C611   H644    1.081   .     S
C611   N648    1.365   .     A
C612   C623    1.405   .     A
C612   C81     1.426   1_556 S
C612   C84     1.413   1_556 S
C613   N648    1.366   .     A
C613   H645    1.081   .     S
C614   H646    1.081   .     S
C614   N649    1.366   .     A
C614   C673    1.415   .     S
C615   O654    1.283   .     A
C615   O655    1.282   .     A
C616   O656    1.291   .     A
C616   O657    1.293   .     A
C616   C618    1.455   .     S
C617   C629    1.397   .     A
C618   C629    1.401   .     A
C618   C628    1.391   .     A
C619   C620    1.387   .     A
C619   H633    1.083   .     S
C620   C81     1.396   1_556 S
C620   H94     1.083   1_556 S
C621   O658    1.382   .     S
C622   O658    1.411   .     S
C622   H639    1.105   .     S
C622   H638    1.114   .     S
C622   H637    1.113   .     S
C623   C627    1.417   .     A
C624   C628    1.388   .     A
C625   C626    1.393   .     A
C625   C77     1.406   1_556 S
C625   C84     1.417   1_556 S
C626   C627    1.391   .     A
C626   H647    1.084   .     S
C627   H635    1.081   .     S
C628   H632    1.081   .     S
C629   H630    1.083   .     S
H631   C77     1.084   1_556 S
N648   Zn659   2.009   .     S
N649   Zn660   2.009   .     S
O650   Zn659   1.999   .     S
O651   Zn660   1.999   .     S
O652   Zn659   1.960   .     S
O653   Zn660   1.918   .     S
O654   Zn659   1.999   .     S
O655   Zn660   1.999   .     S
O656   Zn659   1.918   .     S
O657   Zn660   1.960   .     S
C661   O710    1.283   .     A
C661   O711    1.283   .     A
C661   C669    1.419   .     S
C662   C664    1.460   .     S
C662   C683    1.414   .     A
C662   C679    1.403   .     A
C663   C669    1.397   .     A
C663   H696    1.084   .     S
C663   C845    1.370   .     S
C664   O713    1.291   .     A
C664   O712    1.292   .     A
C665   C666    1.397   .     A
C665   H700    1.084   .     S
C665   C1023   1.370   1_545 S
C666   C667    1.397   .     A
C666   C675    1.418   .     S
C667   H701    1.084   .     S
C667   C1028   1.370   1_545 S
C668   H702    1.084   .     S
C668   C669    1.397   .     A
C668   C847    1.370   .     S
C670   N709    1.366   .     A
C670   H703    1.081   .     S
C670   C551    1.415   1_655 S
C671   H704    1.081   .     S
C671   N708    1.365   .     A
C672   C683    1.405   .     A
C672   C141    1.426   1_556 S
C672   C144    1.413   1_556 S
C673   N708    1.366   .     A
C673   H705    1.081   .     S
C674   H706    1.081   .     S
C674   N709    1.366   .     A
C674   C553    1.415   1_655 S
C675   O714    1.283   .     A
C675   O715    1.282   .     A
C676   O716    1.291   .     A
C676   O717    1.293   .     A
C676   C678    1.455   .     S
C677   C689    1.397   .     A
C678   C689    1.401   .     A
C678   C688    1.391   .     A
C679   C680    1.387   .     A
C679   H693    1.083   .     S
C680   C141    1.396   1_556 S
C680   H154    1.083   1_556 S
C681   O718    1.382   .     S
C682   O718    1.411   .     S
C682   H699    1.105   .     S
C682   H698    1.114   .     S
C682   H697    1.113   .     S
C683   C687    1.417   .     A
C684   C688    1.388   .     A
C685   C686    1.393   .     A
C685   C137    1.406   1_556 S
C685   C144    1.417   1_556 S
C686   C687    1.391   .     A
C686   H707    1.084   .     S
C687   H695    1.081   .     S
C688   H692    1.081   .     S
C689   H690    1.083   .     S
H691   C137    1.084   1_556 S
N708   Zn719   2.009   .     S
N709   Zn720   2.009   .     S
O710   Zn719   1.999   .     S
O711   Zn720   1.999   .     S
O712   Zn719   1.960   .     S
O713   Zn720   1.918   .     S
O714   Zn719   1.999   .     S
O715   Zn720   1.999   .     S
O716   Zn719   1.918   .     S
O717   Zn720   1.960   .     S
C721   O770    1.283   .     A
C721   O771    1.283   .     A
C721   C729    1.419   .     S
C722   C724    1.460   .     S
C722   C743    1.414   .     A
C722   C739    1.403   .     A
C723   C729    1.397   .     A
C723   H756    1.084   .     S
C723   C905    1.370   .     S
C724   O773    1.291   .     A
C724   O772    1.292   .     A
C725   C726    1.397   .     A
C725   H760    1.084   .     S
C726   C727    1.397   .     A
C726   C735    1.418   .     S
C727   H761    1.084   .     S
C728   H762    1.084   .     S
C728   C729    1.397   .     A
C728   C907    1.370   .     S
C730   N769    1.366   .     A
C730   H763    1.081   .     S
C730   C791    1.415   .     S
C731   H764    1.081   .     S
C731   N768    1.365   .     A
C731   C850    1.415   1_455 S
C732   C743    1.405   .     A
C732   C201    1.426   1_556 S
C732   C204    1.413   1_556 S
C733   N768    1.366   .     A
C733   H765    1.081   .     S
C733   C854    1.415   1_455 S
C734   H766    1.081   .     S
C734   N769    1.366   .     A
C734   C793    1.415   .     S
C735   O774    1.283   .     A
C735   O775    1.282   .     A
C736   O776    1.291   .     A
C736   O777    1.293   .     A
C736   C738    1.455   .     S
C737   C749    1.397   .     A
C738   C749    1.401   .     A
C738   C748    1.391   .     A
C739   C740    1.387   .     A
C739   H753    1.083   .     S
C740   C201    1.396   1_556 S
C740   H214    1.083   1_556 S
C741   O778    1.382   .     S
C742   O778    1.411   .     S
C742   H759    1.105   .     S
C742   H758    1.114   .     S
C742   H757    1.113   .     S
C743   C747    1.417   .     A
C744   C748    1.388   .     A
C745   C746    1.393   .     A
C745   C197    1.406   1_556 S
C745   C204    1.417   1_556 S
C746   C747    1.391   .     A
C746   H767    1.084   .     S
C747   H755    1.081   .     S
C748   H752    1.081   .     S
C749   H750    1.083   .     S
H751   C197    1.084   1_556 S
N768   Zn779   2.009   .     S
N769   Zn780   2.009   .     S
O770   Zn779   1.999   .     S
O771   Zn780   1.999   .     S
O772   Zn779   1.960   .     S
O773   Zn780   1.918   .     S
O774   Zn779   1.999   .     S
O775   Zn780   1.999   .     S
O776   Zn779   1.918   .     S
O777   Zn780   1.960   .     S
C781   O830    1.283   .     A
C781   O831    1.283   .     A
C781   C789    1.419   .     S
C782   C784    1.460   .     S
C782   C803    1.414   .     A
C782   C799    1.403   .     A
C783   C789    1.397   .     A
C783   H816    1.084   .     S
C783   C965    1.370   .     S
C784   O833    1.291   .     A
C784   O832    1.292   .     A
C785   C786    1.397   .     A
C785   H820    1.084   .     S
C786   C787    1.397   .     A
C786   C795    1.418   .     S
C787   H821    1.084   .     S
C788   H822    1.084   .     S
C788   C789    1.397   .     A
C788   C967    1.370   .     S
C790   N829    1.366   .     A
C790   H823    1.081   .     S
C790   C851    1.415   .     S
C791   H824    1.081   .     S
C791   N828    1.365   .     A
C792   C803    1.405   .     A
C792   C261    1.426   1_556 S
C792   C264    1.413   1_556 S
C793   N828    1.366   .     A
C793   H825    1.081   .     S
C794   H826    1.081   .     S
C794   N829    1.366   .     A
C794   C853    1.415   .     S
C795   O834    1.283   .     A
C795   O835    1.282   .     A
C796   O836    1.291   .     A
C796   O837    1.293   .     A
C796   C798    1.455   .     S
C797   C809    1.397   .     A
C798   C809    1.401   .     A
C798   C808    1.391   .     A
C799   C800    1.387   .     A
C799   H813    1.083   .     S
C800   C261    1.396   1_556 S
C800   H274    1.083   1_556 S
C801   O838    1.382   .     S
C802   O838    1.411   .     S
C802   H819    1.105   .     S
C802   H818    1.114   .     S
C802   H817    1.113   .     S
C803   C807    1.417   .     A
C804   C808    1.388   .     A
C805   C806    1.393   .     A
C805   C257    1.406   1_556 S
C805   C264    1.417   1_556 S
C806   C807    1.391   .     A
C806   H827    1.084   .     S
C807   H815    1.081   .     S
C808   H812    1.081   .     S
C809   H810    1.083   .     S
H811   C257    1.084   1_556 S
N828   Zn839   2.009   .     S
N829   Zn840   2.009   .     S
O830   Zn839   1.999   .     S
O831   Zn840   1.999   .     S
O832   Zn839   1.960   .     S
O833   Zn840   1.918   .     S
O834   Zn839   1.999   .     S
O835   Zn840   1.999   .     S
O836   Zn839   1.918   .     S
O837   Zn840   1.960   .     S
C841   O890    1.283   .     A
C841   O891    1.283   .     A
C841   C849    1.419   .     S
C842   C844    1.460   .     S
C842   C863    1.414   .     A
C842   C859    1.403   .     A
C843   C849    1.397   .     A
C843   H876    1.084   .     S
C843   C1025   1.370   .     S
C844   O893    1.291   .     A
C844   O892    1.292   .     A
C845   C846    1.397   .     A
C845   H880    1.084   .     S
C846   C847    1.397   .     A
C846   C855    1.418   .     S
C847   H881    1.084   .     S
C848   H882    1.084   .     S
C848   C849    1.397   .     A
C848   C1027   1.370   .     S
C850   N889    1.366   .     A
C850   H883    1.081   .     S
C850   C731    1.415   1_655 S
C851   H884    1.081   .     S
C851   N888    1.365   .     A
C852   C863    1.405   .     A
C852   C321    1.426   1_556 S
C852   C324    1.413   1_556 S
C853   N888    1.366   .     A
C853   H885    1.081   .     S
C854   H886    1.081   .     S
C854   N889    1.366   .     A
C854   C733    1.415   1_655 S
C855   O894    1.283   .     A
C855   O895    1.282   .     A
C856   O896    1.291   .     A
C856   O897    1.293   .     A
C856   C858    1.455   .     S
C857   C869    1.397   .     A
C858   C869    1.401   .     A
C858   C868    1.391   .     A
C859   C860    1.387   .     A
C859   H873    1.083   .     S
C860   C321    1.396   1_556 S
C860   H334    1.083   1_556 S
C861   O898    1.382   .     S
C862   O898    1.411   .     S
C862   H879    1.105   .     S
C862   H878    1.114   .     S
C862   H877    1.113   .     S
C863   C867    1.417   .     A
C864   C868    1.388   .     A
C865   C866    1.393   .     A
C865   C317    1.406   1_556 S
C865   C324    1.417   1_556 S
C866   C867    1.391   .     A
C866   H887    1.084   .     S
C867   H875    1.081   .     S
C868   H872    1.081   .     S
C869   H870    1.083   .     S
H871   C317    1.084   1_556 S
N888   Zn899   2.009   .     S
N889   Zn900   2.009   .     S
O890   Zn899   1.999   .     S
O891   Zn900   1.999   .     S
O892   Zn899   1.960   .     S
O893   Zn900   1.918   .     S
O894   Zn899   1.999   .     S
O895   Zn900   1.999   .     S
O896   Zn899   1.918   .     S
O897   Zn900   1.960   .     S
C901   O950    1.283   .     A
C901   O951    1.283   .     A
C901   C909    1.419   .     S
C902   C904    1.460   .     S
C902   C923    1.414   .     A
C902   C919    1.403   .     A
C903   C909    1.397   .     A
C903   H936    1.084   .     S
C903   C545    1.370   1_565 S
C904   O953    1.291   .     A
C904   O952    1.292   .     A
C905   C906    1.397   .     A
C905   H940    1.084   .     S
C906   C907    1.397   .     A
C906   C915    1.418   .     S
C907   H941    1.084   .     S
C908   H942    1.084   .     S
C908   C909    1.397   .     A
C908   C547    1.370   1_565 S
C910   N949    1.366   .     A
C910   H943    1.081   .     S
C910   C971    1.415   .     S
C911   H944    1.081   .     S
C911   N948    1.365   .     A
C911   C1030   1.415   1_455 S
C912   C923    1.405   .     A
C912   C381    1.426   1_556 S
C912   C384    1.413   1_556 S
C913   N948    1.366   .     A
C913   H945    1.081   .     S
C913   C1034   1.415   1_455 S
C914   H946    1.081   .     S
C914   N949    1.366   .     A
C914   C973    1.415   .     S
C915   O954    1.283   .     A
C915   O955    1.282   .     A
C916   O956    1.291   .     A
C916   O957    1.293   .     A
C916   C918    1.455   .     S
C917   C929    1.397   .     A
C918   C929    1.401   .     A
C918   C928    1.391   .     A
C919   C920    1.387   .     A
C919   H933    1.083   .     S
C920   C381    1.396   1_556 S
C920   H394    1.083   1_556 S
C921   O958    1.382   .     S
C922   O958    1.411   .     S
C922   H939    1.105   .     S
C922   H938    1.114   .     S
C922   H937    1.113   .     S
C923   C927    1.417   .     A
C924   C928    1.388   .     A
C925   C926    1.393   .     A
C925   C377    1.406   1_556 S
C925   C384    1.417   1_556 S
C926   C927    1.391   .     A
C926   H947    1.084   .     S
C927   H935    1.081   .     S
C928   H932    1.081   .     S
C929   H930    1.083   .     S
H931   C377    1.084   1_556 S
N948   Zn959   2.009   .     S
N949   Zn960   2.009   .     S
O950   Zn959   1.999   .     S
O951   Zn960   1.999   .     S
O952   Zn959   1.960   .     S
O953   Zn960   1.918   .     S
O954   Zn959   1.999   .     S
O955   Zn960   1.999   .     S
O956   Zn959   1.918   .     S
O957   Zn960   1.960   .     S
C961   O1010   1.283   .     A
C961   O1011   1.283   .     A
C961   C969    1.419   .     S
C962   C964    1.460   .     S
C962   C983    1.414   .     A
C962   C979    1.403   .     A
C963   C969    1.397   .     A
C963   H996    1.084   .     S
C963   C605    1.370   1_565 S
C964   O1013   1.291   .     A
C964   O1012   1.292   .     A
C965   C966    1.397   .     A
C965   H1000   1.084   .     S
C966   C967    1.397   .     A
C966   C975    1.418   .     S
C967   H1001   1.084   .     S
C968   H1002   1.084   .     S
C968   C969    1.397   .     A
C968   C607    1.370   1_565 S
C970   N1009   1.366   .     A
C970   H1003   1.081   .     S
C970   C1031   1.415   .     S
C971   H1004   1.081   .     S
C971   N1008   1.365   .     A
C972   C983    1.405   .     A
C972   C441    1.426   1_556 S
C972   C444    1.413   1_556 S
C973   N1008   1.366   .     A
C973   H1005   1.081   .     S
C974   H1006   1.081   .     S
C974   N1009   1.366   .     A
C974   C1033   1.415   .     S
C975   O1014   1.283   .     A
C975   O1015   1.282   .     A
C976   O1016   1.291   .     A
C976   O1017   1.293   .     A
C976   C978    1.455   .     S
C977   C989    1.397   .     A
C978   C989    1.401   .     A
C978   C988    1.391   .     A
C979   C980    1.387   .     A
C979   H993    1.083   .     S
C980   C441    1.396   1_556 S
C980   H454    1.083   1_556 S
C981   O1018   1.382   .     S
C982   O1018   1.411   .     S
C982   H999    1.105   .     S
C982   H998    1.114   .     S
C982   H997    1.113   .     S
C983   C987    1.417   .     A
C984   C988    1.388   .     A
C985   C986    1.393   .     A
C985   C437    1.406   1_556 S
C985   C444    1.417   1_556 S
C986   C987    1.391   .     A
C986   H1007   1.084   .     S
C987   H995    1.081   .     S
C988   H992    1.081   .     S
C989   H990    1.083   .     S
H991   C437    1.084   1_556 S
N1008  Zn1019  2.009   .     S
N1009  Zn1020  2.009   .     S
O1010  Zn1019  1.999   .     S
O1011  Zn1020  1.999   .     S
O1012  Zn1019  1.960   .     S
O1013  Zn1020  1.918   .     S
O1014  Zn1019  1.999   .     S
O1015  Zn1020  1.999   .     S
O1016  Zn1019  1.918   .     S
O1017  Zn1020  1.960   .     S
C1021  O1070   1.283   .     A
C1021  O1071   1.283   .     A
C1021  C1029   1.419   .     S
C1022  C1024   1.460   .     S
C1022  C1043   1.414   .     A
C1022  C1039   1.403   .     A
C1023  C1029   1.397   .     A
C1023  H1056   1.084   .     S
C1023  C665    1.370   1_565 S
C1024  O1073   1.291   .     A
C1024  O1072   1.292   .     A
C1025  C1026   1.397   .     A
C1025  H1060   1.084   .     S
C1026  C1027   1.397   .     A
C1026  C1035   1.418   .     S
C1027  H1061   1.084   .     S
C1028  H1062   1.084   .     S
C1028  C1029   1.397   .     A
C1028  C667    1.370   1_565 S
C1030  N1069   1.366   .     A
C1030  H1063   1.081   .     S
C1030  C911    1.415   1_655 S
C1031  H1064   1.081   .     S
C1031  N1068   1.365   .     A
C1032  C1043   1.405   .     A
C1032  C501    1.426   1_556 S
C1032  C504    1.413   1_556 S
C1033  N1068   1.366   .     A
C1033  H1065   1.081   .     S
C1034  H1066   1.081   .     S
C1034  N1069   1.366   .     A
C1034  C913    1.415   1_655 S
C1035  O1074   1.283   .     A
C1035  O1075   1.282   .     A
C1036  O1076   1.291   .     A
C1036  O1077   1.293   .     A
C1036  C1038   1.455   .     S
C1037  C1049   1.397   .     A
C1038  C1049   1.401   .     A
C1038  C1048   1.391   .     A
C1039  C1040   1.387   .     A
C1039  H1053   1.083   .     S
C1040  C501    1.396   1_556 S
C1040  H514    1.083   1_556 S
C1041  O1078   1.382   .     S
C1042  O1078   1.411   .     S
C1042  H1059   1.105   .     S
C1042  H1058   1.114   .     S
C1042  H1057   1.113   .     S
C1043  C1047   1.417   .     A
C1044  C1048   1.388   .     A
C1045  C1046   1.393   .     A
C1045  C497    1.406   1_556 S
C1045  C504    1.417   1_556 S
C1046  C1047   1.391   .     A
C1046  H1067   1.084   .     S
C1047  H1055   1.081   .     S
C1048  H1052   1.081   .     S
C1049  H1050   1.083   .     S
H1051  C497    1.084   1_556 S
N1068  Zn1079  2.009   .     S
N1069  Zn1080  2.009   .     S
O1070  Zn1079  1.999   .     S
O1071  Zn1080  1.999   .     S
O1072  Zn1079  1.960   .     S
O1073  Zn1080  1.918   .     S
O1074  Zn1079  1.999   .     S
O1075  Zn1080  1.999   .     S
O1076  Zn1079  1.918   .     S
O1077  Zn1080  1.960   .     S
