data_str_m2_o1_o10_pcu_sym.142
_audit_creation_date              2020-01-03
_audit_creation_method            'Materials Studio'
_symmetry_space_group_name_H-M    'P1'
_symmetry_Int_Tables_number       1
_symmetry_cell_setting            triclinic
loop_
_symmetry_equiv_pos_as_xyz
  x,y,z
_cell_length_a                    26.3619
_cell_length_b                    32.4140
_cell_length_c                    28.6549
_cell_angle_alpha                 90.7755
_cell_angle_beta                  97.5242
_cell_angle_gamma                 90.8055
loop_
_atom_site_label
_atom_site_type_symbol
_atom_site_fract_x
_atom_site_fract_y
_atom_site_fract_z
_atom_site_U_iso_or_equiv
_atom_site_adp_type
_atom_site_occupancy
C1     C     0.16756   0.08746   0.16646   0.00000  Uiso   1.00
C2     C     0.16578   0.24588   0.16687   0.00000  Uiso   1.00
C3     C     0.06816   0.16696   0.15495   0.00000  Uiso   1.00
C4     C     0.26517   0.16637   0.17839   0.00000  Uiso   1.00
C5     C     0.01393   0.17294   0.14973   0.00000  Uiso   1.00
C6     C     0.31941   0.16039   0.18360   0.00000  Uiso   1.00
C7     C     0.19450   0.02047   0.13498   0.00000  Uiso   1.00
C8     C     0.13883   0.31287   0.19835   0.00000  Uiso   1.00
C9     C     0.19305   0.31108   0.13573   0.00000  Uiso   1.00
C10    C     0.14029   0.02225   0.19761   0.00000  Uiso   1.00
C11    C     0.16561   0.29050   0.16727   0.00000  Uiso   1.00
C12    C     0.16772   0.04284   0.16606   0.00000  Uiso   1.00
C13    C     0.13570   0.13989   0.02011   0.00000  Uiso   1.00
C14    C     0.19763   0.19345   0.31322   0.00000  Uiso   1.00
C15    C     0.13609   0.13990   0.30412   0.00000  Uiso   1.00
C16    C     0.19725   0.19343   0.02921   0.00000  Uiso   1.00
Cu17   Cu    0.16667   0.16667   0.21355   0.00000  Uiso   1.00
Cu18   Cu    0.16667   0.16666   0.11978   0.00000  Uiso   1.00
H19    H     0.21428   0.29387   0.11219   0.00000  Uiso   1.00
H20    H     0.11906   0.03946   0.22115   0.00000  Uiso   1.00
H21    H     0.11196   0.11829   0.28196   0.00000  Uiso   1.00
H22    H     0.22137   0.21504   0.05138   0.00000  Uiso   1.00
N23    N     0.16668   0.16668   0.28403   0.00000  Uiso   1.00
N24    N     0.16665   0.16666   0.04931   0.00000  Uiso   1.00
O25    O     0.16666   0.10655   0.20625   0.00000  Uiso   1.00
O26    O     0.16667   0.22678   0.12709   0.00000  Uiso   1.00
O27    O     0.16666   0.10654   0.12706   0.00000  Uiso   1.00
O28    O     0.16667   0.22679   0.20628   0.00000  Uiso   1.00
O29    O     0.09161   0.16667   0.19712   0.00000  Uiso   1.00
O30    O     0.24172   0.16666   0.13621   0.00000  Uiso   1.00
O31    O     0.09161   0.16666   0.11793   0.00000  Uiso   1.00
O32    O     0.24172   0.16667   0.21540   0.00000  Uiso   1.00
Cl33   Cl    0.32308   0.20376   0.10138   0.00000  Uiso   1.00
Cl34   Cl    0.01025   0.12957   0.23195   0.00000  Uiso   1.00
Cl35   Cl    0.23267   0.04429   0.09653   0.00000  Uiso   1.00
Cl36   Cl    0.10066   0.28905   0.23680   0.00000  Uiso   1.00
Cl37   Cl    0.09390   0.10470   0.04216   0.00000  Uiso   1.00
Cl38   Cl    0.23943   0.22863   0.29117   0.00000  Uiso   1.00
C39    C     0.50089   0.08746   0.16646   0.00000  Uiso   1.00
C40    C     0.49911   0.24588   0.16687   0.00000  Uiso   1.00
C41    C     0.40149   0.16696   0.15495   0.00000  Uiso   1.00
C42    C     0.59851   0.16637   0.17839   0.00000  Uiso   1.00
C43    C     0.34726   0.17294   0.14973   0.00000  Uiso   1.00
C44    C     0.65274   0.16039   0.18360   0.00000  Uiso   1.00
C45    C     0.52783   0.02047   0.13498   0.00000  Uiso   1.00
C46    C     0.47217   0.31287   0.19835   0.00000  Uiso   1.00
C47    C     0.52638   0.31108   0.13573   0.00000  Uiso   1.00
C48    C     0.47362   0.02225   0.19761   0.00000  Uiso   1.00
C49    C     0.49895   0.29050   0.16727   0.00000  Uiso   1.00
C50    C     0.50105   0.04284   0.16606   0.00000  Uiso   1.00
C51    C     0.46904   0.13989   0.02011   0.00000  Uiso   1.00
C52    C     0.53096   0.19345   0.31322   0.00000  Uiso   1.00
C53    C     0.46942   0.13990   0.30412   0.00000  Uiso   1.00
C54    C     0.53058   0.19343   0.02921   0.00000  Uiso   1.00
Cu55   Cu    0.50000   0.16667   0.21355   0.00000  Uiso   1.00
Cu56   Cu    0.50000   0.16666   0.11978   0.00000  Uiso   1.00
H57    H     0.54761   0.29387   0.11219   0.00000  Uiso   1.00
H58    H     0.45239   0.03946   0.22115   0.00000  Uiso   1.00
H59    H     0.44529   0.11829   0.28196   0.00000  Uiso   1.00
H60    H     0.55471   0.21504   0.05138   0.00000  Uiso   1.00
N61    N     0.50001   0.16668   0.28403   0.00000  Uiso   1.00
N62    N     0.49999   0.16666   0.04931   0.00000  Uiso   1.00
O63    O     0.50000   0.10655   0.20625   0.00000  Uiso   1.00
O64    O     0.50000   0.22678   0.12709   0.00000  Uiso   1.00
O65    O     0.50000   0.10654   0.12706   0.00000  Uiso   1.00
O66    O     0.50000   0.22679   0.20628   0.00000  Uiso   1.00
O67    O     0.42495   0.16667   0.19712   0.00000  Uiso   1.00
O68    O     0.57505   0.16666   0.13621   0.00000  Uiso   1.00
O69    O     0.42494   0.16666   0.11793   0.00000  Uiso   1.00
O70    O     0.57506   0.16667   0.21540   0.00000  Uiso   1.00
Cl71   Cl    0.65642   0.20376   0.10138   0.00000  Uiso   1.00
Cl72   Cl    0.34358   0.12957   0.23195   0.00000  Uiso   1.00
Cl73   Cl    0.56601   0.04429   0.09653   0.00000  Uiso   1.00
Cl74   Cl    0.43399   0.28905   0.23680   0.00000  Uiso   1.00
Cl75   Cl    0.42724   0.10470   0.04216   0.00000  Uiso   1.00
Cl76   Cl    0.57276   0.22863   0.29117   0.00000  Uiso   1.00
C77    C     0.83422   0.08746   0.16646   0.00000  Uiso   1.00
C78    C     0.83244   0.24588   0.16687   0.00000  Uiso   1.00
C79    C     0.73483   0.16696   0.15495   0.00000  Uiso   1.00
C80    C     0.93184   0.16637   0.17839   0.00000  Uiso   1.00
C81    C     0.68059   0.17294   0.14973   0.00000  Uiso   1.00
C82    C     0.98607   0.16039   0.18360   0.00000  Uiso   1.00
C83    C     0.86117   0.02047   0.13498   0.00000  Uiso   1.00
C84    C     0.80550   0.31287   0.19835   0.00000  Uiso   1.00
C85    C     0.85971   0.31108   0.13573   0.00000  Uiso   1.00
C86    C     0.80695   0.02225   0.19761   0.00000  Uiso   1.00
C87    C     0.83228   0.29050   0.16727   0.00000  Uiso   1.00
C88    C     0.83439   0.04284   0.16606   0.00000  Uiso   1.00
C89    C     0.80237   0.13989   0.02011   0.00000  Uiso   1.00
C90    C     0.86430   0.19345   0.31322   0.00000  Uiso   1.00
C91    C     0.80275   0.13990   0.30412   0.00000  Uiso   1.00
C92    C     0.86391   0.19343   0.02921   0.00000  Uiso   1.00
Cu93   Cu    0.83333   0.16667   0.21355   0.00000  Uiso   1.00
Cu94   Cu    0.83333   0.16666   0.11978   0.00000  Uiso   1.00
H95    H     0.88094   0.29387   0.11219   0.00000  Uiso   1.00
H96    H     0.78572   0.03946   0.22115   0.00000  Uiso   1.00
H97    H     0.77863   0.11829   0.28196   0.00000  Uiso   1.00
H98    H     0.88804   0.21504   0.05138   0.00000  Uiso   1.00
N99    N     0.83335   0.16668   0.28403   0.00000  Uiso   1.00
N100   N     0.83332   0.16666   0.04931   0.00000  Uiso   1.00
O101   O     0.83333   0.10655   0.20625   0.00000  Uiso   1.00
O102   O     0.83334   0.22678   0.12709   0.00000  Uiso   1.00
O103   O     0.83333   0.10654   0.12706   0.00000  Uiso   1.00
O104   O     0.83334   0.22679   0.20628   0.00000  Uiso   1.00
O105   O     0.75828   0.16667   0.19712   0.00000  Uiso   1.00
O106   O     0.90839   0.16666   0.13621   0.00000  Uiso   1.00
O107   O     0.75828   0.16666   0.11793   0.00000  Uiso   1.00
O108   O     0.90839   0.16667   0.21540   0.00000  Uiso   1.00
Cl109  Cl    0.98975   0.20376   0.10138   0.00000  Uiso   1.00
Cl110  Cl    0.67692   0.12957   0.23195   0.00000  Uiso   1.00
Cl111  Cl    0.89934   0.04429   0.09653   0.00000  Uiso   1.00
Cl112  Cl    0.76733   0.28905   0.23680   0.00000  Uiso   1.00
Cl113  Cl    0.76057   0.10470   0.04216   0.00000  Uiso   1.00
Cl114  Cl    0.90610   0.22863   0.29117   0.00000  Uiso   1.00
C115   C     0.16756   0.42079   0.16646   0.00000  Uiso   1.00
C116   C     0.16578   0.57921   0.16687   0.00000  Uiso   1.00
C117   C     0.06816   0.50030   0.15495   0.00000  Uiso   1.00
C118   C     0.26517   0.49970   0.17839   0.00000  Uiso   1.00
C119   C     0.01393   0.50628   0.14973   0.00000  Uiso   1.00
C120   C     0.31941   0.49372   0.18360   0.00000  Uiso   1.00
C121   C     0.19450   0.35380   0.13498   0.00000  Uiso   1.00
C122   C     0.13883   0.64620   0.19835   0.00000  Uiso   1.00
C123   C     0.19305   0.64441   0.13573   0.00000  Uiso   1.00
C124   C     0.14029   0.35559   0.19761   0.00000  Uiso   1.00
C125   C     0.16561   0.62383   0.16727   0.00000  Uiso   1.00
C126   C     0.16772   0.37617   0.16606   0.00000  Uiso   1.00
C127   C     0.13570   0.47322   0.02011   0.00000  Uiso   1.00
C128   C     0.19763   0.52678   0.31322   0.00000  Uiso   1.00
C129   C     0.13609   0.47324   0.30412   0.00000  Uiso   1.00
C130   C     0.19725   0.52676   0.02921   0.00000  Uiso   1.00
Cu131  Cu    0.16667   0.50001   0.21355   0.00000  Uiso   1.00
Cu132  Cu    0.16667   0.49999   0.11978   0.00000  Uiso   1.00
H133   H     0.21428   0.62720   0.11219   0.00000  Uiso   1.00
H134   H     0.11906   0.37280   0.22115   0.00000  Uiso   1.00
H135   H     0.11196   0.45163   0.28196   0.00000  Uiso   1.00
H136   H     0.22137   0.54837   0.05138   0.00000  Uiso   1.00
N137   N     0.16668   0.50001   0.28403   0.00000  Uiso   1.00
N138   N     0.16665   0.49999   0.04931   0.00000  Uiso   1.00
O139   O     0.16666   0.43989   0.20625   0.00000  Uiso   1.00
O140   O     0.16667   0.56011   0.12709   0.00000  Uiso   1.00
O141   O     0.16666   0.43988   0.12706   0.00000  Uiso   1.00
O142   O     0.16667   0.56012   0.20628   0.00000  Uiso   1.00
O143   O     0.09161   0.50000   0.19712   0.00000  Uiso   1.00
O144   O     0.24172   0.50000   0.13621   0.00000  Uiso   1.00
O145   O     0.09161   0.49999   0.11793   0.00000  Uiso   1.00
O146   O     0.24172   0.50001   0.21540   0.00000  Uiso   1.00
Cl147  Cl    0.32308   0.53709   0.10138   0.00000  Uiso   1.00
Cl148  Cl    0.01025   0.46291   0.23195   0.00000  Uiso   1.00
Cl149  Cl    0.23267   0.37762   0.09653   0.00000  Uiso   1.00
Cl150  Cl    0.10066   0.62238   0.23680   0.00000  Uiso   1.00
Cl151  Cl    0.09390   0.43804   0.04216   0.00000  Uiso   1.00
Cl152  Cl    0.23943   0.56196   0.29117   0.00000  Uiso   1.00
C153   C     0.50089   0.42079   0.16646   0.00000  Uiso   1.00
C154   C     0.49911   0.57921   0.16687   0.00000  Uiso   1.00
C155   C     0.40149   0.50030   0.15495   0.00000  Uiso   1.00
C156   C     0.59851   0.49970   0.17839   0.00000  Uiso   1.00
C157   C     0.34726   0.50628   0.14973   0.00000  Uiso   1.00
C158   C     0.65274   0.49372   0.18360   0.00000  Uiso   1.00
C159   C     0.52783   0.35380   0.13498   0.00000  Uiso   1.00
C160   C     0.47217   0.64620   0.19835   0.00000  Uiso   1.00
C161   C     0.52638   0.64441   0.13573   0.00000  Uiso   1.00
C162   C     0.47362   0.35559   0.19761   0.00000  Uiso   1.00
C163   C     0.49895   0.62383   0.16727   0.00000  Uiso   1.00
C164   C     0.50105   0.37617   0.16606   0.00000  Uiso   1.00
C165   C     0.46904   0.47322   0.02011   0.00000  Uiso   1.00
C166   C     0.53096   0.52678   0.31322   0.00000  Uiso   1.00
C167   C     0.46942   0.47324   0.30412   0.00000  Uiso   1.00
C168   C     0.53058   0.52676   0.02921   0.00000  Uiso   1.00
Cu169  Cu    0.50000   0.50001   0.21355   0.00000  Uiso   1.00
Cu170  Cu    0.50000   0.49999   0.11978   0.00000  Uiso   1.00
H171   H     0.54761   0.62720   0.11219   0.00000  Uiso   1.00
H172   H     0.45239   0.37280   0.22115   0.00000  Uiso   1.00
H173   H     0.44529   0.45163   0.28196   0.00000  Uiso   1.00
H174   H     0.55471   0.54837   0.05138   0.00000  Uiso   1.00
N175   N     0.50001   0.50001   0.28403   0.00000  Uiso   1.00
N176   N     0.49999   0.49999   0.04931   0.00000  Uiso   1.00
O177   O     0.50000   0.43989   0.20625   0.00000  Uiso   1.00
O178   O     0.50000   0.56011   0.12709   0.00000  Uiso   1.00
O179   O     0.50000   0.43988   0.12706   0.00000  Uiso   1.00
O180   O     0.50000   0.56012   0.20628   0.00000  Uiso   1.00
O181   O     0.42495   0.50000   0.19712   0.00000  Uiso   1.00
O182   O     0.57505   0.50000   0.13621   0.00000  Uiso   1.00
O183   O     0.42494   0.49999   0.11793   0.00000  Uiso   1.00
O184   O     0.57506   0.50001   0.21540   0.00000  Uiso   1.00
Cl185  Cl    0.65642   0.53709   0.10138   0.00000  Uiso   1.00
Cl186  Cl    0.34358   0.46291   0.23195   0.00000  Uiso   1.00
Cl187  Cl    0.56601   0.37762   0.09653   0.00000  Uiso   1.00
Cl188  Cl    0.43399   0.62238   0.23680   0.00000  Uiso   1.00
Cl189  Cl    0.42724   0.43804   0.04216   0.00000  Uiso   1.00
Cl190  Cl    0.57276   0.56196   0.29117   0.00000  Uiso   1.00
C191   C     0.83422   0.42079   0.16646   0.00000  Uiso   1.00
C192   C     0.83244   0.57921   0.16687   0.00000  Uiso   1.00
C193   C     0.73483   0.50030   0.15495   0.00000  Uiso   1.00
C194   C     0.93184   0.49970   0.17839   0.00000  Uiso   1.00
C195   C     0.68059   0.50628   0.14973   0.00000  Uiso   1.00
C196   C     0.98607   0.49372   0.18360   0.00000  Uiso   1.00
C197   C     0.86117   0.35380   0.13498   0.00000  Uiso   1.00
C198   C     0.80550   0.64620   0.19835   0.00000  Uiso   1.00
C199   C     0.85971   0.64441   0.13573   0.00000  Uiso   1.00
C200   C     0.80695   0.35559   0.19761   0.00000  Uiso   1.00
C201   C     0.83228   0.62383   0.16727   0.00000  Uiso   1.00
C202   C     0.83439   0.37617   0.16606   0.00000  Uiso   1.00
C203   C     0.80237   0.47322   0.02011   0.00000  Uiso   1.00
C204   C     0.86430   0.52678   0.31322   0.00000  Uiso   1.00
C205   C     0.80275   0.47324   0.30412   0.00000  Uiso   1.00
C206   C     0.86391   0.52676   0.02921   0.00000  Uiso   1.00
Cu207  Cu    0.83333   0.50001   0.21355   0.00000  Uiso   1.00
Cu208  Cu    0.83333   0.49999   0.11978   0.00000  Uiso   1.00
H209   H     0.88094   0.62720   0.11219   0.00000  Uiso   1.00
H210   H     0.78572   0.37280   0.22115   0.00000  Uiso   1.00
H211   H     0.77863   0.45163   0.28196   0.00000  Uiso   1.00
H212   H     0.88804   0.54837   0.05138   0.00000  Uiso   1.00
N213   N     0.83335   0.50001   0.28403   0.00000  Uiso   1.00
N214   N     0.83332   0.49999   0.04931   0.00000  Uiso   1.00
O215   O     0.83333   0.43989   0.20625   0.00000  Uiso   1.00
O216   O     0.83334   0.56011   0.12709   0.00000  Uiso   1.00
O217   O     0.83333   0.43988   0.12706   0.00000  Uiso   1.00
O218   O     0.83334   0.56012   0.20628   0.00000  Uiso   1.00
O219   O     0.75828   0.50000   0.19712   0.00000  Uiso   1.00
O220   O     0.90839   0.50000   0.13621   0.00000  Uiso   1.00
O221   O     0.75828   0.49999   0.11793   0.00000  Uiso   1.00
O222   O     0.90839   0.50001   0.21540   0.00000  Uiso   1.00
Cl223  Cl    0.98975   0.53709   0.10138   0.00000  Uiso   1.00
Cl224  Cl    0.67692   0.46291   0.23195   0.00000  Uiso   1.00
Cl225  Cl    0.89934   0.37762   0.09653   0.00000  Uiso   1.00
Cl226  Cl    0.76733   0.62238   0.23680   0.00000  Uiso   1.00
Cl227  Cl    0.76057   0.43804   0.04216   0.00000  Uiso   1.00
Cl228  Cl    0.90610   0.56196   0.29117   0.00000  Uiso   1.00
C229   C     0.16756   0.75412   0.16646   0.00000  Uiso   1.00
C230   C     0.16578   0.91254   0.16687   0.00000  Uiso   1.00
C231   C     0.06816   0.83363   0.15495   0.00000  Uiso   1.00
C232   C     0.26517   0.83304   0.17839   0.00000  Uiso   1.00
C233   C     0.01393   0.83961   0.14973   0.00000  Uiso   1.00
C234   C     0.31941   0.82706   0.18360   0.00000  Uiso   1.00
C235   C     0.19450   0.68713   0.13498   0.00000  Uiso   1.00
C236   C     0.13883   0.97953   0.19835   0.00000  Uiso   1.00
C237   C     0.19305   0.97775   0.13573   0.00000  Uiso   1.00
C238   C     0.14029   0.68892   0.19761   0.00000  Uiso   1.00
C239   C     0.16561   0.95716   0.16727   0.00000  Uiso   1.00
C240   C     0.16772   0.70950   0.16606   0.00000  Uiso   1.00
C241   C     0.13570   0.80655   0.02011   0.00000  Uiso   1.00
C242   C     0.19763   0.86011   0.31322   0.00000  Uiso   1.00
C243   C     0.13609   0.80657   0.30412   0.00000  Uiso   1.00
C244   C     0.19725   0.86009   0.02921   0.00000  Uiso   1.00
Cu245  Cu    0.16667   0.83334   0.21355   0.00000  Uiso   1.00
Cu246  Cu    0.16667   0.83333   0.11978   0.00000  Uiso   1.00
H247   H     0.21428   0.96054   0.11219   0.00000  Uiso   1.00
H248   H     0.11906   0.70613   0.22115   0.00000  Uiso   1.00
H249   H     0.11196   0.78496   0.28196   0.00000  Uiso   1.00
H250   H     0.22137   0.88171   0.05138   0.00000  Uiso   1.00
N251   N     0.16668   0.83334   0.28403   0.00000  Uiso   1.00
N252   N     0.16665   0.83332   0.04931   0.00000  Uiso   1.00
O253   O     0.16666   0.77322   0.20625   0.00000  Uiso   1.00
O254   O     0.16667   0.89345   0.12709   0.00000  Uiso   1.00
O255   O     0.16666   0.77321   0.12706   0.00000  Uiso   1.00
O256   O     0.16667   0.89346   0.20628   0.00000  Uiso   1.00
O257   O     0.09161   0.83334   0.19712   0.00000  Uiso   1.00
O258   O     0.24172   0.83333   0.13621   0.00000  Uiso   1.00
O259   O     0.09161   0.83333   0.11793   0.00000  Uiso   1.00
O260   O     0.24172   0.83334   0.21540   0.00000  Uiso   1.00
Cl261  Cl    0.32308   0.87043   0.10138   0.00000  Uiso   1.00
Cl262  Cl    0.01025   0.79624   0.23195   0.00000  Uiso   1.00
Cl263  Cl    0.23267   0.71095   0.09653   0.00000  Uiso   1.00
Cl264  Cl    0.10066   0.95571   0.23680   0.00000  Uiso   1.00
Cl265  Cl    0.09390   0.77137   0.04216   0.00000  Uiso   1.00
Cl266  Cl    0.23943   0.89530   0.29117   0.00000  Uiso   1.00
C267   C     0.50089   0.75412   0.16646   0.00000  Uiso   1.00
C268   C     0.49911   0.91254   0.16687   0.00000  Uiso   1.00
C269   C     0.40149   0.83363   0.15495   0.00000  Uiso   1.00
C270   C     0.59851   0.83304   0.17839   0.00000  Uiso   1.00
C271   C     0.34726   0.83961   0.14973   0.00000  Uiso   1.00
C272   C     0.65274   0.82706   0.18360   0.00000  Uiso   1.00
C273   C     0.52783   0.68713   0.13498   0.00000  Uiso   1.00
C274   C     0.47217   0.97953   0.19835   0.00000  Uiso   1.00
C275   C     0.52638   0.97775   0.13573   0.00000  Uiso   1.00
C276   C     0.47362   0.68892   0.19761   0.00000  Uiso   1.00
C277   C     0.49895   0.95716   0.16727   0.00000  Uiso   1.00
C278   C     0.50105   0.70950   0.16606   0.00000  Uiso   1.00
C279   C     0.46904   0.80655   0.02011   0.00000  Uiso   1.00
C280   C     0.53096   0.86011   0.31322   0.00000  Uiso   1.00
C281   C     0.46942   0.80657   0.30412   0.00000  Uiso   1.00
C282   C     0.53058   0.86009   0.02921   0.00000  Uiso   1.00
Cu283  Cu    0.50000   0.83334   0.21355   0.00000  Uiso   1.00
Cu284  Cu    0.50000   0.83333   0.11978   0.00000  Uiso   1.00
H285   H     0.54761   0.96054   0.11219   0.00000  Uiso   1.00
H286   H     0.45239   0.70613   0.22115   0.00000  Uiso   1.00
H287   H     0.44529   0.78496   0.28196   0.00000  Uiso   1.00
H288   H     0.55471   0.88171   0.05138   0.00000  Uiso   1.00
N289   N     0.50001   0.83334   0.28403   0.00000  Uiso   1.00
N290   N     0.49999   0.83332   0.04931   0.00000  Uiso   1.00
O291   O     0.50000   0.77322   0.20625   0.00000  Uiso   1.00
O292   O     0.50000   0.89345   0.12709   0.00000  Uiso   1.00
O293   O     0.50000   0.77321   0.12706   0.00000  Uiso   1.00
O294   O     0.50000   0.89346   0.20628   0.00000  Uiso   1.00
O295   O     0.42495   0.83334   0.19712   0.00000  Uiso   1.00
O296   O     0.57505   0.83333   0.13621   0.00000  Uiso   1.00
O297   O     0.42494   0.83333   0.11793   0.00000  Uiso   1.00
O298   O     0.57506   0.83334   0.21540   0.00000  Uiso   1.00
Cl299  Cl    0.65642   0.87043   0.10138   0.00000  Uiso   1.00
Cl300  Cl    0.34358   0.79624   0.23195   0.00000  Uiso   1.00
Cl301  Cl    0.56601   0.71095   0.09653   0.00000  Uiso   1.00
Cl302  Cl    0.43399   0.95571   0.23680   0.00000  Uiso   1.00
Cl303  Cl    0.42724   0.77137   0.04216   0.00000  Uiso   1.00
Cl304  Cl    0.57276   0.89530   0.29117   0.00000  Uiso   1.00
C305   C     0.83422   0.75412   0.16646   0.00000  Uiso   1.00
C306   C     0.83244   0.91254   0.16687   0.00000  Uiso   1.00
C307   C     0.73483   0.83363   0.15495   0.00000  Uiso   1.00
C308   C     0.93184   0.83304   0.17839   0.00000  Uiso   1.00
C309   C     0.68059   0.83961   0.14973   0.00000  Uiso   1.00
C310   C     0.98607   0.82706   0.18360   0.00000  Uiso   1.00
C311   C     0.86117   0.68713   0.13498   0.00000  Uiso   1.00
C312   C     0.80550   0.97953   0.19835   0.00000  Uiso   1.00
C313   C     0.85971   0.97775   0.13573   0.00000  Uiso   1.00
C314   C     0.80695   0.68892   0.19761   0.00000  Uiso   1.00
C315   C     0.83228   0.95716   0.16727   0.00000  Uiso   1.00
C316   C     0.83439   0.70950   0.16606   0.00000  Uiso   1.00
C317   C     0.80237   0.80655   0.02011   0.00000  Uiso   1.00
C318   C     0.86430   0.86011   0.31322   0.00000  Uiso   1.00
C319   C     0.80275   0.80657   0.30412   0.00000  Uiso   1.00
C320   C     0.86391   0.86009   0.02921   0.00000  Uiso   1.00
Cu321  Cu    0.83333   0.83334   0.21355   0.00000  Uiso   1.00
Cu322  Cu    0.83333   0.83333   0.11978   0.00000  Uiso   1.00
H323   H     0.88094   0.96054   0.11219   0.00000  Uiso   1.00
H324   H     0.78572   0.70613   0.22115   0.00000  Uiso   1.00
H325   H     0.77863   0.78496   0.28196   0.00000  Uiso   1.00
H326   H     0.88804   0.88171   0.05138   0.00000  Uiso   1.00
N327   N     0.83335   0.83334   0.28403   0.00000  Uiso   1.00
N328   N     0.83332   0.83332   0.04931   0.00000  Uiso   1.00
O329   O     0.83333   0.77322   0.20625   0.00000  Uiso   1.00
O330   O     0.83334   0.89345   0.12709   0.00000  Uiso   1.00
O331   O     0.83333   0.77321   0.12706   0.00000  Uiso   1.00
O332   O     0.83334   0.89346   0.20628   0.00000  Uiso   1.00
O333   O     0.75828   0.83334   0.19712   0.00000  Uiso   1.00
O334   O     0.90839   0.83333   0.13621   0.00000  Uiso   1.00
O335   O     0.75828   0.83333   0.11793   0.00000  Uiso   1.00
O336   O     0.90839   0.83334   0.21540   0.00000  Uiso   1.00
Cl337  Cl    0.98975   0.87043   0.10138   0.00000  Uiso   1.00
Cl338  Cl    0.67692   0.79624   0.23195   0.00000  Uiso   1.00
Cl339  Cl    0.89934   0.71095   0.09653   0.00000  Uiso   1.00
Cl340  Cl    0.76733   0.95571   0.23680   0.00000  Uiso   1.00
Cl341  Cl    0.76057   0.77137   0.04216   0.00000  Uiso   1.00
Cl342  Cl    0.90610   0.89530   0.29117   0.00000  Uiso   1.00
C343   C     0.16756   0.08746   0.49980   0.00000  Uiso   1.00
C344   C     0.16578   0.24588   0.50020   0.00000  Uiso   1.00
C345   C     0.06816   0.16696   0.48828   0.00000  Uiso   1.00
C346   C     0.26517   0.16637   0.51172   0.00000  Uiso   1.00
C347   C     0.01393   0.17294   0.48307   0.00000  Uiso   1.00
C348   C     0.31941   0.16039   0.51693   0.00000  Uiso   1.00
C349   C     0.19450   0.02047   0.46831   0.00000  Uiso   1.00
C350   C     0.13883   0.31287   0.53169   0.00000  Uiso   1.00
C351   C     0.19305   0.31108   0.46906   0.00000  Uiso   1.00
C352   C     0.14029   0.02225   0.53094   0.00000  Uiso   1.00
C353   C     0.16561   0.29050   0.50061   0.00000  Uiso   1.00
C354   C     0.16772   0.04284   0.49939   0.00000  Uiso   1.00
C355   C     0.13570   0.13989   0.35344   0.00000  Uiso   1.00
C356   C     0.19763   0.19345   0.64656   0.00000  Uiso   1.00
C357   C     0.13609   0.13990   0.63745   0.00000  Uiso   1.00
C358   C     0.19725   0.19343   0.36255   0.00000  Uiso   1.00
Cu359  Cu    0.16667   0.16667   0.54689   0.00000  Uiso   1.00
Cu360  Cu    0.16667   0.16666   0.45311   0.00000  Uiso   1.00
H361   H     0.21428   0.29387   0.44552   0.00000  Uiso   1.00
H362   H     0.11906   0.03946   0.55448   0.00000  Uiso   1.00
H363   H     0.11196   0.11829   0.61529   0.00000  Uiso   1.00
H364   H     0.22137   0.21504   0.38471   0.00000  Uiso   1.00
N365   N     0.16668   0.16668   0.61736   0.00000  Uiso   1.00
N366   N     0.16665   0.16666   0.38264   0.00000  Uiso   1.00
O367   O     0.16666   0.10655   0.53958   0.00000  Uiso   1.00
O368   O     0.16667   0.22678   0.46042   0.00000  Uiso   1.00
O369   O     0.16666   0.10654   0.46039   0.00000  Uiso   1.00
O370   O     0.16667   0.22679   0.53961   0.00000  Uiso   1.00
O371   O     0.09161   0.16667   0.53046   0.00000  Uiso   1.00
O372   O     0.24172   0.16666   0.46954   0.00000  Uiso   1.00
O373   O     0.09161   0.16666   0.45127   0.00000  Uiso   1.00
O374   O     0.24172   0.16667   0.54873   0.00000  Uiso   1.00
Cl375  Cl    0.32308   0.20376   0.43471   0.00000  Uiso   1.00
Cl376  Cl    0.01025   0.12957   0.56529   0.00000  Uiso   1.00
Cl377  Cl    0.23267   0.04429   0.42987   0.00000  Uiso   1.00
Cl378  Cl    0.10066   0.28905   0.57013   0.00000  Uiso   1.00
Cl379  Cl    0.09390   0.10470   0.37549   0.00000  Uiso   1.00
Cl380  Cl    0.23943   0.22863   0.62451   0.00000  Uiso   1.00
C381   C     0.50089   0.08746   0.49980   0.00000  Uiso   1.00
C382   C     0.49911   0.24588   0.50020   0.00000  Uiso   1.00
C383   C     0.40149   0.16696   0.48828   0.00000  Uiso   1.00
C384   C     0.59851   0.16637   0.51172   0.00000  Uiso   1.00
C385   C     0.34726   0.17294   0.48307   0.00000  Uiso   1.00
C386   C     0.65274   0.16039   0.51693   0.00000  Uiso   1.00
C387   C     0.52783   0.02047   0.46831   0.00000  Uiso   1.00
C388   C     0.47217   0.31287   0.53169   0.00000  Uiso   1.00
C389   C     0.52638   0.31108   0.46906   0.00000  Uiso   1.00
C390   C     0.47362   0.02225   0.53094   0.00000  Uiso   1.00
C391   C     0.49895   0.29050   0.50061   0.00000  Uiso   1.00
C392   C     0.50105   0.04284   0.49939   0.00000  Uiso   1.00
C393   C     0.46904   0.13989   0.35344   0.00000  Uiso   1.00
C394   C     0.53096   0.19345   0.64656   0.00000  Uiso   1.00
C395   C     0.46942   0.13990   0.63745   0.00000  Uiso   1.00
C396   C     0.53058   0.19343   0.36255   0.00000  Uiso   1.00
Cu397  Cu    0.50000   0.16667   0.54689   0.00000  Uiso   1.00
Cu398  Cu    0.50000   0.16666   0.45311   0.00000  Uiso   1.00
H399   H     0.54761   0.29387   0.44552   0.00000  Uiso   1.00
H400   H     0.45239   0.03946   0.55448   0.00000  Uiso   1.00
H401   H     0.44529   0.11829   0.61529   0.00000  Uiso   1.00
H402   H     0.55471   0.21504   0.38471   0.00000  Uiso   1.00
N403   N     0.50001   0.16668   0.61736   0.00000  Uiso   1.00
N404   N     0.49999   0.16666   0.38264   0.00000  Uiso   1.00
O405   O     0.50000   0.10655   0.53958   0.00000  Uiso   1.00
O406   O     0.50000   0.22678   0.46042   0.00000  Uiso   1.00
O407   O     0.50000   0.10654   0.46039   0.00000  Uiso   1.00
O408   O     0.50000   0.22679   0.53961   0.00000  Uiso   1.00
O409   O     0.42495   0.16667   0.53046   0.00000  Uiso   1.00
O410   O     0.57505   0.16666   0.46954   0.00000  Uiso   1.00
O411   O     0.42494   0.16666   0.45127   0.00000  Uiso   1.00
O412   O     0.57506   0.16667   0.54873   0.00000  Uiso   1.00
Cl413  Cl    0.65642   0.20376   0.43471   0.00000  Uiso   1.00
Cl414  Cl    0.34358   0.12957   0.56529   0.00000  Uiso   1.00
Cl415  Cl    0.56601   0.04429   0.42987   0.00000  Uiso   1.00
Cl416  Cl    0.43399   0.28905   0.57013   0.00000  Uiso   1.00
Cl417  Cl    0.42724   0.10470   0.37549   0.00000  Uiso   1.00
Cl418  Cl    0.57276   0.22863   0.62451   0.00000  Uiso   1.00
C419   C     0.83422   0.08746   0.49980   0.00000  Uiso   1.00
C420   C     0.83244   0.24588   0.50020   0.00000  Uiso   1.00
C421   C     0.73483   0.16696   0.48828   0.00000  Uiso   1.00
C422   C     0.93184   0.16637   0.51172   0.00000  Uiso   1.00
C423   C     0.68059   0.17294   0.48307   0.00000  Uiso   1.00
C424   C     0.98607   0.16039   0.51693   0.00000  Uiso   1.00
C425   C     0.86117   0.02047   0.46831   0.00000  Uiso   1.00
C426   C     0.80550   0.31287   0.53169   0.00000  Uiso   1.00
C427   C     0.85971   0.31108   0.46906   0.00000  Uiso   1.00
C428   C     0.80695   0.02225   0.53094   0.00000  Uiso   1.00
C429   C     0.83228   0.29050   0.50061   0.00000  Uiso   1.00
C430   C     0.83439   0.04284   0.49939   0.00000  Uiso   1.00
C431   C     0.80237   0.13989   0.35344   0.00000  Uiso   1.00
C432   C     0.86430   0.19345   0.64656   0.00000  Uiso   1.00
C433   C     0.80275   0.13990   0.63745   0.00000  Uiso   1.00
C434   C     0.86391   0.19343   0.36255   0.00000  Uiso   1.00
Cu435  Cu    0.83333   0.16667   0.54689   0.00000  Uiso   1.00
Cu436  Cu    0.83333   0.16666   0.45311   0.00000  Uiso   1.00
H437   H     0.88094   0.29387   0.44552   0.00000  Uiso   1.00
H438   H     0.78572   0.03946   0.55448   0.00000  Uiso   1.00
H439   H     0.77863   0.11829   0.61529   0.00000  Uiso   1.00
H440   H     0.88804   0.21504   0.38471   0.00000  Uiso   1.00
N441   N     0.83335   0.16668   0.61736   0.00000  Uiso   1.00
N442   N     0.83332   0.16666   0.38264   0.00000  Uiso   1.00
O443   O     0.83333   0.10655   0.53958   0.00000  Uiso   1.00
O444   O     0.83334   0.22678   0.46042   0.00000  Uiso   1.00
O445   O     0.83333   0.10654   0.46039   0.00000  Uiso   1.00
O446   O     0.83334   0.22679   0.53961   0.00000  Uiso   1.00
O447   O     0.75828   0.16667   0.53046   0.00000  Uiso   1.00
O448   O     0.90839   0.16666   0.46954   0.00000  Uiso   1.00
O449   O     0.75828   0.16666   0.45127   0.00000  Uiso   1.00
O450   O     0.90839   0.16667   0.54873   0.00000  Uiso   1.00
Cl451  Cl    0.98975   0.20376   0.43471   0.00000  Uiso   1.00
Cl452  Cl    0.67692   0.12957   0.56529   0.00000  Uiso   1.00
Cl453  Cl    0.89934   0.04429   0.42987   0.00000  Uiso   1.00
Cl454  Cl    0.76733   0.28905   0.57013   0.00000  Uiso   1.00
Cl455  Cl    0.76057   0.10470   0.37549   0.00000  Uiso   1.00
Cl456  Cl    0.90610   0.22863   0.62451   0.00000  Uiso   1.00
C457   C     0.16756   0.42079   0.49980   0.00000  Uiso   1.00
C458   C     0.16578   0.57921   0.50020   0.00000  Uiso   1.00
C459   C     0.06816   0.50030   0.48828   0.00000  Uiso   1.00
C460   C     0.26517   0.49970   0.51172   0.00000  Uiso   1.00
C461   C     0.01393   0.50628   0.48307   0.00000  Uiso   1.00
C462   C     0.31941   0.49372   0.51693   0.00000  Uiso   1.00
C463   C     0.19450   0.35380   0.46831   0.00000  Uiso   1.00
C464   C     0.13883   0.64620   0.53169   0.00000  Uiso   1.00
C465   C     0.19305   0.64441   0.46906   0.00000  Uiso   1.00
C466   C     0.14029   0.35559   0.53094   0.00000  Uiso   1.00
C467   C     0.16561   0.62383   0.50061   0.00000  Uiso   1.00
C468   C     0.16772   0.37617   0.49939   0.00000  Uiso   1.00
C469   C     0.13570   0.47322   0.35344   0.00000  Uiso   1.00
C470   C     0.19763   0.52678   0.64656   0.00000  Uiso   1.00
C471   C     0.13609   0.47324   0.63745   0.00000  Uiso   1.00
C472   C     0.19725   0.52676   0.36255   0.00000  Uiso   1.00
Cu473  Cu    0.16667   0.50001   0.54689   0.00000  Uiso   1.00
Cu474  Cu    0.16667   0.49999   0.45311   0.00000  Uiso   1.00
H475   H     0.21428   0.62720   0.44552   0.00000  Uiso   1.00
H476   H     0.11906   0.37280   0.55448   0.00000  Uiso   1.00
H477   H     0.11196   0.45163   0.61529   0.00000  Uiso   1.00
H478   H     0.22137   0.54837   0.38471   0.00000  Uiso   1.00
N479   N     0.16668   0.50001   0.61736   0.00000  Uiso   1.00
N480   N     0.16665   0.49999   0.38264   0.00000  Uiso   1.00
O481   O     0.16666   0.43989   0.53958   0.00000  Uiso   1.00
O482   O     0.16667   0.56011   0.46042   0.00000  Uiso   1.00
O483   O     0.16666   0.43988   0.46039   0.00000  Uiso   1.00
O484   O     0.16667   0.56012   0.53961   0.00000  Uiso   1.00
O485   O     0.09161   0.50000   0.53046   0.00000  Uiso   1.00
O486   O     0.24172   0.50000   0.46954   0.00000  Uiso   1.00
O487   O     0.09161   0.49999   0.45127   0.00000  Uiso   1.00
O488   O     0.24172   0.50001   0.54873   0.00000  Uiso   1.00
Cl489  Cl    0.32308   0.53709   0.43471   0.00000  Uiso   1.00
Cl490  Cl    0.01025   0.46291   0.56529   0.00000  Uiso   1.00
Cl491  Cl    0.23267   0.37762   0.42987   0.00000  Uiso   1.00
Cl492  Cl    0.10066   0.62238   0.57013   0.00000  Uiso   1.00
Cl493  Cl    0.09390   0.43804   0.37549   0.00000  Uiso   1.00
Cl494  Cl    0.23943   0.56196   0.62451   0.00000  Uiso   1.00
C495   C     0.50089   0.42079   0.49980   0.00000  Uiso   1.00
C496   C     0.49911   0.57921   0.50020   0.00000  Uiso   1.00
C497   C     0.40149   0.50030   0.48828   0.00000  Uiso   1.00
C498   C     0.59851   0.49970   0.51172   0.00000  Uiso   1.00
C499   C     0.34726   0.50628   0.48307   0.00000  Uiso   1.00
C500   C     0.65274   0.49372   0.51693   0.00000  Uiso   1.00
C501   C     0.52783   0.35380   0.46831   0.00000  Uiso   1.00
C502   C     0.47217   0.64620   0.53169   0.00000  Uiso   1.00
C503   C     0.52638   0.64441   0.46906   0.00000  Uiso   1.00
C504   C     0.47362   0.35559   0.53094   0.00000  Uiso   1.00
C505   C     0.49895   0.62383   0.50061   0.00000  Uiso   1.00
C506   C     0.50105   0.37617   0.49939   0.00000  Uiso   1.00
C507   C     0.46904   0.47322   0.35344   0.00000  Uiso   1.00
C508   C     0.53096   0.52678   0.64656   0.00000  Uiso   1.00
C509   C     0.46942   0.47324   0.63745   0.00000  Uiso   1.00
C510   C     0.53058   0.52676   0.36255   0.00000  Uiso   1.00
Cu511  Cu    0.50000   0.50001   0.54689   0.00000  Uiso   1.00
Cu512  Cu    0.50000   0.49999   0.45311   0.00000  Uiso   1.00
H513   H     0.54761   0.62720   0.44552   0.00000  Uiso   1.00
H514   H     0.45239   0.37280   0.55448   0.00000  Uiso   1.00
H515   H     0.44529   0.45163   0.61529   0.00000  Uiso   1.00
H516   H     0.55471   0.54837   0.38471   0.00000  Uiso   1.00
N517   N     0.50001   0.50001   0.61736   0.00000  Uiso   1.00
N518   N     0.49999   0.49999   0.38264   0.00000  Uiso   1.00
O519   O     0.50000   0.43989   0.53958   0.00000  Uiso   1.00
O520   O     0.50000   0.56011   0.46042   0.00000  Uiso   1.00
O521   O     0.50000   0.43988   0.46039   0.00000  Uiso   1.00
O522   O     0.50000   0.56012   0.53961   0.00000  Uiso   1.00
O523   O     0.42495   0.50000   0.53046   0.00000  Uiso   1.00
O524   O     0.57505   0.50000   0.46954   0.00000  Uiso   1.00
O525   O     0.42494   0.49999   0.45127   0.00000  Uiso   1.00
O526   O     0.57506   0.50001   0.54873   0.00000  Uiso   1.00
Cl527  Cl    0.65642   0.53709   0.43471   0.00000  Uiso   1.00
Cl528  Cl    0.34358   0.46291   0.56529   0.00000  Uiso   1.00
Cl529  Cl    0.56601   0.37762   0.42987   0.00000  Uiso   1.00
Cl530  Cl    0.43399   0.62238   0.57013   0.00000  Uiso   1.00
Cl531  Cl    0.42724   0.43804   0.37549   0.00000  Uiso   1.00
Cl532  Cl    0.57276   0.56196   0.62451   0.00000  Uiso   1.00
C533   C     0.83422   0.42079   0.49980   0.00000  Uiso   1.00
C534   C     0.83244   0.57921   0.50020   0.00000  Uiso   1.00
C535   C     0.73483   0.50030   0.48828   0.00000  Uiso   1.00
C536   C     0.93184   0.49970   0.51172   0.00000  Uiso   1.00
C537   C     0.68059   0.50628   0.48307   0.00000  Uiso   1.00
C538   C     0.98607   0.49372   0.51693   0.00000  Uiso   1.00
C539   C     0.86117   0.35380   0.46831   0.00000  Uiso   1.00
C540   C     0.80550   0.64620   0.53169   0.00000  Uiso   1.00
C541   C     0.85971   0.64441   0.46906   0.00000  Uiso   1.00
C542   C     0.80695   0.35559   0.53094   0.00000  Uiso   1.00
C543   C     0.83228   0.62383   0.50061   0.00000  Uiso   1.00
C544   C     0.83439   0.37617   0.49939   0.00000  Uiso   1.00
C545   C     0.80237   0.47322   0.35344   0.00000  Uiso   1.00
C546   C     0.86430   0.52678   0.64656   0.00000  Uiso   1.00
C547   C     0.80275   0.47324   0.63745   0.00000  Uiso   1.00
C548   C     0.86391   0.52676   0.36255   0.00000  Uiso   1.00
Cu549  Cu    0.83333   0.50001   0.54689   0.00000  Uiso   1.00
Cu550  Cu    0.83333   0.49999   0.45311   0.00000  Uiso   1.00
H551   H     0.88094   0.62720   0.44552   0.00000  Uiso   1.00
H552   H     0.78572   0.37280   0.55448   0.00000  Uiso   1.00
H553   H     0.77863   0.45163   0.61529   0.00000  Uiso   1.00
H554   H     0.88804   0.54837   0.38471   0.00000  Uiso   1.00
N555   N     0.83335   0.50001   0.61736   0.00000  Uiso   1.00
N556   N     0.83332   0.49999   0.38264   0.00000  Uiso   1.00
O557   O     0.83333   0.43989   0.53958   0.00000  Uiso   1.00
O558   O     0.83334   0.56011   0.46042   0.00000  Uiso   1.00
O559   O     0.83333   0.43988   0.46039   0.00000  Uiso   1.00
O560   O     0.83334   0.56012   0.53961   0.00000  Uiso   1.00
O561   O     0.75828   0.50000   0.53046   0.00000  Uiso   1.00
O562   O     0.90839   0.50000   0.46954   0.00000  Uiso   1.00
O563   O     0.75828   0.49999   0.45127   0.00000  Uiso   1.00
O564   O     0.90839   0.50001   0.54873   0.00000  Uiso   1.00
Cl565  Cl    0.98975   0.53709   0.43471   0.00000  Uiso   1.00
Cl566  Cl    0.67692   0.46291   0.56529   0.00000  Uiso   1.00
Cl567  Cl    0.89934   0.37762   0.42987   0.00000  Uiso   1.00
Cl568  Cl    0.76733   0.62238   0.57013   0.00000  Uiso   1.00
Cl569  Cl    0.76057   0.43804   0.37549   0.00000  Uiso   1.00
Cl570  Cl    0.90610   0.56196   0.62451   0.00000  Uiso   1.00
C571   C     0.16756   0.75412   0.49980   0.00000  Uiso   1.00
C572   C     0.16578   0.91254   0.50020   0.00000  Uiso   1.00
C573   C     0.06816   0.83363   0.48828   0.00000  Uiso   1.00
C574   C     0.26517   0.83304   0.51172   0.00000  Uiso   1.00
C575   C     0.01393   0.83961   0.48307   0.00000  Uiso   1.00
C576   C     0.31941   0.82706   0.51693   0.00000  Uiso   1.00
C577   C     0.19450   0.68713   0.46831   0.00000  Uiso   1.00
C578   C     0.13883   0.97953   0.53169   0.00000  Uiso   1.00
C579   C     0.19305   0.97775   0.46906   0.00000  Uiso   1.00
C580   C     0.14029   0.68892   0.53094   0.00000  Uiso   1.00
C581   C     0.16561   0.95716   0.50061   0.00000  Uiso   1.00
C582   C     0.16772   0.70950   0.49939   0.00000  Uiso   1.00
C583   C     0.13570   0.80655   0.35344   0.00000  Uiso   1.00
C584   C     0.19763   0.86011   0.64656   0.00000  Uiso   1.00
C585   C     0.13609   0.80657   0.63745   0.00000  Uiso   1.00
C586   C     0.19725   0.86009   0.36255   0.00000  Uiso   1.00
Cu587  Cu    0.16667   0.83334   0.54689   0.00000  Uiso   1.00
Cu588  Cu    0.16667   0.83333   0.45311   0.00000  Uiso   1.00
H589   H     0.21428   0.96054   0.44552   0.00000  Uiso   1.00
H590   H     0.11906   0.70613   0.55448   0.00000  Uiso   1.00
H591   H     0.11196   0.78496   0.61529   0.00000  Uiso   1.00
H592   H     0.22137   0.88171   0.38471   0.00000  Uiso   1.00
N593   N     0.16668   0.83334   0.61736   0.00000  Uiso   1.00
N594   N     0.16665   0.83332   0.38264   0.00000  Uiso   1.00
O595   O     0.16666   0.77322   0.53958   0.00000  Uiso   1.00
O596   O     0.16667   0.89345   0.46042   0.00000  Uiso   1.00
O597   O     0.16666   0.77321   0.46039   0.00000  Uiso   1.00
O598   O     0.16667   0.89346   0.53961   0.00000  Uiso   1.00
O599   O     0.09161   0.83334   0.53046   0.00000  Uiso   1.00
O600   O     0.24172   0.83333   0.46954   0.00000  Uiso   1.00
O601   O     0.09161   0.83333   0.45127   0.00000  Uiso   1.00
O602   O     0.24172   0.83334   0.54873   0.00000  Uiso   1.00
Cl603  Cl    0.32308   0.87043   0.43471   0.00000  Uiso   1.00
Cl604  Cl    0.01025   0.79624   0.56529   0.00000  Uiso   1.00
Cl605  Cl    0.23267   0.71095   0.42987   0.00000  Uiso   1.00
Cl606  Cl    0.10066   0.95571   0.57013   0.00000  Uiso   1.00
Cl607  Cl    0.09390   0.77137   0.37549   0.00000  Uiso   1.00
Cl608  Cl    0.23943   0.89530   0.62451   0.00000  Uiso   1.00
C609   C     0.50089   0.75412   0.49980   0.00000  Uiso   1.00
C610   C     0.49911   0.91254   0.50020   0.00000  Uiso   1.00
C611   C     0.40149   0.83363   0.48828   0.00000  Uiso   1.00
C612   C     0.59851   0.83304   0.51172   0.00000  Uiso   1.00
C613   C     0.34726   0.83961   0.48307   0.00000  Uiso   1.00
C614   C     0.65274   0.82706   0.51693   0.00000  Uiso   1.00
C615   C     0.52783   0.68713   0.46831   0.00000  Uiso   1.00
C616   C     0.47217   0.97953   0.53169   0.00000  Uiso   1.00
C617   C     0.52638   0.97775   0.46906   0.00000  Uiso   1.00
C618   C     0.47362   0.68892   0.53094   0.00000  Uiso   1.00
C619   C     0.49895   0.95716   0.50061   0.00000  Uiso   1.00
C620   C     0.50105   0.70950   0.49939   0.00000  Uiso   1.00
C621   C     0.46904   0.80655   0.35344   0.00000  Uiso   1.00
C622   C     0.53096   0.86011   0.64656   0.00000  Uiso   1.00
C623   C     0.46942   0.80657   0.63745   0.00000  Uiso   1.00
C624   C     0.53058   0.86009   0.36255   0.00000  Uiso   1.00
Cu625  Cu    0.50000   0.83334   0.54689   0.00000  Uiso   1.00
Cu626  Cu    0.50000   0.83333   0.45311   0.00000  Uiso   1.00
H627   H     0.54761   0.96054   0.44552   0.00000  Uiso   1.00
H628   H     0.45239   0.70613   0.55448   0.00000  Uiso   1.00
H629   H     0.44529   0.78496   0.61529   0.00000  Uiso   1.00
H630   H     0.55471   0.88171   0.38471   0.00000  Uiso   1.00
N631   N     0.50001   0.83334   0.61736   0.00000  Uiso   1.00
N632   N     0.49999   0.83332   0.38264   0.00000  Uiso   1.00
O633   O     0.50000   0.77322   0.53958   0.00000  Uiso   1.00
O634   O     0.50000   0.89345   0.46042   0.00000  Uiso   1.00
O635   O     0.50000   0.77321   0.46039   0.00000  Uiso   1.00
O636   O     0.50000   0.89346   0.53961   0.00000  Uiso   1.00
O637   O     0.42495   0.83334   0.53046   0.00000  Uiso   1.00
O638   O     0.57505   0.83333   0.46954   0.00000  Uiso   1.00
O639   O     0.42494   0.83333   0.45127   0.00000  Uiso   1.00
O640   O     0.57506   0.83334   0.54873   0.00000  Uiso   1.00
Cl641  Cl    0.65642   0.87043   0.43471   0.00000  Uiso   1.00
Cl642  Cl    0.34358   0.79624   0.56529   0.00000  Uiso   1.00
Cl643  Cl    0.56601   0.71095   0.42987   0.00000  Uiso   1.00
Cl644  Cl    0.43399   0.95571   0.57013   0.00000  Uiso   1.00
Cl645  Cl    0.42724   0.77137   0.37549   0.00000  Uiso   1.00
Cl646  Cl    0.57276   0.89530   0.62451   0.00000  Uiso   1.00
C647   C     0.83422   0.75412   0.49980   0.00000  Uiso   1.00
C648   C     0.83244   0.91254   0.50020   0.00000  Uiso   1.00
C649   C     0.73483   0.83363   0.48828   0.00000  Uiso   1.00
C650   C     0.93184   0.83304   0.51172   0.00000  Uiso   1.00
C651   C     0.68059   0.83961   0.48307   0.00000  Uiso   1.00
C652   C     0.98607   0.82706   0.51693   0.00000  Uiso   1.00
C653   C     0.86117   0.68713   0.46831   0.00000  Uiso   1.00
C654   C     0.80550   0.97953   0.53169   0.00000  Uiso   1.00
C655   C     0.85971   0.97775   0.46906   0.00000  Uiso   1.00
C656   C     0.80695   0.68892   0.53094   0.00000  Uiso   1.00
C657   C     0.83228   0.95716   0.50061   0.00000  Uiso   1.00
C658   C     0.83439   0.70950   0.49939   0.00000  Uiso   1.00
C659   C     0.80237   0.80655   0.35344   0.00000  Uiso   1.00
C660   C     0.86430   0.86011   0.64656   0.00000  Uiso   1.00
C661   C     0.80275   0.80657   0.63745   0.00000  Uiso   1.00
C662   C     0.86391   0.86009   0.36255   0.00000  Uiso   1.00
Cu663  Cu    0.83333   0.83334   0.54689   0.00000  Uiso   1.00
Cu664  Cu    0.83333   0.83333   0.45311   0.00000  Uiso   1.00
H665   H     0.88094   0.96054   0.44552   0.00000  Uiso   1.00
H666   H     0.78572   0.70613   0.55448   0.00000  Uiso   1.00
H667   H     0.77863   0.78496   0.61529   0.00000  Uiso   1.00
H668   H     0.88804   0.88171   0.38471   0.00000  Uiso   1.00
N669   N     0.83335   0.83334   0.61736   0.00000  Uiso   1.00
N670   N     0.83332   0.83332   0.38264   0.00000  Uiso   1.00
O671   O     0.83333   0.77322   0.53958   0.00000  Uiso   1.00
O672   O     0.83334   0.89345   0.46042   0.00000  Uiso   1.00
O673   O     0.83333   0.77321   0.46039   0.00000  Uiso   1.00
O674   O     0.83334   0.89346   0.53961   0.00000  Uiso   1.00
O675   O     0.75828   0.83334   0.53046   0.00000  Uiso   1.00
O676   O     0.90839   0.83333   0.46954   0.00000  Uiso   1.00
O677   O     0.75828   0.83333   0.45127   0.00000  Uiso   1.00
O678   O     0.90839   0.83334   0.54873   0.00000  Uiso   1.00
Cl679  Cl    0.98975   0.87043   0.43471   0.00000  Uiso   1.00
Cl680  Cl    0.67692   0.79624   0.56529   0.00000  Uiso   1.00
Cl681  Cl    0.89934   0.71095   0.42987   0.00000  Uiso   1.00
Cl682  Cl    0.76733   0.95571   0.57013   0.00000  Uiso   1.00
Cl683  Cl    0.76057   0.77137   0.37549   0.00000  Uiso   1.00
Cl684  Cl    0.90610   0.89530   0.62451   0.00000  Uiso   1.00
C685   C     0.16756   0.08746   0.83313   0.00000  Uiso   1.00
C686   C     0.16578   0.24588   0.83354   0.00000  Uiso   1.00
C687   C     0.06816   0.16696   0.82161   0.00000  Uiso   1.00
C688   C     0.26517   0.16637   0.84506   0.00000  Uiso   1.00
C689   C     0.01393   0.17294   0.81640   0.00000  Uiso   1.00
C690   C     0.31941   0.16039   0.85027   0.00000  Uiso   1.00
C691   C     0.19450   0.02047   0.80165   0.00000  Uiso   1.00
C692   C     0.13883   0.31287   0.86502   0.00000  Uiso   1.00
C693   C     0.19305   0.31108   0.80239   0.00000  Uiso   1.00
C694   C     0.14029   0.02225   0.86427   0.00000  Uiso   1.00
C695   C     0.16561   0.29050   0.83394   0.00000  Uiso   1.00
C696   C     0.16772   0.04284   0.83273   0.00000  Uiso   1.00
C697   C     0.13570   0.13989   0.68678   0.00000  Uiso   1.00
C698   C     0.19763   0.19345   0.97989   0.00000  Uiso   1.00
C699   C     0.13609   0.13990   0.97079   0.00000  Uiso   1.00
C700   C     0.19725   0.19343   0.69588   0.00000  Uiso   1.00
Cu701  Cu    0.16667   0.16667   0.88022   0.00000  Uiso   1.00
Cu702  Cu    0.16667   0.16666   0.78645   0.00000  Uiso   1.00
H703   H     0.21428   0.29387   0.77885   0.00000  Uiso   1.00
H704   H     0.11906   0.03946   0.88781   0.00000  Uiso   1.00
H705   H     0.11196   0.11829   0.94862   0.00000  Uiso   1.00
H706   H     0.22137   0.21504   0.71804   0.00000  Uiso   1.00
N707   N     0.16668   0.16668   0.95069   0.00000  Uiso   1.00
N708   N     0.16665   0.16666   0.71597   0.00000  Uiso   1.00
O709   O     0.16666   0.10655   0.87291   0.00000  Uiso   1.00
O710   O     0.16667   0.22678   0.79375   0.00000  Uiso   1.00
O711   O     0.16666   0.10654   0.79372   0.00000  Uiso   1.00
O712   O     0.16667   0.22679   0.87294   0.00000  Uiso   1.00
O713   O     0.09161   0.16667   0.86379   0.00000  Uiso   1.00
O714   O     0.24172   0.16666   0.80288   0.00000  Uiso   1.00
O715   O     0.09161   0.16666   0.78460   0.00000  Uiso   1.00
O716   O     0.24172   0.16667   0.88207   0.00000  Uiso   1.00
Cl717  Cl    0.32308   0.20376   0.76805   0.00000  Uiso   1.00
Cl718  Cl    0.01025   0.12957   0.89862   0.00000  Uiso   1.00
Cl719  Cl    0.23267   0.04429   0.76320   0.00000  Uiso   1.00
Cl720  Cl    0.10066   0.28905   0.90347   0.00000  Uiso   1.00
Cl721  Cl    0.09390   0.10470   0.70883   0.00000  Uiso   1.00
Cl722  Cl    0.23943   0.22863   0.95784   0.00000  Uiso   1.00
C723   C     0.50089   0.08746   0.83313   0.00000  Uiso   1.00
C724   C     0.49911   0.24588   0.83354   0.00000  Uiso   1.00
C725   C     0.40149   0.16696   0.82161   0.00000  Uiso   1.00
C726   C     0.59851   0.16637   0.84506   0.00000  Uiso   1.00
C727   C     0.34726   0.17294   0.81640   0.00000  Uiso   1.00
C728   C     0.65274   0.16039   0.85027   0.00000  Uiso   1.00
C729   C     0.52783   0.02047   0.80165   0.00000  Uiso   1.00
C730   C     0.47217   0.31287   0.86502   0.00000  Uiso   1.00
C731   C     0.52638   0.31108   0.80239   0.00000  Uiso   1.00
C732   C     0.47362   0.02225   0.86427   0.00000  Uiso   1.00
C733   C     0.49895   0.29050   0.83394   0.00000  Uiso   1.00
C734   C     0.50105   0.04284   0.83273   0.00000  Uiso   1.00
C735   C     0.46904   0.13989   0.68678   0.00000  Uiso   1.00
C736   C     0.53096   0.19345   0.97989   0.00000  Uiso   1.00
C737   C     0.46942   0.13990   0.97079   0.00000  Uiso   1.00
C738   C     0.53058   0.19343   0.69588   0.00000  Uiso   1.00
Cu739  Cu    0.50000   0.16667   0.88022   0.00000  Uiso   1.00
Cu740  Cu    0.50000   0.16666   0.78645   0.00000  Uiso   1.00
H741   H     0.54761   0.29387   0.77885   0.00000  Uiso   1.00
H742   H     0.45239   0.03946   0.88781   0.00000  Uiso   1.00
H743   H     0.44529   0.11829   0.94862   0.00000  Uiso   1.00
H744   H     0.55471   0.21504   0.71804   0.00000  Uiso   1.00
N745   N     0.50001   0.16668   0.95069   0.00000  Uiso   1.00
N746   N     0.49999   0.16666   0.71597   0.00000  Uiso   1.00
O747   O     0.50000   0.10655   0.87291   0.00000  Uiso   1.00
O748   O     0.50000   0.22678   0.79375   0.00000  Uiso   1.00
O749   O     0.50000   0.10654   0.79372   0.00000  Uiso   1.00
O750   O     0.50000   0.22679   0.87294   0.00000  Uiso   1.00
O751   O     0.42495   0.16667   0.86379   0.00000  Uiso   1.00
O752   O     0.57505   0.16666   0.80288   0.00000  Uiso   1.00
O753   O     0.42494   0.16666   0.78460   0.00000  Uiso   1.00
O754   O     0.57506   0.16667   0.88207   0.00000  Uiso   1.00
Cl755  Cl    0.65642   0.20376   0.76805   0.00000  Uiso   1.00
Cl756  Cl    0.34358   0.12957   0.89862   0.00000  Uiso   1.00
Cl757  Cl    0.56601   0.04429   0.76320   0.00000  Uiso   1.00
Cl758  Cl    0.43399   0.28905   0.90347   0.00000  Uiso   1.00
Cl759  Cl    0.42724   0.10470   0.70883   0.00000  Uiso   1.00
Cl760  Cl    0.57276   0.22863   0.95784   0.00000  Uiso   1.00
C761   C     0.83422   0.08746   0.83313   0.00000  Uiso   1.00
C762   C     0.83244   0.24588   0.83354   0.00000  Uiso   1.00
C763   C     0.73483   0.16696   0.82161   0.00000  Uiso   1.00
C764   C     0.93184   0.16637   0.84506   0.00000  Uiso   1.00
C765   C     0.68059   0.17294   0.81640   0.00000  Uiso   1.00
C766   C     0.98607   0.16039   0.85027   0.00000  Uiso   1.00
C767   C     0.86117   0.02047   0.80165   0.00000  Uiso   1.00
C768   C     0.80550   0.31287   0.86502   0.00000  Uiso   1.00
C769   C     0.85971   0.31108   0.80239   0.00000  Uiso   1.00
C770   C     0.80695   0.02225   0.86427   0.00000  Uiso   1.00
C771   C     0.83228   0.29050   0.83394   0.00000  Uiso   1.00
C772   C     0.83439   0.04284   0.83273   0.00000  Uiso   1.00
C773   C     0.80237   0.13989   0.68678   0.00000  Uiso   1.00
C774   C     0.86430   0.19345   0.97989   0.00000  Uiso   1.00
C775   C     0.80275   0.13990   0.97079   0.00000  Uiso   1.00
C776   C     0.86391   0.19343   0.69588   0.00000  Uiso   1.00
Cu777  Cu    0.83333   0.16667   0.88022   0.00000  Uiso   1.00
Cu778  Cu    0.83333   0.16666   0.78645   0.00000  Uiso   1.00
H779   H     0.88094   0.29387   0.77885   0.00000  Uiso   1.00
H780   H     0.78572   0.03946   0.88781   0.00000  Uiso   1.00
H781   H     0.77863   0.11829   0.94862   0.00000  Uiso   1.00
H782   H     0.88804   0.21504   0.71804   0.00000  Uiso   1.00
N783   N     0.83335   0.16668   0.95069   0.00000  Uiso   1.00
N784   N     0.83332   0.16666   0.71597   0.00000  Uiso   1.00
O785   O     0.83333   0.10655   0.87291   0.00000  Uiso   1.00
O786   O     0.83334   0.22678   0.79375   0.00000  Uiso   1.00
O787   O     0.83333   0.10654   0.79372   0.00000  Uiso   1.00
O788   O     0.83334   0.22679   0.87294   0.00000  Uiso   1.00
O789   O     0.75828   0.16667   0.86379   0.00000  Uiso   1.00
O790   O     0.90839   0.16666   0.80288   0.00000  Uiso   1.00
O791   O     0.75828   0.16666   0.78460   0.00000  Uiso   1.00
O792   O     0.90839   0.16667   0.88207   0.00000  Uiso   1.00
Cl793  Cl    0.98975   0.20376   0.76805   0.00000  Uiso   1.00
Cl794  Cl    0.67692   0.12957   0.89862   0.00000  Uiso   1.00
Cl795  Cl    0.89934   0.04429   0.76320   0.00000  Uiso   1.00
Cl796  Cl    0.76733   0.28905   0.90347   0.00000  Uiso   1.00
Cl797  Cl    0.76057   0.10470   0.70883   0.00000  Uiso   1.00
Cl798  Cl    0.90610   0.22863   0.95784   0.00000  Uiso   1.00
C799   C     0.16756   0.42079   0.83313   0.00000  Uiso   1.00
C800   C     0.16578   0.57921   0.83354   0.00000  Uiso   1.00
C801   C     0.06816   0.50030   0.82161   0.00000  Uiso   1.00
C802   C     0.26517   0.49970   0.84506   0.00000  Uiso   1.00
C803   C     0.01393   0.50628   0.81640   0.00000  Uiso   1.00
C804   C     0.31941   0.49372   0.85027   0.00000  Uiso   1.00
C805   C     0.19450   0.35380   0.80165   0.00000  Uiso   1.00
C806   C     0.13883   0.64620   0.86502   0.00000  Uiso   1.00
C807   C     0.19305   0.64441   0.80239   0.00000  Uiso   1.00
C808   C     0.14029   0.35559   0.86427   0.00000  Uiso   1.00
C809   C     0.16561   0.62383   0.83394   0.00000  Uiso   1.00
C810   C     0.16772   0.37617   0.83273   0.00000  Uiso   1.00
C811   C     0.13570   0.47322   0.68678   0.00000  Uiso   1.00
C812   C     0.19763   0.52678   0.97989   0.00000  Uiso   1.00
C813   C     0.13609   0.47324   0.97079   0.00000  Uiso   1.00
C814   C     0.19725   0.52676   0.69588   0.00000  Uiso   1.00
Cu815  Cu    0.16667   0.50001   0.88022   0.00000  Uiso   1.00
Cu816  Cu    0.16667   0.49999   0.78645   0.00000  Uiso   1.00
H817   H     0.21428   0.62720   0.77885   0.00000  Uiso   1.00
H818   H     0.11906   0.37280   0.88781   0.00000  Uiso   1.00
H819   H     0.11196   0.45163   0.94862   0.00000  Uiso   1.00
H820   H     0.22137   0.54837   0.71804   0.00000  Uiso   1.00
N821   N     0.16668   0.50001   0.95069   0.00000  Uiso   1.00
N822   N     0.16665   0.49999   0.71597   0.00000  Uiso   1.00
O823   O     0.16666   0.43989   0.87291   0.00000  Uiso   1.00
O824   O     0.16667   0.56011   0.79375   0.00000  Uiso   1.00
O825   O     0.16666   0.43988   0.79372   0.00000  Uiso   1.00
O826   O     0.16667   0.56012   0.87294   0.00000  Uiso   1.00
O827   O     0.09161   0.50000   0.86379   0.00000  Uiso   1.00
O828   O     0.24172   0.50000   0.80288   0.00000  Uiso   1.00
O829   O     0.09161   0.49999   0.78460   0.00000  Uiso   1.00
O830   O     0.24172   0.50001   0.88207   0.00000  Uiso   1.00
Cl831  Cl    0.32308   0.53709   0.76805   0.00000  Uiso   1.00
Cl832  Cl    0.01025   0.46291   0.89862   0.00000  Uiso   1.00
Cl833  Cl    0.23267   0.37762   0.76320   0.00000  Uiso   1.00
Cl834  Cl    0.10066   0.62238   0.90347   0.00000  Uiso   1.00
Cl835  Cl    0.09390   0.43804   0.70883   0.00000  Uiso   1.00
Cl836  Cl    0.23943   0.56196   0.95784   0.00000  Uiso   1.00
C837   C     0.50089   0.42079   0.83313   0.00000  Uiso   1.00
C838   C     0.49911   0.57921   0.83354   0.00000  Uiso   1.00
C839   C     0.40149   0.50030   0.82161   0.00000  Uiso   1.00
C840   C     0.59851   0.49970   0.84506   0.00000  Uiso   1.00
C841   C     0.34726   0.50628   0.81640   0.00000  Uiso   1.00
C842   C     0.65274   0.49372   0.85027   0.00000  Uiso   1.00
C843   C     0.52783   0.35380   0.80165   0.00000  Uiso   1.00
C844   C     0.47217   0.64620   0.86502   0.00000  Uiso   1.00
C845   C     0.52638   0.64441   0.80239   0.00000  Uiso   1.00
C846   C     0.47362   0.35559   0.86427   0.00000  Uiso   1.00
C847   C     0.49895   0.62383   0.83394   0.00000  Uiso   1.00
C848   C     0.50105   0.37617   0.83273   0.00000  Uiso   1.00
C849   C     0.46904   0.47322   0.68678   0.00000  Uiso   1.00
C850   C     0.53096   0.52678   0.97989   0.00000  Uiso   1.00
C851   C     0.46942   0.47324   0.97079   0.00000  Uiso   1.00
C852   C     0.53058   0.52676   0.69588   0.00000  Uiso   1.00
Cu853  Cu    0.50000   0.50001   0.88022   0.00000  Uiso   1.00
Cu854  Cu    0.50000   0.49999   0.78645   0.00000  Uiso   1.00
H855   H     0.54761   0.62720   0.77885   0.00000  Uiso   1.00
H856   H     0.45239   0.37280   0.88781   0.00000  Uiso   1.00
H857   H     0.44529   0.45163   0.94862   0.00000  Uiso   1.00
H858   H     0.55471   0.54837   0.71804   0.00000  Uiso   1.00
N859   N     0.50001   0.50001   0.95069   0.00000  Uiso   1.00
N860   N     0.49999   0.49999   0.71597   0.00000  Uiso   1.00
O861   O     0.50000   0.43989   0.87291   0.00000  Uiso   1.00
O862   O     0.50000   0.56011   0.79375   0.00000  Uiso   1.00
O863   O     0.50000   0.43988   0.79372   0.00000  Uiso   1.00
O864   O     0.50000   0.56012   0.87294   0.00000  Uiso   1.00
O865   O     0.42495   0.50000   0.86379   0.00000  Uiso   1.00
O866   O     0.57505   0.50000   0.80288   0.00000  Uiso   1.00
O867   O     0.42494   0.49999   0.78460   0.00000  Uiso   1.00
O868   O     0.57506   0.50001   0.88207   0.00000  Uiso   1.00
Cl869  Cl    0.65642   0.53709   0.76805   0.00000  Uiso   1.00
Cl870  Cl    0.34358   0.46291   0.89862   0.00000  Uiso   1.00
Cl871  Cl    0.56601   0.37762   0.76320   0.00000  Uiso   1.00
Cl872  Cl    0.43399   0.62238   0.90347   0.00000  Uiso   1.00
Cl873  Cl    0.42724   0.43804   0.70883   0.00000  Uiso   1.00
Cl874  Cl    0.57276   0.56196   0.95784   0.00000  Uiso   1.00
C875   C     0.83422   0.42079   0.83313   0.00000  Uiso   1.00
C876   C     0.83244   0.57921   0.83354   0.00000  Uiso   1.00
C877   C     0.73483   0.50030   0.82161   0.00000  Uiso   1.00
C878   C     0.93184   0.49970   0.84506   0.00000  Uiso   1.00
C879   C     0.68059   0.50628   0.81640   0.00000  Uiso   1.00
C880   C     0.98607   0.49372   0.85027   0.00000  Uiso   1.00
C881   C     0.86117   0.35380   0.80165   0.00000  Uiso   1.00
C882   C     0.80550   0.64620   0.86502   0.00000  Uiso   1.00
C883   C     0.85971   0.64441   0.80239   0.00000  Uiso   1.00
C884   C     0.80695   0.35559   0.86427   0.00000  Uiso   1.00
C885   C     0.83228   0.62383   0.83394   0.00000  Uiso   1.00
C886   C     0.83439   0.37617   0.83273   0.00000  Uiso   1.00
C887   C     0.80237   0.47322   0.68678   0.00000  Uiso   1.00
C888   C     0.86430   0.52678   0.97989   0.00000  Uiso   1.00
C889   C     0.80275   0.47324   0.97079   0.00000  Uiso   1.00
C890   C     0.86391   0.52676   0.69588   0.00000  Uiso   1.00
Cu891  Cu    0.83333   0.50001   0.88022   0.00000  Uiso   1.00
Cu892  Cu    0.83333   0.49999   0.78645   0.00000  Uiso   1.00
H893   H     0.88094   0.62720   0.77885   0.00000  Uiso   1.00
H894   H     0.78572   0.37280   0.88781   0.00000  Uiso   1.00
H895   H     0.77863   0.45163   0.94862   0.00000  Uiso   1.00
H896   H     0.88804   0.54837   0.71804   0.00000  Uiso   1.00
N897   N     0.83335   0.50001   0.95069   0.00000  Uiso   1.00
N898   N     0.83332   0.49999   0.71597   0.00000  Uiso   1.00
O899   O     0.83333   0.43989   0.87291   0.00000  Uiso   1.00
O900   O     0.83334   0.56011   0.79375   0.00000  Uiso   1.00
O901   O     0.83333   0.43988   0.79372   0.00000  Uiso   1.00
O902   O     0.83334   0.56012   0.87294   0.00000  Uiso   1.00
O903   O     0.75828   0.50000   0.86379   0.00000  Uiso   1.00
O904   O     0.90839   0.50000   0.80288   0.00000  Uiso   1.00
O905   O     0.75828   0.49999   0.78460   0.00000  Uiso   1.00
O906   O     0.90839   0.50001   0.88207   0.00000  Uiso   1.00
Cl907  Cl    0.98975   0.53709   0.76805   0.00000  Uiso   1.00
Cl908  Cl    0.67692   0.46291   0.89862   0.00000  Uiso   1.00
Cl909  Cl    0.89934   0.37762   0.76320   0.00000  Uiso   1.00
Cl910  Cl    0.76733   0.62238   0.90347   0.00000  Uiso   1.00
Cl911  Cl    0.76057   0.43804   0.70883   0.00000  Uiso   1.00
Cl912  Cl    0.90610   0.56196   0.95784   0.00000  Uiso   1.00
C913   C     0.16756   0.75412   0.83313   0.00000  Uiso   1.00
C914   C     0.16578   0.91254   0.83354   0.00000  Uiso   1.00
C915   C     0.06816   0.83363   0.82161   0.00000  Uiso   1.00
C916   C     0.26517   0.83304   0.84506   0.00000  Uiso   1.00
C917   C     0.01393   0.83961   0.81640   0.00000  Uiso   1.00
C918   C     0.31941   0.82706   0.85027   0.00000  Uiso   1.00
C919   C     0.19450   0.68713   0.80165   0.00000  Uiso   1.00
C920   C     0.13883   0.97953   0.86502   0.00000  Uiso   1.00
C921   C     0.19305   0.97775   0.80239   0.00000  Uiso   1.00
C922   C     0.14029   0.68892   0.86427   0.00000  Uiso   1.00
C923   C     0.16561   0.95716   0.83394   0.00000  Uiso   1.00
C924   C     0.16772   0.70950   0.83273   0.00000  Uiso   1.00
C925   C     0.13570   0.80655   0.68678   0.00000  Uiso   1.00
C926   C     0.19763   0.86011   0.97989   0.00000  Uiso   1.00
C927   C     0.13609   0.80657   0.97079   0.00000  Uiso   1.00
C928   C     0.19725   0.86009   0.69588   0.00000  Uiso   1.00
Cu929  Cu    0.16667   0.83334   0.88022   0.00000  Uiso   1.00
Cu930  Cu    0.16667   0.83333   0.78645   0.00000  Uiso   1.00
H931   H     0.21428   0.96054   0.77885   0.00000  Uiso   1.00
H932   H     0.11906   0.70613   0.88781   0.00000  Uiso   1.00
H933   H     0.11196   0.78496   0.94862   0.00000  Uiso   1.00
H934   H     0.22137   0.88171   0.71804   0.00000  Uiso   1.00
N935   N     0.16668   0.83334   0.95069   0.00000  Uiso   1.00
N936   N     0.16665   0.83332   0.71597   0.00000  Uiso   1.00
O937   O     0.16666   0.77322   0.87291   0.00000  Uiso   1.00
O938   O     0.16667   0.89345   0.79375   0.00000  Uiso   1.00
O939   O     0.16666   0.77321   0.79372   0.00000  Uiso   1.00
O940   O     0.16667   0.89346   0.87294   0.00000  Uiso   1.00
O941   O     0.09161   0.83334   0.86379   0.00000  Uiso   1.00
O942   O     0.24172   0.83333   0.80288   0.00000  Uiso   1.00
O943   O     0.09161   0.83333   0.78460   0.00000  Uiso   1.00
O944   O     0.24172   0.83334   0.88207   0.00000  Uiso   1.00
Cl945  Cl    0.32308   0.87043   0.76805   0.00000  Uiso   1.00
Cl946  Cl    0.01025   0.79624   0.89862   0.00000  Uiso   1.00
Cl947  Cl    0.23267   0.71095   0.76320   0.00000  Uiso   1.00
Cl948  Cl    0.10066   0.95571   0.90347   0.00000  Uiso   1.00
Cl949  Cl    0.09390   0.77137   0.70883   0.00000  Uiso   1.00
Cl950  Cl    0.23943   0.89530   0.95784   0.00000  Uiso   1.00
C951   C     0.50089   0.75412   0.83313   0.00000  Uiso   1.00
C952   C     0.49911   0.91254   0.83354   0.00000  Uiso   1.00
C953   C     0.40149   0.83363   0.82161   0.00000  Uiso   1.00
C954   C     0.59851   0.83304   0.84506   0.00000  Uiso   1.00
C955   C     0.34726   0.83961   0.81640   0.00000  Uiso   1.00
C956   C     0.65274   0.82706   0.85027   0.00000  Uiso   1.00
C957   C     0.52783   0.68713   0.80165   0.00000  Uiso   1.00
C958   C     0.47217   0.97953   0.86502   0.00000  Uiso   1.00
C959   C     0.52638   0.97775   0.80239   0.00000  Uiso   1.00
C960   C     0.47362   0.68892   0.86427   0.00000  Uiso   1.00
C961   C     0.49895   0.95716   0.83394   0.00000  Uiso   1.00
C962   C     0.50105   0.70950   0.83273   0.00000  Uiso   1.00
C963   C     0.46904   0.80655   0.68678   0.00000  Uiso   1.00
C964   C     0.53096   0.86011   0.97989   0.00000  Uiso   1.00
C965   C     0.46942   0.80657   0.97079   0.00000  Uiso   1.00
C966   C     0.53058   0.86009   0.69588   0.00000  Uiso   1.00
Cu967  Cu    0.50000   0.83334   0.88022   0.00000  Uiso   1.00
Cu968  Cu    0.50000   0.83333   0.78645   0.00000  Uiso   1.00
H969   H     0.54761   0.96054   0.77885   0.00000  Uiso   1.00
H970   H     0.45239   0.70613   0.88781   0.00000  Uiso   1.00
H971   H     0.44529   0.78496   0.94862   0.00000  Uiso   1.00
H972   H     0.55471   0.88171   0.71804   0.00000  Uiso   1.00
N973   N     0.50001   0.83334   0.95069   0.00000  Uiso   1.00
N974   N     0.49999   0.83332   0.71597   0.00000  Uiso   1.00
O975   O     0.50000   0.77322   0.87291   0.00000  Uiso   1.00
O976   O     0.50000   0.89345   0.79375   0.00000  Uiso   1.00
O977   O     0.50000   0.77321   0.79372   0.00000  Uiso   1.00
O978   O     0.50000   0.89346   0.87294   0.00000  Uiso   1.00
O979   O     0.42495   0.83334   0.86379   0.00000  Uiso   1.00
O980   O     0.57505   0.83333   0.80288   0.00000  Uiso   1.00
O981   O     0.42494   0.83333   0.78460   0.00000  Uiso   1.00
O982   O     0.57506   0.83334   0.88207   0.00000  Uiso   1.00
Cl983  Cl    0.65642   0.87043   0.76805   0.00000  Uiso   1.00
Cl984  Cl    0.34358   0.79624   0.89862   0.00000  Uiso   1.00
Cl985  Cl    0.56601   0.71095   0.76320   0.00000  Uiso   1.00
Cl986  Cl    0.43399   0.95571   0.90347   0.00000  Uiso   1.00
Cl987  Cl    0.42724   0.77137   0.70883   0.00000  Uiso   1.00
Cl988  Cl    0.57276   0.89530   0.95784   0.00000  Uiso   1.00
C989   C     0.83422   0.75412   0.83313   0.00000  Uiso   1.00
C990   C     0.83244   0.91254   0.83354   0.00000  Uiso   1.00
C991   C     0.73483   0.83363   0.82161   0.00000  Uiso   1.00
C992   C     0.93184   0.83304   0.84506   0.00000  Uiso   1.00
C993   C     0.68059   0.83961   0.81640   0.00000  Uiso   1.00
C994   C     0.98607   0.82706   0.85027   0.00000  Uiso   1.00
C995   C     0.86117   0.68713   0.80165   0.00000  Uiso   1.00
C996   C     0.80550   0.97953   0.86502   0.00000  Uiso   1.00
C997   C     0.85971   0.97775   0.80239   0.00000  Uiso   1.00
C998   C     0.80695   0.68892   0.86427   0.00000  Uiso   1.00
C999   C     0.83228   0.95716   0.83394   0.00000  Uiso   1.00
C1000  C     0.83439   0.70950   0.83273   0.00000  Uiso   1.00
C1001  C     0.80237   0.80655   0.68678   0.00000  Uiso   1.00
C1002  C     0.86430   0.86011   0.97989   0.00000  Uiso   1.00
C1003  C     0.80275   0.80657   0.97079   0.00000  Uiso   1.00
C1004  C     0.86391   0.86009   0.69588   0.00000  Uiso   1.00
Cu1005 Cu    0.83333   0.83334   0.88022   0.00000  Uiso   1.00
Cu1006 Cu    0.83333   0.83333   0.78645   0.00000  Uiso   1.00
H1007  H     0.88094   0.96054   0.77885   0.00000  Uiso   1.00
H1008  H     0.78572   0.70613   0.88781   0.00000  Uiso   1.00
H1009  H     0.77863   0.78496   0.94862   0.00000  Uiso   1.00
H1010  H     0.88804   0.88171   0.71804   0.00000  Uiso   1.00
N1011  N     0.83335   0.83334   0.95069   0.00000  Uiso   1.00
N1012  N     0.83332   0.83332   0.71597   0.00000  Uiso   1.00
O1013  O     0.83333   0.77322   0.87291   0.00000  Uiso   1.00
O1014  O     0.83334   0.89345   0.79375   0.00000  Uiso   1.00
O1015  O     0.83333   0.77321   0.79372   0.00000  Uiso   1.00
O1016  O     0.83334   0.89346   0.87294   0.00000  Uiso   1.00
O1017  O     0.75828   0.83334   0.86379   0.00000  Uiso   1.00
O1018  O     0.90839   0.83333   0.80288   0.00000  Uiso   1.00
O1019  O     0.75828   0.83333   0.78460   0.00000  Uiso   1.00
O1020  O     0.90839   0.83334   0.88207   0.00000  Uiso   1.00
Cl1021 Cl    0.98975   0.87043   0.76805   0.00000  Uiso   1.00
Cl1022 Cl    0.67692   0.79624   0.89862   0.00000  Uiso   1.00
Cl1023 Cl    0.89934   0.71095   0.76320   0.00000  Uiso   1.00
Cl1024 Cl    0.76733   0.95571   0.90347   0.00000  Uiso   1.00
Cl1025 Cl    0.76057   0.77137   0.70883   0.00000  Uiso   1.00
Cl1026 Cl    0.90610   0.89530   0.95784   0.00000  Uiso   1.00
loop_
_geom_bond_atom_site_label_1
_geom_bond_atom_site_label_2
_geom_bond_distance
_geom_bond_site_symmetry_2
_ccdc_geom_bond_type
C1     O25     1.293   .     A
C1     C12     1.446   .     S
C1     O27     1.293   .     A
C2     C11     1.446   .     S
C2     O28     1.293   .     A
C2     O26     1.293   .     A
C3     O31     1.296   .     A
C3     O29     1.284   .     A
C3     C5      1.434   .     S
C4     O32     1.296   .     A
C4     C6      1.434   .     S
C4     O30     1.284   .     A
C5     C82     1.355   1_455 S
C5     Cl109   1.774   1_455 S
C6     C43     1.355   .     S
C6     Cl72    1.774   .     S
C7     C12     1.407   .     A
C7     Cl35    1.765   .     S
C7     C237    1.385   1_545 S
C8     C11     1.407   .     A
C8     Cl36    1.765   .     S
C8     C124    1.385   .     S
C9     C11     1.400   .     A
C9     H19     1.085   .     S
C9     C121    1.385   .     S
C10    C12     1.400   .     A
C10    H20     1.085   .     S
C10    C236    1.385   1_545 S
C13    Cl37    1.755   .     S
C13    N24     1.379   .     A
C13    C699    1.415   1_554 S
C14    N23     1.379   .     A
C14    Cl38    1.755   .     S
C14    C358    1.415   .     S
C15    N23     1.360   .     A
C15    H21     1.081   .     S
C15    C355    1.415   .     S
C16    N24     1.360   .     A
C16    H22     1.081   .     S
C16    C698    1.415   1_554 S
Cu17   O29     1.973   .     S
Cu17   O25     1.957   .     S
Cu17   Cu18    2.687   .     S
Cu17   N23     2.019   .     S
Cu17   O32     1.972   .     S
Cu17   O28     1.963   .     S
Cu18   O30     1.973   .     S
Cu18   O26     1.957   .     S
Cu18   N24     2.019   .     S
Cu18   O31     1.972   .     S
Cu18   O27     1.963   .     S
Cl33   C43     1.774   .     S
Cl34   C82     1.774   1_455 S
C39    O63     1.293   .     A
C39    C50     1.446   .     S
C39    O65     1.293   .     A
C40    C49     1.446   .     S
C40    O66     1.293   .     A
C40    O64     1.293   .     A
C41    O69     1.296   .     A
C41    O67     1.284   .     A
C41    C43     1.434   .     S
C42    O70     1.296   .     A
C42    C44     1.434   .     S
C42    O68     1.284   .     A
C44    C81     1.355   .     S
C44    Cl110   1.774   .     S
C45    C50     1.407   .     A
C45    Cl73    1.765   .     S
C45    C275    1.385   1_545 S
C46    C49     1.407   .     A
C46    Cl74    1.765   .     S
C46    C162    1.385   .     S
C47    C49     1.400   .     A
C47    H57     1.085   .     S
C47    C159    1.385   .     S
C48    C50     1.400   .     A
C48    H58     1.085   .     S
C48    C274    1.385   1_545 S
C51    Cl75    1.755   .     S
C51    N62     1.379   .     A
C51    C737    1.415   1_554 S
C52    N61     1.379   .     A
C52    Cl76    1.755   .     S
C52    C396    1.415   .     S
C53    N61     1.360   .     A
C53    H59     1.081   .     S
C53    C393    1.415   .     S
C54    N62     1.360   .     A
C54    H60     1.081   .     S
C54    C736    1.415   1_554 S
Cu55   O67     1.973   .     S
Cu55   O63     1.957   .     S
Cu55   Cu56    2.687   .     S
Cu55   N61     2.019   .     S
Cu55   O70     1.972   .     S
Cu55   O66     1.963   .     S
Cu56   O68     1.973   .     S
Cu56   O64     1.957   .     S
Cu56   N62     2.019   .     S
Cu56   O69     1.972   .     S
Cu56   O65     1.963   .     S
Cl71   C81     1.774   .     S
C77    O101    1.293   .     A
C77    C88     1.446   .     S
C77    O103    1.293   .     A
C78    C87     1.446   .     S
C78    O104    1.293   .     A
C78    O102    1.293   .     A
C79    O107    1.296   .     A
C79    O105    1.284   .     A
C79    C81     1.434   .     S
C80    O108    1.296   .     A
C80    C82     1.434   .     S
C80    O106    1.284   .     A
C82    C5      1.355   1_655 S
C82    Cl34    1.774   1_655 S
C83    C88     1.407   .     A
C83    Cl111   1.765   .     S
C83    C313    1.385   1_545 S
C84    C87     1.407   .     A
C84    Cl112   1.765   .     S
C84    C200    1.385   .     S
C85    C87     1.400   .     A
C85    H95     1.085   .     S
C85    C197    1.385   .     S
C86    C88     1.400   .     A
C86    H96     1.085   .     S
C86    C312    1.385   1_545 S
C89    Cl113   1.755   .     S
C89    N100    1.379   .     A
C89    C775    1.415   1_554 S
C90    N99     1.379   .     A
C90    Cl114   1.755   .     S
C90    C434    1.415   .     S
C91    N99     1.360   .     A
C91    H97     1.081   .     S
C91    C431    1.415   .     S
C92    N100    1.360   .     A
C92    H98     1.081   .     S
C92    C774    1.415   1_554 S
Cu93   O105    1.973   .     S
Cu93   O101    1.957   .     S
Cu93   Cu94    2.687   .     S
Cu93   N99     2.019   .     S
Cu93   O108    1.972   .     S
Cu93   O104    1.963   .     S
Cu94   O106    1.973   .     S
Cu94   O102    1.957   .     S
Cu94   N100    2.019   .     S
Cu94   O107    1.972   .     S
Cu94   O103    1.963   .     S
Cl109  C5      1.774   1_655 S
C115   O139    1.293   .     A
C115   C126    1.446   .     S
C115   O141    1.293   .     A
C116   C125    1.446   .     S
C116   O142    1.293   .     A
C116   O140    1.293   .     A
C117   O145    1.296   .     A
C117   O143    1.284   .     A
C117   C119    1.434   .     S
C118   O146    1.296   .     A
C118   C120    1.434   .     S
C118   O144    1.284   .     A
C119   C196    1.355   1_455 S
C119   Cl223   1.774   1_455 S
C120   C157    1.355   .     S
C120   Cl186   1.774   .     S
C121   C126    1.407   .     A
C121   Cl149   1.765   .     S
C122   C125    1.407   .     A
C122   Cl150   1.765   .     S
C122   C238    1.385   .     S
C123   C125    1.400   .     A
C123   H133    1.085   .     S
C123   C235    1.385   .     S
C124   C126    1.400   .     A
C124   H134    1.085   .     S
C127   Cl151   1.755   .     S
C127   N138    1.379   .     A
C127   C813    1.415   1_554 S
C128   N137    1.379   .     A
C128   Cl152   1.755   .     S
C128   C472    1.415   .     S
C129   N137    1.360   .     A
C129   H135    1.081   .     S
C129   C469    1.415   .     S
C130   N138    1.360   .     A
C130   H136    1.081   .     S
C130   C812    1.415   1_554 S
Cu131  O143    1.973   .     S
Cu131  O139    1.957   .     S
Cu131  Cu132   2.687   .     S
Cu131  N137    2.019   .     S
Cu131  O146    1.972   .     S
Cu131  O142    1.963   .     S
Cu132  O144    1.973   .     S
Cu132  O140    1.957   .     S
Cu132  N138    2.019   .     S
Cu132  O145    1.972   .     S
Cu132  O141    1.963   .     S
Cl147  C157    1.774   .     S
Cl148  C196    1.774   1_455 S
C153   O177    1.293   .     A
C153   C164    1.446   .     S
C153   O179    1.293   .     A
C154   C163    1.446   .     S
C154   O180    1.293   .     A
C154   O178    1.293   .     A
C155   O183    1.296   .     A
C155   O181    1.284   .     A
C155   C157    1.434   .     S
C156   O184    1.296   .     A
C156   C158    1.434   .     S
C156   O182    1.284   .     A
C158   C195    1.355   .     S
C158   Cl224   1.774   .     S
C159   C164    1.407   .     A
C159   Cl187   1.765   .     S
C160   C163    1.407   .     A
C160   Cl188   1.765   .     S
C160   C276    1.385   .     S
C161   C163    1.400   .     A
C161   H171    1.085   .     S
C161   C273    1.385   .     S
C162   C164    1.400   .     A
C162   H172    1.085   .     S
C165   Cl189   1.755   .     S
C165   N176    1.379   .     A
C165   C851    1.415   1_554 S
C166   N175    1.379   .     A
C166   Cl190   1.755   .     S
C166   C510    1.415   .     S
C167   N175    1.360   .     A
C167   H173    1.081   .     S
C167   C507    1.415   .     S
C168   N176    1.360   .     A
C168   H174    1.081   .     S
C168   C850    1.415   1_554 S
Cu169  O181    1.973   .     S
Cu169  O177    1.957   .     S
Cu169  Cu170   2.687   .     S
Cu169  N175    2.019   .     S
Cu169  O184    1.972   .     S
Cu169  O180    1.963   .     S
Cu170  O182    1.973   .     S
Cu170  O178    1.957   .     S
Cu170  N176    2.019   .     S
Cu170  O183    1.972   .     S
Cu170  O179    1.963   .     S
Cl185  C195    1.774   .     S
C191   O215    1.293   .     A
C191   C202    1.446   .     S
C191   O217    1.293   .     A
C192   C201    1.446   .     S
C192   O218    1.293   .     A
C192   O216    1.293   .     A
C193   O221    1.296   .     A
C193   O219    1.284   .     A
C193   C195    1.434   .     S
C194   O222    1.296   .     A
C194   C196    1.434   .     S
C194   O220    1.284   .     A
C196   C119    1.355   1_655 S
C196   Cl148   1.774   1_655 S
C197   C202    1.407   .     A
C197   Cl225   1.765   .     S
C198   C201    1.407   .     A
C198   Cl226   1.765   .     S
C198   C314    1.385   .     S
C199   C201    1.400   .     A
C199   H209    1.085   .     S
C199   C311    1.385   .     S
C200   C202    1.400   .     A
C200   H210    1.085   .     S
C203   Cl227   1.755   .     S
C203   N214    1.379   .     A
C203   C889    1.415   1_554 S
C204   N213    1.379   .     A
C204   Cl228   1.755   .     S
C204   C548    1.415   .     S
C205   N213    1.360   .     A
C205   H211    1.081   .     S
C205   C545    1.415   .     S
C206   N214    1.360   .     A
C206   H212    1.081   .     S
C206   C888    1.415   1_554 S
Cu207  O219    1.973   .     S
Cu207  O215    1.957   .     S
Cu207  Cu208   2.687   .     S
Cu207  N213    2.019   .     S
Cu207  O222    1.972   .     S
Cu207  O218    1.963   .     S
Cu208  O220    1.973   .     S
Cu208  O216    1.957   .     S
Cu208  N214    2.019   .     S
Cu208  O221    1.972   .     S
Cu208  O217    1.963   .     S
Cl223  C119    1.774   1_655 S
C229   O253    1.293   .     A
C229   C240    1.446   .     S
C229   O255    1.293   .     A
C230   C239    1.446   .     S
C230   O256    1.293   .     A
C230   O254    1.293   .     A
C231   O259    1.296   .     A
C231   O257    1.284   .     A
C231   C233    1.434   .     S
C232   O260    1.296   .     A
C232   C234    1.434   .     S
C232   O258    1.284   .     A
C233   C310    1.355   1_455 S
C233   Cl337   1.774   1_455 S
C234   C271    1.355   .     S
C234   Cl300   1.774   .     S
C235   C240    1.407   .     A
C235   Cl263   1.765   .     S
C236   C239    1.407   .     A
C236   Cl264   1.765   .     S
C236   C10     1.385   1_565 S
C237   C239    1.400   .     A
C237   H247    1.085   .     S
C237   C7      1.385   1_565 S
C238   C240    1.400   .     A
C238   H248    1.085   .     S
C241   Cl265   1.755   .     S
C241   N252    1.379   .     A
C241   C927    1.415   1_554 S
C242   N251    1.379   .     A
C242   Cl266   1.755   .     S
C242   C586    1.415   .     S
C243   N251    1.360   .     A
C243   H249    1.081   .     S
C243   C583    1.415   .     S
C244   N252    1.360   .     A
C244   H250    1.081   .     S
C244   C926    1.415   1_554 S
Cu245  O257    1.973   .     S
Cu245  O253    1.957   .     S
Cu245  Cu246   2.687   .     S
Cu245  N251    2.019   .     S
Cu245  O260    1.972   .     S
Cu245  O256    1.963   .     S
Cu246  O258    1.973   .     S
Cu246  O254    1.957   .     S
Cu246  N252    2.019   .     S
Cu246  O259    1.972   .     S
Cu246  O255    1.963   .     S
Cl261  C271    1.774   .     S
Cl262  C310    1.774   1_455 S
C267   O291    1.293   .     A
C267   C278    1.446   .     S
C267   O293    1.293   .     A
C268   C277    1.446   .     S
C268   O294    1.293   .     A
C268   O292    1.293   .     A
C269   O297    1.296   .     A
C269   O295    1.284   .     A
C269   C271    1.434   .     S
C270   O298    1.296   .     A
C270   C272    1.434   .     S
C270   O296    1.284   .     A
C272   C309    1.355   .     S
C272   Cl338   1.774   .     S
C273   C278    1.407   .     A
C273   Cl301   1.765   .     S
C274   C277    1.407   .     A
C274   Cl302   1.765   .     S
C274   C48     1.385   1_565 S
C275   C277    1.400   .     A
C275   H285    1.085   .     S
C275   C45     1.385   1_565 S
C276   C278    1.400   .     A
C276   H286    1.085   .     S
C279   Cl303   1.755   .     S
C279   N290    1.379   .     A
C279   C965    1.415   1_554 S
C280   N289    1.379   .     A
C280   Cl304   1.755   .     S
C280   C624    1.415   .     S
C281   N289    1.360   .     A
C281   H287    1.081   .     S
C281   C621    1.415   .     S
C282   N290    1.360   .     A
C282   H288    1.081   .     S
C282   C964    1.415   1_554 S
Cu283  O295    1.973   .     S
Cu283  O291    1.957   .     S
Cu283  Cu284   2.687   .     S
Cu283  N289    2.019   .     S
Cu283  O298    1.972   .     S
Cu283  O294    1.963   .     S
Cu284  O296    1.973   .     S
Cu284  O292    1.957   .     S
Cu284  N290    2.019   .     S
Cu284  O297    1.972   .     S
Cu284  O293    1.963   .     S
Cl299  C309    1.774   .     S
C305   O329    1.293   .     A
C305   C316    1.446   .     S
C305   O331    1.293   .     A
C306   C315    1.446   .     S
C306   O332    1.293   .     A
C306   O330    1.293   .     A
C307   O335    1.296   .     A
C307   O333    1.284   .     A
C307   C309    1.434   .     S
C308   O336    1.296   .     A
C308   C310    1.434   .     S
C308   O334    1.284   .     A
C310   C233    1.355   1_655 S
C310   Cl262   1.774   1_655 S
C311   C316    1.407   .     A
C311   Cl339   1.765   .     S
C312   C315    1.407   .     A
C312   Cl340   1.765   .     S
C312   C86     1.385   1_565 S
C313   C315    1.400   .     A
C313   H323    1.085   .     S
C313   C83     1.385   1_565 S
C314   C316    1.400   .     A
C314   H324    1.085   .     S
C317   Cl341   1.755   .     S
C317   N328    1.379   .     A
C317   C1003   1.415   1_554 S
C318   N327    1.379   .     A
C318   Cl342   1.755   .     S
C318   C662    1.415   .     S
C319   N327    1.360   .     A
C319   H325    1.081   .     S
C319   C659    1.415   .     S
C320   N328    1.360   .     A
C320   H326    1.081   .     S
C320   C1002   1.415   1_554 S
Cu321  O333    1.973   .     S
Cu321  O329    1.957   .     S
Cu321  Cu322   2.687   .     S
Cu321  N327    2.019   .     S
Cu321  O336    1.972   .     S
Cu321  O332    1.963   .     S
Cu322  O334    1.973   .     S
Cu322  O330    1.957   .     S
Cu322  N328    2.019   .     S
Cu322  O335    1.972   .     S
Cu322  O331    1.963   .     S
Cl337  C233    1.774   1_655 S
C343   O367    1.293   .     A
C343   C354    1.446   .     S
C343   O369    1.293   .     A
C344   C353    1.446   .     S
C344   O370    1.293   .     A
C344   O368    1.293   .     A
C345   O373    1.296   .     A
C345   O371    1.284   .     A
C345   C347    1.434   .     S
C346   O374    1.296   .     A
C346   C348    1.434   .     S
C346   O372    1.284   .     A
C347   C424    1.355   1_455 S
C347   Cl451   1.774   1_455 S
C348   C385    1.355   .     S
C348   Cl414   1.774   .     S
C349   C354    1.407   .     A
C349   Cl377   1.765   .     S
C349   C579    1.385   1_545 S
C350   C353    1.407   .     A
C350   Cl378   1.765   .     S
C350   C466    1.385   .     S
C351   C353    1.400   .     A
C351   H361    1.085   .     S
C351   C463    1.385   .     S
C352   C354    1.400   .     A
C352   H362    1.085   .     S
C352   C578    1.385   1_545 S
C355   Cl379   1.755   .     S
C355   N366    1.379   .     A
C356   N365    1.379   .     A
C356   Cl380   1.755   .     S
C356   C700    1.415   .     S
C357   N365    1.360   .     A
C357   H363    1.081   .     S
C357   C697    1.415   .     S
C358   N366    1.360   .     A
C358   H364    1.081   .     S
Cu359  O371    1.973   .     S
Cu359  O367    1.957   .     S
Cu359  Cu360   2.687   .     S
Cu359  N365    2.019   .     S
Cu359  O374    1.972   .     S
Cu359  O370    1.963   .     S
Cu360  O372    1.973   .     S
Cu360  O368    1.957   .     S
Cu360  N366    2.019   .     S
Cu360  O373    1.972   .     S
Cu360  O369    1.963   .     S
Cl375  C385    1.774   .     S
Cl376  C424    1.774   1_455 S
C381   O405    1.293   .     A
C381   C392    1.446   .     S
C381   O407    1.293   .     A
C382   C391    1.446   .     S
C382   O408    1.293   .     A
C382   O406    1.293   .     A
C383   O411    1.296   .     A
C383   O409    1.284   .     A
C383   C385    1.434   .     S
C384   O412    1.296   .     A
C384   C386    1.434   .     S
C384   O410    1.284   .     A
C386   C423    1.355   .     S
C386   Cl452   1.774   .     S
C387   C392    1.407   .     A
C387   Cl415   1.765   .     S
C387   C617    1.385   1_545 S
C388   C391    1.407   .     A
C388   Cl416   1.765   .     S
C388   C504    1.385   .     S
C389   C391    1.400   .     A
C389   H399    1.085   .     S
C389   C501    1.385   .     S
C390   C392    1.400   .     A
C390   H400    1.085   .     S
C390   C616    1.385   1_545 S
C393   Cl417   1.755   .     S
C393   N404    1.379   .     A
C394   N403    1.379   .     A
C394   Cl418   1.755   .     S
C394   C738    1.415   .     S
C395   N403    1.360   .     A
C395   H401    1.081   .     S
C395   C735    1.415   .     S
C396   N404    1.360   .     A
C396   H402    1.081   .     S
Cu397  O409    1.973   .     S
Cu397  O405    1.957   .     S
Cu397  Cu398   2.687   .     S
Cu397  N403    2.019   .     S
Cu397  O412    1.972   .     S
Cu397  O408    1.963   .     S
Cu398  O410    1.973   .     S
Cu398  O406    1.957   .     S
Cu398  N404    2.019   .     S
Cu398  O411    1.972   .     S
Cu398  O407    1.963   .     S
Cl413  C423    1.774   .     S
C419   O443    1.293   .     A
C419   C430    1.446   .     S
C419   O445    1.293   .     A
C420   C429    1.446   .     S
C420   O446    1.293   .     A
C420   O444    1.293   .     A
C421   O449    1.296   .     A
C421   O447    1.284   .     A
C421   C423    1.434   .     S
C422   O450    1.296   .     A
C422   C424    1.434   .     S
C422   O448    1.284   .     A
C424   C347    1.355   1_655 S
C424   Cl376   1.774   1_655 S
C425   C430    1.407   .     A
C425   Cl453   1.765   .     S
C425   C655    1.385   1_545 S
C426   C429    1.407   .     A
C426   Cl454   1.765   .     S
C426   C542    1.385   .     S
C427   C429    1.400   .     A
C427   H437    1.085   .     S
C427   C539    1.385   .     S
C428   C430    1.400   .     A
C428   H438    1.085   .     S
C428   C654    1.385   1_545 S
C431   Cl455   1.755   .     S
C431   N442    1.379   .     A
C432   N441    1.379   .     A
C432   Cl456   1.755   .     S
C432   C776    1.415   .     S
C433   N441    1.360   .     A
C433   H439    1.081   .     S
C433   C773    1.415   .     S
C434   N442    1.360   .     A
C434   H440    1.081   .     S
Cu435  O447    1.973   .     S
Cu435  O443    1.957   .     S
Cu435  Cu436   2.687   .     S
Cu435  N441    2.019   .     S
Cu435  O450    1.972   .     S
Cu435  O446    1.963   .     S
Cu436  O448    1.973   .     S
Cu436  O444    1.957   .     S
Cu436  N442    2.019   .     S
Cu436  O449    1.972   .     S
Cu436  O445    1.963   .     S
Cl451  C347    1.774   1_655 S
C457   O481    1.293   .     A
C457   C468    1.446   .     S
C457   O483    1.293   .     A
C458   C467    1.446   .     S
C458   O484    1.293   .     A
C458   O482    1.293   .     A
C459   O487    1.296   .     A
C459   O485    1.284   .     A
C459   C461    1.434   .     S
C460   O488    1.296   .     A
C460   C462    1.434   .     S
C460   O486    1.284   .     A
C461   C538    1.355   1_455 S
C461   Cl565   1.774   1_455 S
C462   C499    1.355   .     S
C462   Cl528   1.774   .     S
C463   C468    1.407   .     A
C463   Cl491   1.765   .     S
C464   C467    1.407   .     A
C464   Cl492   1.765   .     S
C464   C580    1.385   .     S
C465   C467    1.400   .     A
C465   H475    1.085   .     S
C465   C577    1.385   .     S
C466   C468    1.400   .     A
C466   H476    1.085   .     S
C469   Cl493   1.755   .     S
C469   N480    1.379   .     A
C470   N479    1.379   .     A
C470   Cl494   1.755   .     S
C470   C814    1.415   .     S
C471   N479    1.360   .     A
C471   H477    1.081   .     S
C471   C811    1.415   .     S
C472   N480    1.360   .     A
C472   H478    1.081   .     S
Cu473  O485    1.973   .     S
Cu473  O481    1.957   .     S
Cu473  Cu474   2.687   .     S
Cu473  N479    2.019   .     S
Cu473  O488    1.972   .     S
Cu473  O484    1.963   .     S
Cu474  O486    1.973   .     S
Cu474  O482    1.957   .     S
Cu474  N480    2.019   .     S
Cu474  O487    1.972   .     S
Cu474  O483    1.963   .     S
Cl489  C499    1.774   .     S
Cl490  C538    1.774   1_455 S
C495   O519    1.293   .     A
C495   C506    1.446   .     S
C495   O521    1.293   .     A
C496   C505    1.446   .     S
C496   O522    1.293   .     A
C496   O520    1.293   .     A
C497   O525    1.296   .     A
C497   O523    1.284   .     A
C497   C499    1.434   .     S
C498   O526    1.296   .     A
C498   C500    1.434   .     S
C498   O524    1.284   .     A
C500   C537    1.355   .     S
C500   Cl566   1.774   .     S
C501   C506    1.407   .     A
C501   Cl529   1.765   .     S
C502   C505    1.407   .     A
C502   Cl530   1.765   .     S
C502   C618    1.385   .     S
C503   C505    1.400   .     A
C503   H513    1.085   .     S
C503   C615    1.385   .     S
C504   C506    1.400   .     A
C504   H514    1.085   .     S
C507   Cl531   1.755   .     S
C507   N518    1.379   .     A
C508   N517    1.379   .     A
C508   Cl532   1.755   .     S
C508   C852    1.415   .     S
C509   N517    1.360   .     A
C509   H515    1.081   .     S
C509   C849    1.415   .     S
C510   N518    1.360   .     A
C510   H516    1.081   .     S
Cu511  O523    1.973   .     S
Cu511  O519    1.957   .     S
Cu511  Cu512   2.687   .     S
Cu511  N517    2.019   .     S
Cu511  O526    1.972   .     S
Cu511  O522    1.963   .     S
Cu512  O524    1.973   .     S
Cu512  O520    1.957   .     S
Cu512  N518    2.019   .     S
Cu512  O525    1.972   .     S
Cu512  O521    1.963   .     S
Cl527  C537    1.774   .     S
C533   O557    1.293   .     A
C533   C544    1.446   .     S
C533   O559    1.293   .     A
C534   C543    1.446   .     S
C534   O560    1.293   .     A
C534   O558    1.293   .     A
C535   O563    1.296   .     A
C535   O561    1.284   .     A
C535   C537    1.434   .     S
C536   O564    1.296   .     A
C536   C538    1.434   .     S
C536   O562    1.284   .     A
C538   C461    1.355   1_655 S
C538   Cl490   1.774   1_655 S
C539   C544    1.407   .     A
C539   Cl567   1.765   .     S
C540   C543    1.407   .     A
C540   Cl568   1.765   .     S
C540   C656    1.385   .     S
C541   C543    1.400   .     A
C541   H551    1.085   .     S
C541   C653    1.385   .     S
C542   C544    1.400   .     A
C542   H552    1.085   .     S
C545   Cl569   1.755   .     S
C545   N556    1.379   .     A
C546   N555    1.379   .     A
C546   Cl570   1.755   .     S
C546   C890    1.415   .     S
C547   N555    1.360   .     A
C547   H553    1.081   .     S
C547   C887    1.415   .     S
C548   N556    1.360   .     A
C548   H554    1.081   .     S
Cu549  O561    1.973   .     S
Cu549  O557    1.957   .     S
Cu549  Cu550   2.687   .     S
Cu549  N555    2.019   .     S
Cu549  O564    1.972   .     S
Cu549  O560    1.963   .     S
Cu550  O562    1.973   .     S
Cu550  O558    1.957   .     S
Cu550  N556    2.019   .     S
Cu550  O563    1.972   .     S
Cu550  O559    1.963   .     S
Cl565  C461    1.774   1_655 S
C571   O595    1.293   .     A
C571   C582    1.446   .     S
C571   O597    1.293   .     A
C572   C581    1.446   .     S
C572   O598    1.293   .     A
C572   O596    1.293   .     A
C573   O601    1.296   .     A
C573   O599    1.284   .     A
C573   C575    1.434   .     S
C574   O602    1.296   .     A
C574   C576    1.434   .     S
C574   O600    1.284   .     A
C575   C652    1.355   1_455 S
C575   Cl679   1.774   1_455 S
C576   C613    1.355   .     S
C576   Cl642   1.774   .     S
C577   C582    1.407   .     A
C577   Cl605   1.765   .     S
C578   C581    1.407   .     A
C578   Cl606   1.765   .     S
C578   C352    1.385   1_565 S
C579   C581    1.400   .     A
C579   H589    1.085   .     S
C579   C349    1.385   1_565 S
C580   C582    1.400   .     A
C580   H590    1.085   .     S
C583   Cl607   1.755   .     S
C583   N594    1.379   .     A
C584   N593    1.379   .     A
C584   Cl608   1.755   .     S
C584   C928    1.415   .     S
C585   N593    1.360   .     A
C585   H591    1.081   .     S
C585   C925    1.415   .     S
C586   N594    1.360   .     A
C586   H592    1.081   .     S
Cu587  O599    1.973   .     S
Cu587  O595    1.957   .     S
Cu587  Cu588   2.687   .     S
Cu587  N593    2.019   .     S
Cu587  O602    1.972   .     S
Cu587  O598    1.963   .     S
Cu588  O600    1.973   .     S
Cu588  O596    1.957   .     S
Cu588  N594    2.019   .     S
Cu588  O601    1.972   .     S
Cu588  O597    1.963   .     S
Cl603  C613    1.774   .     S
Cl604  C652    1.774   1_455 S
C609   O633    1.293   .     A
C609   C620    1.446   .     S
C609   O635    1.293   .     A
C610   C619    1.446   .     S
C610   O636    1.293   .     A
C610   O634    1.293   .     A
C611   O639    1.296   .     A
C611   O637    1.284   .     A
C611   C613    1.434   .     S
C612   O640    1.296   .     A
C612   C614    1.434   .     S
C612   O638    1.284   .     A
C614   C651    1.355   .     S
C614   Cl680   1.774   .     S
C615   C620    1.407   .     A
C615   Cl643   1.765   .     S
C616   C619    1.407   .     A
C616   Cl644   1.765   .     S
C616   C390    1.385   1_565 S
C617   C619    1.400   .     A
C617   H627    1.085   .     S
C617   C387    1.385   1_565 S
C618   C620    1.400   .     A
C618   H628    1.085   .     S
C621   Cl645   1.755   .     S
C621   N632    1.379   .     A
C622   N631    1.379   .     A
C622   Cl646   1.755   .     S
C622   C966    1.415   .     S
C623   N631    1.360   .     A
C623   H629    1.081   .     S
C623   C963    1.415   .     S
C624   N632    1.360   .     A
C624   H630    1.081   .     S
Cu625  O637    1.973   .     S
Cu625  O633    1.957   .     S
Cu625  Cu626   2.687   .     S
Cu625  N631    2.019   .     S
Cu625  O640    1.972   .     S
Cu625  O636    1.963   .     S
Cu626  O638    1.973   .     S
Cu626  O634    1.957   .     S
Cu626  N632    2.019   .     S
Cu626  O639    1.972   .     S
Cu626  O635    1.963   .     S
Cl641  C651    1.774   .     S
C647   O671    1.293   .     A
C647   C658    1.446   .     S
C647   O673    1.293   .     A
C648   C657    1.446   .     S
C648   O674    1.293   .     A
C648   O672    1.293   .     A
C649   O677    1.296   .     A
C649   O675    1.284   .     A
C649   C651    1.434   .     S
C650   O678    1.296   .     A
C650   C652    1.434   .     S
C650   O676    1.284   .     A
C652   C575    1.355   1_655 S
C652   Cl604   1.774   1_655 S
C653   C658    1.407   .     A
C653   Cl681   1.765   .     S
C654   C657    1.407   .     A
C654   Cl682   1.765   .     S
C654   C428    1.385   1_565 S
C655   C657    1.400   .     A
C655   H665    1.085   .     S
C655   C425    1.385   1_565 S
C656   C658    1.400   .     A
C656   H666    1.085   .     S
C659   Cl683   1.755   .     S
C659   N670    1.379   .     A
C660   N669    1.379   .     A
C660   Cl684   1.755   .     S
C660   C1004   1.415   .     S
C661   N669    1.360   .     A
C661   H667    1.081   .     S
C661   C1001   1.415   .     S
C662   N670    1.360   .     A
C662   H668    1.081   .     S
Cu663  O675    1.973   .     S
Cu663  O671    1.957   .     S
Cu663  Cu664   2.687   .     S
Cu663  N669    2.019   .     S
Cu663  O678    1.972   .     S
Cu663  O674    1.963   .     S
Cu664  O676    1.973   .     S
Cu664  O672    1.957   .     S
Cu664  N670    2.019   .     S
Cu664  O677    1.972   .     S
Cu664  O673    1.963   .     S
Cl679  C575    1.774   1_655 S
C685   O709    1.293   .     A
C685   C696    1.446   .     S
C685   O711    1.293   .     A
C686   C695    1.446   .     S
C686   O712    1.293   .     A
C686   O710    1.293   .     A
C687   O715    1.296   .     A
C687   O713    1.284   .     A
C687   C689    1.434   .     S
C688   O716    1.296   .     A
C688   C690    1.434   .     S
C688   O714    1.284   .     A
C689   C766    1.355   1_455 S
C689   Cl793   1.774   1_455 S
C690   C727    1.355   .     S
C690   Cl756   1.774   .     S
C691   C696    1.407   .     A
C691   Cl719   1.765   .     S
C691   C921    1.385   1_545 S
C692   C695    1.407   .     A
C692   Cl720   1.765   .     S
C692   C808    1.385   .     S
C693   C695    1.400   .     A
C693   H703    1.085   .     S
C693   C805    1.385   .     S
C694   C696    1.400   .     A
C694   H704    1.085   .     S
C694   C920    1.385   1_545 S
C697   Cl721   1.755   .     S
C697   N708    1.379   .     A
C698   N707    1.379   .     A
C698   Cl722   1.755   .     S
C698   C16     1.415   1_556 S
C699   N707    1.360   .     A
C699   H705    1.081   .     S
C699   C13     1.415   1_556 S
C700   N708    1.360   .     A
C700   H706    1.081   .     S
Cu701  O713    1.973   .     S
Cu701  O709    1.957   .     S
Cu701  Cu702   2.687   .     S
Cu701  N707    2.019   .     S
Cu701  O716    1.972   .     S
Cu701  O712    1.963   .     S
Cu702  O714    1.973   .     S
Cu702  O710    1.957   .     S
Cu702  N708    2.019   .     S
Cu702  O715    1.972   .     S
Cu702  O711    1.963   .     S
Cl717  C727    1.774   .     S
Cl718  C766    1.774   1_455 S
C723   O747    1.293   .     A
C723   C734    1.446   .     S
C723   O749    1.293   .     A
C724   C733    1.446   .     S
C724   O750    1.293   .     A
C724   O748    1.293   .     A
C725   O753    1.296   .     A
C725   O751    1.284   .     A
C725   C727    1.434   .     S
C726   O754    1.296   .     A
C726   C728    1.434   .     S
C726   O752    1.284   .     A
C728   C765    1.355   .     S
C728   Cl794   1.774   .     S
C729   C734    1.407   .     A
C729   Cl757   1.765   .     S
C729   C959    1.385   1_545 S
C730   C733    1.407   .     A
C730   Cl758   1.765   .     S
C730   C846    1.385   .     S
C731   C733    1.400   .     A
C731   H741    1.085   .     S
C731   C843    1.385   .     S
C732   C734    1.400   .     A
C732   H742    1.085   .     S
C732   C958    1.385   1_545 S
C735   Cl759   1.755   .     S
C735   N746    1.379   .     A
C736   N745    1.379   .     A
C736   Cl760   1.755   .     S
C736   C54     1.415   1_556 S
C737   N745    1.360   .     A
C737   H743    1.081   .     S
C737   C51     1.415   1_556 S
C738   N746    1.360   .     A
C738   H744    1.081   .     S
Cu739  O751    1.973   .     S
Cu739  O747    1.957   .     S
Cu739  Cu740   2.687   .     S
Cu739  N745    2.019   .     S
Cu739  O754    1.972   .     S
Cu739  O750    1.963   .     S
Cu740  O752    1.973   .     S
Cu740  O748    1.957   .     S
Cu740  N746    2.019   .     S
Cu740  O753    1.972   .     S
Cu740  O749    1.963   .     S
Cl755  C765    1.774   .     S
C761   O785    1.293   .     A
C761   C772    1.446   .     S
C761   O787    1.293   .     A
C762   C771    1.446   .     S
C762   O788    1.293   .     A
C762   O786    1.293   .     A
C763   O791    1.296   .     A
C763   O789    1.284   .     A
C763   C765    1.434   .     S
C764   O792    1.296   .     A
C764   C766    1.434   .     S
C764   O790    1.284   .     A
C766   C689    1.355   1_655 S
C766   Cl718   1.774   1_655 S
C767   C772    1.407   .     A
C767   Cl795   1.765   .     S
C767   C997    1.385   1_545 S
C768   C771    1.407   .     A
C768   Cl796   1.765   .     S
C768   C884    1.385   .     S
C769   C771    1.400   .     A
C769   H779    1.085   .     S
C769   C881    1.385   .     S
C770   C772    1.400   .     A
C770   H780    1.085   .     S
C770   C996    1.385   1_545 S
C773   Cl797   1.755   .     S
C773   N784    1.379   .     A
C774   N783    1.379   .     A
C774   Cl798   1.755   .     S
C774   C92     1.415   1_556 S
C775   N783    1.360   .     A
C775   H781    1.081   .     S
C775   C89     1.415   1_556 S
C776   N784    1.360   .     A
C776   H782    1.081   .     S
Cu777  O789    1.973   .     S
Cu777  O785    1.957   .     S
Cu777  Cu778   2.687   .     S
Cu777  N783    2.019   .     S
Cu777  O792    1.972   .     S
Cu777  O788    1.963   .     S
Cu778  O790    1.973   .     S
Cu778  O786    1.957   .     S
Cu778  N784    2.019   .     S
Cu778  O791    1.972   .     S
Cu778  O787    1.963   .     S
Cl793  C689    1.774   1_655 S
C799   O823    1.293   .     A
C799   C810    1.446   .     S
C799   O825    1.293   .     A
C800   C809    1.446   .     S
C800   O826    1.293   .     A
C800   O824    1.293   .     A
C801   O829    1.296   .     A
C801   O827    1.284   .     A
C801   C803    1.434   .     S
C802   O830    1.296   .     A
C802   C804    1.434   .     S
C802   O828    1.284   .     A
C803   C880    1.355   1_455 S
C803   Cl907   1.774   1_455 S
C804   C841    1.355   .     S
C804   Cl870   1.774   .     S
C805   C810    1.407   .     A
C805   Cl833   1.765   .     S
C806   C809    1.407   .     A
C806   Cl834   1.765   .     S
C806   C922    1.385   .     S
C807   C809    1.400   .     A
C807   H817    1.085   .     S
C807   C919    1.385   .     S
C808   C810    1.400   .     A
C808   H818    1.085   .     S
C811   Cl835   1.755   .     S
C811   N822    1.379   .     A
C812   N821    1.379   .     A
C812   Cl836   1.755   .     S
C812   C130    1.415   1_556 S
C813   N821    1.360   .     A
C813   H819    1.081   .     S
C813   C127    1.415   1_556 S
C814   N822    1.360   .     A
C814   H820    1.081   .     S
Cu815  O827    1.973   .     S
Cu815  O823    1.957   .     S
Cu815  Cu816   2.687   .     S
Cu815  N821    2.019   .     S
Cu815  O830    1.972   .     S
Cu815  O826    1.963   .     S
Cu816  O828    1.973   .     S
Cu816  O824    1.957   .     S
Cu816  N822    2.019   .     S
Cu816  O829    1.972   .     S
Cu816  O825    1.963   .     S
Cl831  C841    1.774   .     S
Cl832  C880    1.774   1_455 S
C837   O861    1.293   .     A
C837   C848    1.446   .     S
C837   O863    1.293   .     A
C838   C847    1.446   .     S
C838   O864    1.293   .     A
C838   O862    1.293   .     A
C839   O867    1.296   .     A
C839   O865    1.284   .     A
C839   C841    1.434   .     S
C840   O868    1.296   .     A
C840   C842    1.434   .     S
C840   O866    1.284   .     A
C842   C879    1.355   .     S
C842   Cl908   1.774   .     S
C843   C848    1.407   .     A
C843   Cl871   1.765   .     S
C844   C847    1.407   .     A
C844   Cl872   1.765   .     S
C844   C960    1.385   .     S
C845   C847    1.400   .     A
C845   H855    1.085   .     S
C845   C957    1.385   .     S
C846   C848    1.400   .     A
C846   H856    1.085   .     S
C849   Cl873   1.755   .     S
C849   N860    1.379   .     A
C850   N859    1.379   .     A
C850   Cl874   1.755   .     S
C850   C168    1.415   1_556 S
C851   N859    1.360   .     A
C851   H857    1.081   .     S
C851   C165    1.415   1_556 S
C852   N860    1.360   .     A
C852   H858    1.081   .     S
Cu853  O865    1.973   .     S
Cu853  O861    1.957   .     S
Cu853  Cu854   2.687   .     S
Cu853  N859    2.019   .     S
Cu853  O868    1.972   .     S
Cu853  O864    1.963   .     S
Cu854  O866    1.973   .     S
Cu854  O862    1.957   .     S
Cu854  N860    2.019   .     S
Cu854  O867    1.972   .     S
Cu854  O863    1.963   .     S
Cl869  C879    1.774   .     S
C875   O899    1.293   .     A
C875   C886    1.446   .     S
C875   O901    1.293   .     A
C876   C885    1.446   .     S
C876   O902    1.293   .     A
C876   O900    1.293   .     A
C877   O905    1.296   .     A
C877   O903    1.284   .     A
C877   C879    1.434   .     S
C878   O906    1.296   .     A
C878   C880    1.434   .     S
C878   O904    1.284   .     A
C880   C803    1.355   1_655 S
C880   Cl832   1.774   1_655 S
C881   C886    1.407   .     A
C881   Cl909   1.765   .     S
C882   C885    1.407   .     A
C882   Cl910   1.765   .     S
C882   C998    1.385   .     S
C883   C885    1.400   .     A
C883   H893    1.085   .     S
C883   C995    1.385   .     S
C884   C886    1.400   .     A
C884   H894    1.085   .     S
C887   Cl911   1.755   .     S
C887   N898    1.379   .     A
C888   N897    1.379   .     A
C888   Cl912   1.755   .     S
C888   C206    1.415   1_556 S
C889   N897    1.360   .     A
C889   H895    1.081   .     S
C889   C203    1.415   1_556 S
C890   N898    1.360   .     A
C890   H896    1.081   .     S
Cu891  O903    1.973   .     S
Cu891  O899    1.957   .     S
Cu891  Cu892   2.687   .     S
Cu891  N897    2.019   .     S
Cu891  O906    1.972   .     S
Cu891  O902    1.963   .     S
Cu892  O904    1.973   .     S
Cu892  O900    1.957   .     S
Cu892  N898    2.019   .     S
Cu892  O905    1.972   .     S
Cu892  O901    1.963   .     S
Cl907  C803    1.774   1_655 S
C913   O937    1.293   .     A
C913   C924    1.446   .     S
C913   O939    1.293   .     A
C914   C923    1.446   .     S
C914   O940    1.293   .     A
C914   O938    1.293   .     A
C915   O943    1.296   .     A
C915   O941    1.284   .     A
C915   C917    1.434   .     S
C916   O944    1.296   .     A
C916   C918    1.434   .     S
C916   O942    1.284   .     A
C917   C994    1.355   1_455 S
C917   Cl1021  1.774   1_455 S
C918   C955    1.355   .     S
C918   Cl984   1.774   .     S
C919   C924    1.407   .     A
C919   Cl947   1.765   .     S
C920   C923    1.407   .     A
C920   Cl948   1.765   .     S
C920   C694    1.385   1_565 S
C921   C923    1.400   .     A
C921   H931    1.085   .     S
C921   C691    1.385   1_565 S
C922   C924    1.400   .     A
C922   H932    1.085   .     S
C925   Cl949   1.755   .     S
C925   N936    1.379   .     A
C926   N935    1.379   .     A
C926   Cl950   1.755   .     S
C926   C244    1.415   1_556 S
C927   N935    1.360   .     A
C927   H933    1.081   .     S
C927   C241    1.415   1_556 S
C928   N936    1.360   .     A
C928   H934    1.081   .     S
Cu929  O941    1.973   .     S
Cu929  O937    1.957   .     S
Cu929  Cu930   2.687   .     S
Cu929  N935    2.019   .     S
Cu929  O944    1.972   .     S
Cu929  O940    1.963   .     S
Cu930  O942    1.973   .     S
Cu930  O938    1.957   .     S
Cu930  N936    2.019   .     S
Cu930  O943    1.972   .     S
Cu930  O939    1.963   .     S
Cl945  C955    1.774   .     S
Cl946  C994    1.774   1_455 S
C951   O975    1.293   .     A
C951   C962    1.446   .     S
C951   O977    1.293   .     A
C952   C961    1.446   .     S
C952   O978    1.293   .     A
C952   O976    1.293   .     A
C953   O981    1.296   .     A
C953   O979    1.284   .     A
C953   C955    1.434   .     S
C954   O982    1.296   .     A
C954   C956    1.434   .     S
C954   O980    1.284   .     A
C956   C993    1.355   .     S
C956   Cl1022  1.774   .     S
C957   C962    1.407   .     A
C957   Cl985   1.765   .     S
C958   C961    1.407   .     A
C958   Cl986   1.765   .     S
C958   C732    1.385   1_565 S
C959   C961    1.400   .     A
C959   H969    1.085   .     S
C959   C729    1.385   1_565 S
C960   C962    1.400   .     A
C960   H970    1.085   .     S
C963   Cl987   1.755   .     S
C963   N974    1.379   .     A
C964   N973    1.379   .     A
C964   Cl988   1.755   .     S
C964   C282    1.415   1_556 S
C965   N973    1.360   .     A
C965   H971    1.081   .     S
C965   C279    1.415   1_556 S
C966   N974    1.360   .     A
C966   H972    1.081   .     S
Cu967  O979    1.973   .     S
Cu967  O975    1.957   .     S
Cu967  Cu968   2.687   .     S
Cu967  N973    2.019   .     S
Cu967  O982    1.972   .     S
Cu967  O978    1.963   .     S
Cu968  O980    1.973   .     S
Cu968  O976    1.957   .     S
Cu968  N974    2.019   .     S
Cu968  O981    1.972   .     S
Cu968  O977    1.963   .     S
Cl983  C993    1.774   .     S
C989   O1013   1.293   .     A
C989   C1000   1.446   .     S
C989   O1015   1.293   .     A
C990   C999    1.446   .     S
C990   O1016   1.293   .     A
C990   O1014   1.293   .     A
C991   O1019   1.296   .     A
C991   O1017   1.284   .     A
C991   C993    1.434   .     S
C992   O1020   1.296   .     A
C992   C994    1.434   .     S
C992   O1018   1.284   .     A
C994   C917    1.355   1_655 S
C994   Cl946   1.774   1_655 S
C995   C1000   1.407   .     A
C995   Cl1023  1.765   .     S
C996   C999    1.407   .     A
C996   Cl1024  1.765   .     S
C996   C770    1.385   1_565 S
C997   C999    1.400   .     A
C997   H1007   1.085   .     S
C997   C767    1.385   1_565 S
C998   C1000   1.400   .     A
C998   H1008   1.085   .     S
C1001  Cl1025  1.755   .     S
C1001  N1012   1.379   .     A
C1002  N1011   1.379   .     A
C1002  Cl1026  1.755   .     S
C1002  C320    1.415   1_556 S
C1003  N1011   1.360   .     A
C1003  H1009   1.081   .     S
C1003  C317    1.415   1_556 S
C1004  N1012   1.360   .     A
C1004  H1010   1.081   .     S
Cu1005 O1017   1.973   .     S
Cu1005 O1013   1.957   .     S
Cu1005 Cu1006  2.687   .     S
Cu1005 N1011   2.019   .     S
Cu1005 O1020   1.972   .     S
Cu1005 O1016   1.963   .     S
Cu1006 O1018   1.973   .     S
Cu1006 O1014   1.957   .     S
Cu1006 N1012   2.019   .     S
Cu1006 O1019   1.972   .     S
Cu1006 O1015   1.963   .     S
Cl1021 C917    1.774   1_655 S
