data_str_m3_o1_o16_pcu_sym.94
_audit_creation_date              2020-01-03
_audit_creation_method            'Materials Studio'
_symmetry_space_group_name_H-M    'P1'
_symmetry_Int_Tables_number       1
_symmetry_cell_setting            triclinic
loop_
_symmetry_equiv_pos_as_xyz
  x,y,z
_cell_length_a                    29.5958
_cell_length_b                    32.1375
_cell_length_c                    26.0499
_cell_angle_alpha                 90.7518
_cell_angle_beta                  72.0107
_cell_angle_gamma                 90.2167
loop_
_atom_site_label
_atom_site_type_symbol
_atom_site_fract_x
_atom_site_fract_y
_atom_site_fract_z
_atom_site_U_iso_or_equiv
_atom_site_adp_type
_atom_site_occupancy
C1     C     0.16660   0.24661   0.25051   0.00000  Uiso   1.00
C2     C     0.14960   0.20344   0.48793   0.00000  Uiso   1.00
C3     C     0.16297   0.20047   0.43150   0.00000  Uiso   1.00
C4     C     0.18491   0.19329   0.01233   0.00000  Uiso   1.00
C5     C     0.23328   0.19065   0.48026   0.00000  Uiso   1.00
C6     C     0.24618   0.20170   0.42628   0.00000  Uiso   1.00
C7     C     0.21091   0.20743   0.40245   0.00000  Uiso   1.00
C8     C     0.17301   0.18115   0.06583   0.00000  Uiso   1.00
C9     C     0.25562   0.16585   0.05635   0.00000  Uiso   1.00
C10    C     0.12792   0.19177   0.40633   0.00000  Uiso   1.00
C11    C     0.19711   0.31140   0.27501   0.00000  Uiso   1.00
C12    C     0.14134   0.17371   0.35095   0.00000  Uiso   1.00
C13    C     0.19687   0.02089   0.27703   0.00000  Uiso   1.00
C14    C     0.16534   0.04238   0.25561   0.00000  Uiso   1.00
C15    C     0.13288   0.02099   0.23584   0.00000  Uiso   1.00
C16    C     0.13328   0.31179   0.23424   0.00000  Uiso   1.00
C17    C     0.16593   0.29061   0.25289   0.00000  Uiso   1.00
C18    C     0.31651   0.13672   0.22243   0.00000  Uiso   1.00
C19    C     0.03149   0.13751   0.22079   0.00000  Uiso   1.00
C20    C     0.01700   0.19717   0.27647   0.00000  Uiso   1.00
C21    C     0.30303   0.19794   0.27476   0.00000  Uiso   1.00
C22    C     0.16610   0.08667   0.25218   0.00000  Uiso   1.00
C23    C     0.19264   0.16585   0.14773   0.00000  Uiso   1.00
C24    C     0.26776   0.17606   0.00202   0.00000  Uiso   1.00
C25    C     0.20791   0.17002   0.08908   0.00000  Uiso   1.00
C26    C     0.08071   0.20242   0.43429   0.00000  Uiso   1.00
C27    C     0.06923   0.21904   0.48675   0.00000  Uiso   1.00
C28    C     0.10254   0.21720   0.01538   0.00000  Uiso   1.00
H29    H     0.10779   0.03698   0.22055   0.00000  Uiso   1.00
H30    H     0.10872   0.29556   0.21757   0.00000  Uiso   1.00
H31    H     0.30402   0.11314   0.19999   0.00000  Uiso   1.00
H32    H     0.02947   0.22172   0.29751   0.00000  Uiso   1.00
H33    H     0.28102   0.22431   0.29194   0.00000  Uiso   1.00
H34    H     0.28316   0.20389   0.40205   0.00000  Uiso   1.00
H35    H     0.30418   0.17223   0.47656   0.00000  Uiso   1.00
H36    H     0.13615   0.17872   0.08947   0.00000  Uiso   1.00
H37    H     0.05368   0.20072   0.41424   0.00000  Uiso   1.00
H38    H     0.22085   0.21785   0.36161   0.00000  Uiso   1.00
H39    H     0.22113   0.29429   0.29116   0.00000  Uiso   1.00
N40    N     0.04760   0.16668   0.25001   0.00000  Uiso   1.00
N41    N     0.28573   0.16665   0.25001   0.00000  Uiso   1.00
O42    O     0.12846   0.22775   0.25000   0.00000  Uiso   1.00
O43    O     0.20490   0.22774   0.25000   0.00000  Uiso   1.00
O44    O     0.10947   0.16666   0.32681   0.00000  Uiso   1.00
O45    O     0.18591   0.16665   0.32681   0.00000  Uiso   1.00
O46    O     0.12843   0.10559   0.25000   0.00000  Uiso   1.00
O47    O     0.20488   0.10558   0.25000   0.00000  Uiso   1.00
O48    O     0.14742   0.16668   0.17319   0.00000  Uiso   1.00
O49    O     0.22387   0.16667   0.17319   0.00000  Uiso   1.00
Zn50   Zn    0.11562   0.16667   0.25000   0.00000  Uiso   1.00
Zn51   Zn    0.21771   0.16666   0.25000   0.00000  Uiso   1.00
Br52   Br    0.30543   0.14419   0.08144   0.00000  Uiso   1.00
C53    C     0.22817   0.04139   0.30248   0.00000  Uiso   1.00
N54    N     0.25321   0.05774   0.32286   0.00000  Uiso   1.00
C55    C     0.06418   0.10974   0.18395   0.00000  Uiso   1.00
N56    N     0.09029   0.08774   0.15343   0.00000  Uiso   1.00
C57    C     0.09016   0.23599   0.06873   0.00000  Uiso   1.00
N58    N     0.08020   0.25106   0.11137   0.00000  Uiso   1.00
Br59   Br    0.00984   0.24774   0.01608   0.00000  Uiso   1.00
C60    C     0.49993   0.24661   0.25051   0.00000  Uiso   1.00
C61    C     0.48293   0.20344   0.48793   0.00000  Uiso   1.00
C62    C     0.49631   0.20047   0.43150   0.00000  Uiso   1.00
C63    C     0.51824   0.19329   0.01233   0.00000  Uiso   1.00
C64    C     0.56661   0.19065   0.48026   0.00000  Uiso   1.00
C65    C     0.57951   0.20170   0.42628   0.00000  Uiso   1.00
C66    C     0.54425   0.20743   0.40245   0.00000  Uiso   1.00
C67    C     0.50634   0.18115   0.06583   0.00000  Uiso   1.00
C68    C     0.58895   0.16585   0.05635   0.00000  Uiso   1.00
C69    C     0.46126   0.19177   0.40633   0.00000  Uiso   1.00
C70    C     0.53044   0.31140   0.27501   0.00000  Uiso   1.00
C71    C     0.47467   0.17371   0.35095   0.00000  Uiso   1.00
C72    C     0.53021   0.02089   0.27703   0.00000  Uiso   1.00
C73    C     0.49867   0.04238   0.25561   0.00000  Uiso   1.00
C74    C     0.46621   0.02099   0.23584   0.00000  Uiso   1.00
C75    C     0.46661   0.31179   0.23424   0.00000  Uiso   1.00
C76    C     0.49926   0.29061   0.25289   0.00000  Uiso   1.00
C77    C     0.64985   0.13672   0.22243   0.00000  Uiso   1.00
C78    C     0.36482   0.13751   0.22079   0.00000  Uiso   1.00
C79    C     0.35033   0.19717   0.27647   0.00000  Uiso   1.00
C80    C     0.63636   0.19794   0.27476   0.00000  Uiso   1.00
C81    C     0.49944   0.08667   0.25218   0.00000  Uiso   1.00
C82    C     0.52597   0.16585   0.14773   0.00000  Uiso   1.00
C83    C     0.60109   0.17606   0.00202   0.00000  Uiso   1.00
C84    C     0.54124   0.17002   0.08908   0.00000  Uiso   1.00
C85    C     0.41404   0.20242   0.43429   0.00000  Uiso   1.00
C86    C     0.40257   0.21904   0.48675   0.00000  Uiso   1.00
C87    C     0.43587   0.21720   0.01538   0.00000  Uiso   1.00
H88    H     0.44112   0.03698   0.22055   0.00000  Uiso   1.00
H89    H     0.44205   0.29556   0.21757   0.00000  Uiso   1.00
H90    H     0.63736   0.11314   0.19999   0.00000  Uiso   1.00
H91    H     0.36280   0.22172   0.29751   0.00000  Uiso   1.00
H92    H     0.61436   0.22431   0.29194   0.00000  Uiso   1.00
H93    H     0.61649   0.20389   0.40205   0.00000  Uiso   1.00
H94    H     0.63752   0.17223   0.47656   0.00000  Uiso   1.00
H95    H     0.46948   0.17872   0.08947   0.00000  Uiso   1.00
H96    H     0.38701   0.20072   0.41424   0.00000  Uiso   1.00
H97    H     0.55418   0.21785   0.36161   0.00000  Uiso   1.00
H98    H     0.55446   0.29429   0.29116   0.00000  Uiso   1.00
N99    N     0.38093   0.16668   0.25001   0.00000  Uiso   1.00
N100   N     0.61906   0.16665   0.25001   0.00000  Uiso   1.00
O101   O     0.46179   0.22775   0.25000   0.00000  Uiso   1.00
O102   O     0.53823   0.22774   0.25000   0.00000  Uiso   1.00
O103   O     0.44280   0.16666   0.32681   0.00000  Uiso   1.00
O104   O     0.51924   0.16665   0.32681   0.00000  Uiso   1.00
O105   O     0.46177   0.10559   0.25000   0.00000  Uiso   1.00
O106   O     0.53821   0.10558   0.25000   0.00000  Uiso   1.00
O107   O     0.48076   0.16668   0.17319   0.00000  Uiso   1.00
O108   O     0.55720   0.16667   0.17319   0.00000  Uiso   1.00
Zn109  Zn    0.44896   0.16667   0.25000   0.00000  Uiso   1.00
Zn110  Zn    0.55104   0.16666   0.25000   0.00000  Uiso   1.00
Br111  Br    0.63876   0.14419   0.08144   0.00000  Uiso   1.00
C112   C     0.56150   0.04139   0.30248   0.00000  Uiso   1.00
N113   N     0.58654   0.05774   0.32286   0.00000  Uiso   1.00
C114   C     0.39751   0.10974   0.18395   0.00000  Uiso   1.00
N115   N     0.42363   0.08774   0.15343   0.00000  Uiso   1.00
C116   C     0.42349   0.23599   0.06873   0.00000  Uiso   1.00
N117   N     0.41353   0.25106   0.11137   0.00000  Uiso   1.00
Br118  Br    0.34318   0.24774   0.01608   0.00000  Uiso   1.00
C119   C     0.83326   0.24661   0.25051   0.00000  Uiso   1.00
C120   C     0.81627   0.20344   0.48793   0.00000  Uiso   1.00
C121   C     0.82964   0.20047   0.43150   0.00000  Uiso   1.00
C122   C     0.85158   0.19329   0.01233   0.00000  Uiso   1.00
C123   C     0.89994   0.19065   0.48026   0.00000  Uiso   1.00
C124   C     0.91285   0.20170   0.42628   0.00000  Uiso   1.00
C125   C     0.87758   0.20743   0.40245   0.00000  Uiso   1.00
C126   C     0.83968   0.18115   0.06583   0.00000  Uiso   1.00
C127   C     0.92228   0.16585   0.05635   0.00000  Uiso   1.00
C128   C     0.79459   0.19177   0.40633   0.00000  Uiso   1.00
C129   C     0.86377   0.31140   0.27501   0.00000  Uiso   1.00
C130   C     0.80801   0.17371   0.35095   0.00000  Uiso   1.00
C131   C     0.86354   0.02089   0.27703   0.00000  Uiso   1.00
C132   C     0.83200   0.04238   0.25561   0.00000  Uiso   1.00
C133   C     0.79955   0.02099   0.23584   0.00000  Uiso   1.00
C134   C     0.79995   0.31179   0.23424   0.00000  Uiso   1.00
C135   C     0.83260   0.29061   0.25289   0.00000  Uiso   1.00
C136   C     0.98318   0.13672   0.22243   0.00000  Uiso   1.00
C137   C     0.69816   0.13751   0.22079   0.00000  Uiso   1.00
C138   C     0.68366   0.19717   0.27647   0.00000  Uiso   1.00
C139   C     0.96970   0.19794   0.27476   0.00000  Uiso   1.00
C140   C     0.83277   0.08667   0.25218   0.00000  Uiso   1.00
C141   C     0.85930   0.16585   0.14773   0.00000  Uiso   1.00
C142   C     0.93442   0.17606   0.00202   0.00000  Uiso   1.00
C143   C     0.87457   0.17002   0.08908   0.00000  Uiso   1.00
C144   C     0.74737   0.20242   0.43429   0.00000  Uiso   1.00
C145   C     0.73590   0.21904   0.48675   0.00000  Uiso   1.00
C146   C     0.76921   0.21720   0.01538   0.00000  Uiso   1.00
H147   H     0.77446   0.03698   0.22055   0.00000  Uiso   1.00
H148   H     0.77538   0.29556   0.21757   0.00000  Uiso   1.00
H149   H     0.97069   0.11314   0.19999   0.00000  Uiso   1.00
H150   H     0.69614   0.22172   0.29751   0.00000  Uiso   1.00
H151   H     0.94769   0.22431   0.29194   0.00000  Uiso   1.00
H152   H     0.94983   0.20389   0.40205   0.00000  Uiso   1.00
H153   H     0.97085   0.17223   0.47656   0.00000  Uiso   1.00
H154   H     0.80281   0.17872   0.08947   0.00000  Uiso   1.00
H155   H     0.72034   0.20072   0.41424   0.00000  Uiso   1.00
H156   H     0.88752   0.21785   0.36161   0.00000  Uiso   1.00
H157   H     0.88780   0.29429   0.29116   0.00000  Uiso   1.00
N158   N     0.71426   0.16668   0.25001   0.00000  Uiso   1.00
N159   N     0.95239   0.16665   0.25001   0.00000  Uiso   1.00
O160   O     0.79512   0.22775   0.25000   0.00000  Uiso   1.00
O161   O     0.87157   0.22774   0.25000   0.00000  Uiso   1.00
O162   O     0.77613   0.16666   0.32681   0.00000  Uiso   1.00
O163   O     0.85258   0.16665   0.32681   0.00000  Uiso   1.00
O164   O     0.79510   0.10559   0.25000   0.00000  Uiso   1.00
O165   O     0.87154   0.10558   0.25000   0.00000  Uiso   1.00
O166   O     0.81409   0.16668   0.17319   0.00000  Uiso   1.00
O167   O     0.89053   0.16667   0.17319   0.00000  Uiso   1.00
Zn168  Zn    0.78229   0.16667   0.25000   0.00000  Uiso   1.00
Zn169  Zn    0.88438   0.16666   0.25000   0.00000  Uiso   1.00
Br170  Br    0.97209   0.14419   0.08144   0.00000  Uiso   1.00
C171   C     0.89483   0.04139   0.30248   0.00000  Uiso   1.00
N172   N     0.91987   0.05774   0.32286   0.00000  Uiso   1.00
C173   C     0.73084   0.10974   0.18395   0.00000  Uiso   1.00
N174   N     0.75696   0.08774   0.15343   0.00000  Uiso   1.00
C175   C     0.75682   0.23599   0.06873   0.00000  Uiso   1.00
N176   N     0.74686   0.25106   0.11137   0.00000  Uiso   1.00
Br177  Br    0.67651   0.24774   0.01608   0.00000  Uiso   1.00
C178   C     0.16660   0.57994   0.25051   0.00000  Uiso   1.00
C179   C     0.14960   0.53678   0.48793   0.00000  Uiso   1.00
C180   C     0.16297   0.53380   0.43150   0.00000  Uiso   1.00
C181   C     0.18491   0.52663   0.01233   0.00000  Uiso   1.00
C182   C     0.23328   0.52398   0.48026   0.00000  Uiso   1.00
C183   C     0.24618   0.53503   0.42628   0.00000  Uiso   1.00
C184   C     0.21091   0.54076   0.40245   0.00000  Uiso   1.00
C185   C     0.17301   0.51448   0.06583   0.00000  Uiso   1.00
C186   C     0.25562   0.49918   0.05635   0.00000  Uiso   1.00
C187   C     0.12792   0.52510   0.40633   0.00000  Uiso   1.00
C188   C     0.19711   0.64474   0.27501   0.00000  Uiso   1.00
C189   C     0.14134   0.50704   0.35095   0.00000  Uiso   1.00
C190   C     0.19687   0.35422   0.27703   0.00000  Uiso   1.00
C191   C     0.16534   0.37571   0.25561   0.00000  Uiso   1.00
C192   C     0.13288   0.35432   0.23584   0.00000  Uiso   1.00
C193   C     0.13328   0.64512   0.23424   0.00000  Uiso   1.00
C194   C     0.16593   0.62394   0.25289   0.00000  Uiso   1.00
C195   C     0.31651   0.47006   0.22243   0.00000  Uiso   1.00
C196   C     0.03149   0.47085   0.22079   0.00000  Uiso   1.00
C197   C     0.01700   0.53051   0.27647   0.00000  Uiso   1.00
C198   C     0.30303   0.53127   0.27476   0.00000  Uiso   1.00
C199   C     0.16610   0.42001   0.25218   0.00000  Uiso   1.00
C200   C     0.19264   0.49919   0.14773   0.00000  Uiso   1.00
C201   C     0.26776   0.50939   0.00202   0.00000  Uiso   1.00
C202   C     0.20791   0.50335   0.08908   0.00000  Uiso   1.00
C203   C     0.08071   0.53575   0.43429   0.00000  Uiso   1.00
C204   C     0.06923   0.55237   0.48675   0.00000  Uiso   1.00
C205   C     0.10254   0.55053   0.01538   0.00000  Uiso   1.00
H206   H     0.10779   0.37032   0.22055   0.00000  Uiso   1.00
H207   H     0.10872   0.62889   0.21757   0.00000  Uiso   1.00
H208   H     0.30402   0.44648   0.19999   0.00000  Uiso   1.00
H209   H     0.02947   0.55505   0.29751   0.00000  Uiso   1.00
H210   H     0.28102   0.55765   0.29194   0.00000  Uiso   1.00
H211   H     0.28316   0.53723   0.40205   0.00000  Uiso   1.00
H212   H     0.30418   0.50556   0.47656   0.00000  Uiso   1.00
H213   H     0.13615   0.51205   0.08947   0.00000  Uiso   1.00
H214   H     0.05368   0.53406   0.41424   0.00000  Uiso   1.00
H215   H     0.22085   0.55119   0.36161   0.00000  Uiso   1.00
H216   H     0.22113   0.62762   0.29116   0.00000  Uiso   1.00
N217   N     0.04760   0.50001   0.25001   0.00000  Uiso   1.00
N218   N     0.28573   0.49998   0.25001   0.00000  Uiso   1.00
O219   O     0.12846   0.56108   0.25000   0.00000  Uiso   1.00
O220   O     0.20490   0.56107   0.25000   0.00000  Uiso   1.00
O221   O     0.10947   0.50000   0.32681   0.00000  Uiso   1.00
O222   O     0.18591   0.49999   0.32681   0.00000  Uiso   1.00
O223   O     0.12843   0.43893   0.25000   0.00000  Uiso   1.00
O224   O     0.20488   0.43892   0.25000   0.00000  Uiso   1.00
O225   O     0.14742   0.50001   0.17319   0.00000  Uiso   1.00
O226   O     0.22387   0.50000   0.17319   0.00000  Uiso   1.00
Zn227  Zn    0.11562   0.50001   0.25000   0.00000  Uiso   1.00
Zn228  Zn    0.21771   0.49999   0.25000   0.00000  Uiso   1.00
Br229  Br    0.30543   0.47752   0.08144   0.00000  Uiso   1.00
C230   C     0.22817   0.37472   0.30248   0.00000  Uiso   1.00
N231   N     0.25321   0.39108   0.32286   0.00000  Uiso   1.00
C232   C     0.06418   0.44307   0.18395   0.00000  Uiso   1.00
N233   N     0.09029   0.42108   0.15343   0.00000  Uiso   1.00
C234   C     0.09016   0.56933   0.06873   0.00000  Uiso   1.00
N235   N     0.08020   0.58439   0.11137   0.00000  Uiso   1.00
Br236  Br    0.00984   0.58108   0.01608   0.00000  Uiso   1.00
C237   C     0.49993   0.57994   0.25051   0.00000  Uiso   1.00
C238   C     0.48293   0.53678   0.48793   0.00000  Uiso   1.00
C239   C     0.49631   0.53380   0.43150   0.00000  Uiso   1.00
C240   C     0.51824   0.52663   0.01233   0.00000  Uiso   1.00
C241   C     0.56661   0.52398   0.48026   0.00000  Uiso   1.00
C242   C     0.57951   0.53503   0.42628   0.00000  Uiso   1.00
C243   C     0.54425   0.54076   0.40245   0.00000  Uiso   1.00
C244   C     0.50634   0.51448   0.06583   0.00000  Uiso   1.00
C245   C     0.58895   0.49918   0.05635   0.00000  Uiso   1.00
C246   C     0.46126   0.52510   0.40633   0.00000  Uiso   1.00
C247   C     0.53044   0.64474   0.27501   0.00000  Uiso   1.00
C248   C     0.47467   0.50704   0.35095   0.00000  Uiso   1.00
C249   C     0.53021   0.35422   0.27703   0.00000  Uiso   1.00
C250   C     0.49867   0.37571   0.25561   0.00000  Uiso   1.00
C251   C     0.46621   0.35432   0.23584   0.00000  Uiso   1.00
C252   C     0.46661   0.64512   0.23424   0.00000  Uiso   1.00
C253   C     0.49926   0.62394   0.25289   0.00000  Uiso   1.00
C254   C     0.64985   0.47006   0.22243   0.00000  Uiso   1.00
C255   C     0.36482   0.47085   0.22079   0.00000  Uiso   1.00
C256   C     0.35033   0.53051   0.27647   0.00000  Uiso   1.00
C257   C     0.63636   0.53127   0.27476   0.00000  Uiso   1.00
C258   C     0.49944   0.42001   0.25218   0.00000  Uiso   1.00
C259   C     0.52597   0.49919   0.14773   0.00000  Uiso   1.00
C260   C     0.60109   0.50939   0.00202   0.00000  Uiso   1.00
C261   C     0.54124   0.50335   0.08908   0.00000  Uiso   1.00
C262   C     0.41404   0.53575   0.43429   0.00000  Uiso   1.00
C263   C     0.40257   0.55237   0.48675   0.00000  Uiso   1.00
C264   C     0.43587   0.55053   0.01538   0.00000  Uiso   1.00
H265   H     0.44112   0.37032   0.22055   0.00000  Uiso   1.00
H266   H     0.44205   0.62889   0.21757   0.00000  Uiso   1.00
H267   H     0.63736   0.44648   0.19999   0.00000  Uiso   1.00
H268   H     0.36280   0.55505   0.29751   0.00000  Uiso   1.00
H269   H     0.61436   0.55765   0.29194   0.00000  Uiso   1.00
H270   H     0.61649   0.53723   0.40205   0.00000  Uiso   1.00
H271   H     0.63752   0.50556   0.47656   0.00000  Uiso   1.00
H272   H     0.46948   0.51205   0.08947   0.00000  Uiso   1.00
H273   H     0.38701   0.53406   0.41424   0.00000  Uiso   1.00
H274   H     0.55418   0.55119   0.36161   0.00000  Uiso   1.00
H275   H     0.55446   0.62762   0.29116   0.00000  Uiso   1.00
N276   N     0.38093   0.50001   0.25001   0.00000  Uiso   1.00
N277   N     0.61906   0.49998   0.25001   0.00000  Uiso   1.00
O278   O     0.46179   0.56108   0.25000   0.00000  Uiso   1.00
O279   O     0.53823   0.56107   0.25000   0.00000  Uiso   1.00
O280   O     0.44280   0.50000   0.32681   0.00000  Uiso   1.00
O281   O     0.51924   0.49999   0.32681   0.00000  Uiso   1.00
O282   O     0.46177   0.43893   0.25000   0.00000  Uiso   1.00
O283   O     0.53821   0.43892   0.25000   0.00000  Uiso   1.00
O284   O     0.48076   0.50001   0.17319   0.00000  Uiso   1.00
O285   O     0.55720   0.50000   0.17319   0.00000  Uiso   1.00
Zn286  Zn    0.44896   0.50001   0.25000   0.00000  Uiso   1.00
Zn287  Zn    0.55104   0.49999   0.25000   0.00000  Uiso   1.00
Br288  Br    0.63876   0.47752   0.08144   0.00000  Uiso   1.00
C289   C     0.56150   0.37472   0.30248   0.00000  Uiso   1.00
N290   N     0.58654   0.39108   0.32286   0.00000  Uiso   1.00
C291   C     0.39751   0.44307   0.18395   0.00000  Uiso   1.00
N292   N     0.42363   0.42108   0.15343   0.00000  Uiso   1.00
C293   C     0.42349   0.56933   0.06873   0.00000  Uiso   1.00
N294   N     0.41353   0.58439   0.11137   0.00000  Uiso   1.00
Br295  Br    0.34318   0.58108   0.01608   0.00000  Uiso   1.00
C296   C     0.83326   0.57994   0.25051   0.00000  Uiso   1.00
C297   C     0.81627   0.53678   0.48793   0.00000  Uiso   1.00
C298   C     0.82964   0.53380   0.43150   0.00000  Uiso   1.00
C299   C     0.85158   0.52663   0.01233   0.00000  Uiso   1.00
C300   C     0.89994   0.52398   0.48026   0.00000  Uiso   1.00
C301   C     0.91285   0.53503   0.42628   0.00000  Uiso   1.00
C302   C     0.87758   0.54076   0.40245   0.00000  Uiso   1.00
C303   C     0.83968   0.51448   0.06583   0.00000  Uiso   1.00
C304   C     0.92228   0.49918   0.05635   0.00000  Uiso   1.00
C305   C     0.79459   0.52510   0.40633   0.00000  Uiso   1.00
C306   C     0.86377   0.64474   0.27501   0.00000  Uiso   1.00
C307   C     0.80801   0.50704   0.35095   0.00000  Uiso   1.00
C308   C     0.86354   0.35422   0.27703   0.00000  Uiso   1.00
C309   C     0.83200   0.37571   0.25561   0.00000  Uiso   1.00
C310   C     0.79955   0.35432   0.23584   0.00000  Uiso   1.00
C311   C     0.79995   0.64512   0.23424   0.00000  Uiso   1.00
C312   C     0.83260   0.62394   0.25289   0.00000  Uiso   1.00
C313   C     0.98318   0.47006   0.22243   0.00000  Uiso   1.00
C314   C     0.69816   0.47085   0.22079   0.00000  Uiso   1.00
C315   C     0.68366   0.53051   0.27647   0.00000  Uiso   1.00
C316   C     0.96970   0.53127   0.27476   0.00000  Uiso   1.00
C317   C     0.83277   0.42001   0.25218   0.00000  Uiso   1.00
C318   C     0.85930   0.49919   0.14773   0.00000  Uiso   1.00
C319   C     0.93442   0.50939   0.00202   0.00000  Uiso   1.00
C320   C     0.87457   0.50335   0.08908   0.00000  Uiso   1.00
C321   C     0.74737   0.53575   0.43429   0.00000  Uiso   1.00
C322   C     0.73590   0.55237   0.48675   0.00000  Uiso   1.00
C323   C     0.76921   0.55053   0.01538   0.00000  Uiso   1.00
H324   H     0.77446   0.37032   0.22055   0.00000  Uiso   1.00
H325   H     0.77538   0.62889   0.21757   0.00000  Uiso   1.00
H326   H     0.97069   0.44648   0.19999   0.00000  Uiso   1.00
H327   H     0.69614   0.55505   0.29751   0.00000  Uiso   1.00
H328   H     0.94769   0.55765   0.29194   0.00000  Uiso   1.00
H329   H     0.94983   0.53723   0.40205   0.00000  Uiso   1.00
H330   H     0.97085   0.50556   0.47656   0.00000  Uiso   1.00
H331   H     0.80281   0.51205   0.08947   0.00000  Uiso   1.00
H332   H     0.72034   0.53406   0.41424   0.00000  Uiso   1.00
H333   H     0.88752   0.55119   0.36161   0.00000  Uiso   1.00
H334   H     0.88780   0.62762   0.29116   0.00000  Uiso   1.00
N335   N     0.71426   0.50001   0.25001   0.00000  Uiso   1.00
N336   N     0.95239   0.49998   0.25001   0.00000  Uiso   1.00
O337   O     0.79512   0.56108   0.25000   0.00000  Uiso   1.00
O338   O     0.87157   0.56107   0.25000   0.00000  Uiso   1.00
O339   O     0.77613   0.50000   0.32681   0.00000  Uiso   1.00
O340   O     0.85258   0.49999   0.32681   0.00000  Uiso   1.00
O341   O     0.79510   0.43893   0.25000   0.00000  Uiso   1.00
O342   O     0.87154   0.43892   0.25000   0.00000  Uiso   1.00
O343   O     0.81409   0.50001   0.17319   0.00000  Uiso   1.00
O344   O     0.89053   0.50000   0.17319   0.00000  Uiso   1.00
Zn345  Zn    0.78229   0.50001   0.25000   0.00000  Uiso   1.00
Zn346  Zn    0.88438   0.49999   0.25000   0.00000  Uiso   1.00
Br347  Br    0.97209   0.47752   0.08144   0.00000  Uiso   1.00
C348   C     0.89483   0.37472   0.30248   0.00000  Uiso   1.00
N349   N     0.91987   0.39108   0.32286   0.00000  Uiso   1.00
C350   C     0.73084   0.44307   0.18395   0.00000  Uiso   1.00
N351   N     0.75696   0.42108   0.15343   0.00000  Uiso   1.00
C352   C     0.75682   0.56933   0.06873   0.00000  Uiso   1.00
N353   N     0.74686   0.58439   0.11137   0.00000  Uiso   1.00
Br354  Br    0.67651   0.58108   0.01608   0.00000  Uiso   1.00
C355   C     0.16660   0.91327   0.25051   0.00000  Uiso   1.00
C356   C     0.14960   0.87011   0.48793   0.00000  Uiso   1.00
C357   C     0.16297   0.86714   0.43150   0.00000  Uiso   1.00
C358   C     0.18491   0.85996   0.01233   0.00000  Uiso   1.00
C359   C     0.23328   0.85731   0.48026   0.00000  Uiso   1.00
C360   C     0.24618   0.86837   0.42628   0.00000  Uiso   1.00
C361   C     0.21091   0.87409   0.40245   0.00000  Uiso   1.00
C362   C     0.17301   0.84781   0.06583   0.00000  Uiso   1.00
C363   C     0.25562   0.83251   0.05635   0.00000  Uiso   1.00
C364   C     0.12792   0.85844   0.40633   0.00000  Uiso   1.00
C365   C     0.19711   0.97807   0.27501   0.00000  Uiso   1.00
C366   C     0.14134   0.84037   0.35095   0.00000  Uiso   1.00
C367   C     0.19687   0.68755   0.27703   0.00000  Uiso   1.00
C368   C     0.16534   0.70905   0.25561   0.00000  Uiso   1.00
C369   C     0.13288   0.68766   0.23584   0.00000  Uiso   1.00
C370   C     0.13328   0.97846   0.23424   0.00000  Uiso   1.00
C371   C     0.16593   0.95727   0.25289   0.00000  Uiso   1.00
C372   C     0.31651   0.80339   0.22243   0.00000  Uiso   1.00
C373   C     0.03149   0.80418   0.22079   0.00000  Uiso   1.00
C374   C     0.01700   0.86384   0.27647   0.00000  Uiso   1.00
C375   C     0.30303   0.86461   0.27476   0.00000  Uiso   1.00
C376   C     0.16610   0.75334   0.25218   0.00000  Uiso   1.00
C377   C     0.19264   0.83252   0.14773   0.00000  Uiso   1.00
C378   C     0.26776   0.84272   0.00202   0.00000  Uiso   1.00
C379   C     0.20791   0.83669   0.08908   0.00000  Uiso   1.00
C380   C     0.08071   0.86909   0.43429   0.00000  Uiso   1.00
C381   C     0.06923   0.88571   0.48675   0.00000  Uiso   1.00
C382   C     0.10254   0.88387   0.01538   0.00000  Uiso   1.00
H383   H     0.10779   0.70365   0.22055   0.00000  Uiso   1.00
H384   H     0.10872   0.96222   0.21757   0.00000  Uiso   1.00
H385   H     0.30402   0.77981   0.19999   0.00000  Uiso   1.00
H386   H     0.02947   0.88839   0.29751   0.00000  Uiso   1.00
H387   H     0.28102   0.89098   0.29194   0.00000  Uiso   1.00
H388   H     0.28316   0.87056   0.40205   0.00000  Uiso   1.00
H389   H     0.30418   0.83889   0.47656   0.00000  Uiso   1.00
H390   H     0.13615   0.84539   0.08947   0.00000  Uiso   1.00
H391   H     0.05368   0.86739   0.41424   0.00000  Uiso   1.00
H392   H     0.22085   0.88452   0.36161   0.00000  Uiso   1.00
H393   H     0.22113   0.96096   0.29116   0.00000  Uiso   1.00
N394   N     0.04760   0.83334   0.25001   0.00000  Uiso   1.00
N395   N     0.28573   0.83331   0.25001   0.00000  Uiso   1.00
O396   O     0.12846   0.89442   0.25000   0.00000  Uiso   1.00
O397   O     0.20490   0.89441   0.25000   0.00000  Uiso   1.00
O398   O     0.10947   0.83333   0.32681   0.00000  Uiso   1.00
O399   O     0.18591   0.83332   0.32681   0.00000  Uiso   1.00
O400   O     0.12843   0.77226   0.25000   0.00000  Uiso   1.00
O401   O     0.20488   0.77225   0.25000   0.00000  Uiso   1.00
O402   O     0.14742   0.83335   0.17319   0.00000  Uiso   1.00
O403   O     0.22387   0.83334   0.17319   0.00000  Uiso   1.00
Zn404  Zn    0.11562   0.83334   0.25000   0.00000  Uiso   1.00
Zn405  Zn    0.21771   0.83333   0.25000   0.00000  Uiso   1.00
Br406  Br    0.30543   0.81085   0.08144   0.00000  Uiso   1.00
C407   C     0.22817   0.70805   0.30248   0.00000  Uiso   1.00
N408   N     0.25321   0.72441   0.32286   0.00000  Uiso   1.00
C409   C     0.06418   0.77641   0.18395   0.00000  Uiso   1.00
N410   N     0.09029   0.75441   0.15343   0.00000  Uiso   1.00
C411   C     0.09016   0.90266   0.06873   0.00000  Uiso   1.00
N412   N     0.08020   0.91773   0.11137   0.00000  Uiso   1.00
Br413  Br    0.00984   0.91441   0.01608   0.00000  Uiso   1.00
C414   C     0.49993   0.91327   0.25051   0.00000  Uiso   1.00
C415   C     0.48293   0.87011   0.48793   0.00000  Uiso   1.00
C416   C     0.49631   0.86714   0.43150   0.00000  Uiso   1.00
C417   C     0.51824   0.85996   0.01233   0.00000  Uiso   1.00
C418   C     0.56661   0.85731   0.48026   0.00000  Uiso   1.00
C419   C     0.57951   0.86837   0.42628   0.00000  Uiso   1.00
C420   C     0.54425   0.87409   0.40245   0.00000  Uiso   1.00
C421   C     0.50634   0.84781   0.06583   0.00000  Uiso   1.00
C422   C     0.58895   0.83251   0.05635   0.00000  Uiso   1.00
C423   C     0.46126   0.85844   0.40633   0.00000  Uiso   1.00
C424   C     0.53044   0.97807   0.27501   0.00000  Uiso   1.00
C425   C     0.47467   0.84037   0.35095   0.00000  Uiso   1.00
C426   C     0.53021   0.68755   0.27703   0.00000  Uiso   1.00
C427   C     0.49867   0.70905   0.25561   0.00000  Uiso   1.00
C428   C     0.46621   0.68766   0.23584   0.00000  Uiso   1.00
C429   C     0.46661   0.97846   0.23424   0.00000  Uiso   1.00
C430   C     0.49926   0.95727   0.25289   0.00000  Uiso   1.00
C431   C     0.64985   0.80339   0.22243   0.00000  Uiso   1.00
C432   C     0.36482   0.80418   0.22079   0.00000  Uiso   1.00
C433   C     0.35033   0.86384   0.27647   0.00000  Uiso   1.00
C434   C     0.63636   0.86461   0.27476   0.00000  Uiso   1.00
C435   C     0.49944   0.75334   0.25218   0.00000  Uiso   1.00
C436   C     0.52597   0.83252   0.14773   0.00000  Uiso   1.00
C437   C     0.60109   0.84272   0.00202   0.00000  Uiso   1.00
C438   C     0.54124   0.83669   0.08908   0.00000  Uiso   1.00
C439   C     0.41404   0.86909   0.43429   0.00000  Uiso   1.00
C440   C     0.40257   0.88571   0.48675   0.00000  Uiso   1.00
C441   C     0.43587   0.88387   0.01538   0.00000  Uiso   1.00
H442   H     0.44112   0.70365   0.22055   0.00000  Uiso   1.00
H443   H     0.44205   0.96222   0.21757   0.00000  Uiso   1.00
H444   H     0.63736   0.77981   0.19999   0.00000  Uiso   1.00
H445   H     0.36280   0.88839   0.29751   0.00000  Uiso   1.00
H446   H     0.61436   0.89098   0.29194   0.00000  Uiso   1.00
H447   H     0.61649   0.87056   0.40205   0.00000  Uiso   1.00
H448   H     0.63752   0.83889   0.47656   0.00000  Uiso   1.00
H449   H     0.46948   0.84539   0.08947   0.00000  Uiso   1.00
H450   H     0.38701   0.86739   0.41424   0.00000  Uiso   1.00
H451   H     0.55418   0.88452   0.36161   0.00000  Uiso   1.00
H452   H     0.55446   0.96096   0.29116   0.00000  Uiso   1.00
N453   N     0.38093   0.83334   0.25001   0.00000  Uiso   1.00
N454   N     0.61906   0.83331   0.25001   0.00000  Uiso   1.00
O455   O     0.46179   0.89442   0.25000   0.00000  Uiso   1.00
O456   O     0.53823   0.89441   0.25000   0.00000  Uiso   1.00
O457   O     0.44280   0.83333   0.32681   0.00000  Uiso   1.00
O458   O     0.51924   0.83332   0.32681   0.00000  Uiso   1.00
O459   O     0.46177   0.77226   0.25000   0.00000  Uiso   1.00
O460   O     0.53821   0.77225   0.25000   0.00000  Uiso   1.00
O461   O     0.48076   0.83335   0.17319   0.00000  Uiso   1.00
O462   O     0.55720   0.83334   0.17319   0.00000  Uiso   1.00
Zn463  Zn    0.44896   0.83334   0.25000   0.00000  Uiso   1.00
Zn464  Zn    0.55104   0.83333   0.25000   0.00000  Uiso   1.00
Br465  Br    0.63876   0.81085   0.08144   0.00000  Uiso   1.00
C466   C     0.56150   0.70805   0.30248   0.00000  Uiso   1.00
N467   N     0.58654   0.72441   0.32286   0.00000  Uiso   1.00
C468   C     0.39751   0.77641   0.18395   0.00000  Uiso   1.00
N469   N     0.42363   0.75441   0.15343   0.00000  Uiso   1.00
C470   C     0.42349   0.90266   0.06873   0.00000  Uiso   1.00
N471   N     0.41353   0.91773   0.11137   0.00000  Uiso   1.00
Br472  Br    0.34318   0.91441   0.01608   0.00000  Uiso   1.00
C473   C     0.83326   0.91327   0.25051   0.00000  Uiso   1.00
C474   C     0.81627   0.87011   0.48793   0.00000  Uiso   1.00
C475   C     0.82964   0.86714   0.43150   0.00000  Uiso   1.00
C476   C     0.85158   0.85996   0.01233   0.00000  Uiso   1.00
C477   C     0.89994   0.85731   0.48026   0.00000  Uiso   1.00
C478   C     0.91285   0.86837   0.42628   0.00000  Uiso   1.00
C479   C     0.87758   0.87409   0.40245   0.00000  Uiso   1.00
C480   C     0.83968   0.84781   0.06583   0.00000  Uiso   1.00
C481   C     0.92228   0.83251   0.05635   0.00000  Uiso   1.00
C482   C     0.79459   0.85844   0.40633   0.00000  Uiso   1.00
C483   C     0.86377   0.97807   0.27501   0.00000  Uiso   1.00
C484   C     0.80801   0.84037   0.35095   0.00000  Uiso   1.00
C485   C     0.86354   0.68755   0.27703   0.00000  Uiso   1.00
C486   C     0.83200   0.70905   0.25561   0.00000  Uiso   1.00
C487   C     0.79955   0.68766   0.23584   0.00000  Uiso   1.00
C488   C     0.79995   0.97846   0.23424   0.00000  Uiso   1.00
C489   C     0.83260   0.95727   0.25289   0.00000  Uiso   1.00
C490   C     0.98318   0.80339   0.22243   0.00000  Uiso   1.00
C491   C     0.69816   0.80418   0.22079   0.00000  Uiso   1.00
C492   C     0.68366   0.86384   0.27647   0.00000  Uiso   1.00
C493   C     0.96970   0.86461   0.27476   0.00000  Uiso   1.00
C494   C     0.83277   0.75334   0.25218   0.00000  Uiso   1.00
C495   C     0.85930   0.83252   0.14773   0.00000  Uiso   1.00
C496   C     0.93442   0.84272   0.00202   0.00000  Uiso   1.00
C497   C     0.87457   0.83669   0.08908   0.00000  Uiso   1.00
C498   C     0.74737   0.86909   0.43429   0.00000  Uiso   1.00
C499   C     0.73590   0.88571   0.48675   0.00000  Uiso   1.00
C500   C     0.76921   0.88387   0.01538   0.00000  Uiso   1.00
H501   H     0.77446   0.70365   0.22055   0.00000  Uiso   1.00
H502   H     0.77538   0.96222   0.21757   0.00000  Uiso   1.00
H503   H     0.97069   0.77981   0.19999   0.00000  Uiso   1.00
H504   H     0.69614   0.88839   0.29751   0.00000  Uiso   1.00
H505   H     0.94769   0.89098   0.29194   0.00000  Uiso   1.00
H506   H     0.94983   0.87056   0.40205   0.00000  Uiso   1.00
H507   H     0.97085   0.83889   0.47656   0.00000  Uiso   1.00
H508   H     0.80281   0.84539   0.08947   0.00000  Uiso   1.00
H509   H     0.72034   0.86739   0.41424   0.00000  Uiso   1.00
H510   H     0.88752   0.88452   0.36161   0.00000  Uiso   1.00
H511   H     0.88780   0.96096   0.29116   0.00000  Uiso   1.00
N512   N     0.71426   0.83334   0.25001   0.00000  Uiso   1.00
N513   N     0.95239   0.83331   0.25001   0.00000  Uiso   1.00
O514   O     0.79512   0.89442   0.25000   0.00000  Uiso   1.00
O515   O     0.87157   0.89441   0.25000   0.00000  Uiso   1.00
O516   O     0.77613   0.83333   0.32681   0.00000  Uiso   1.00
O517   O     0.85258   0.83332   0.32681   0.00000  Uiso   1.00
O518   O     0.79510   0.77226   0.25000   0.00000  Uiso   1.00
O519   O     0.87154   0.77225   0.25000   0.00000  Uiso   1.00
O520   O     0.81409   0.83335   0.17319   0.00000  Uiso   1.00
O521   O     0.89053   0.83334   0.17319   0.00000  Uiso   1.00
Zn522  Zn    0.78229   0.83334   0.25000   0.00000  Uiso   1.00
Zn523  Zn    0.88438   0.83333   0.25000   0.00000  Uiso   1.00
Br524  Br    0.97209   0.81085   0.08144   0.00000  Uiso   1.00
C525   C     0.89483   0.70805   0.30248   0.00000  Uiso   1.00
N526   N     0.91987   0.72441   0.32286   0.00000  Uiso   1.00
C527   C     0.73084   0.77641   0.18395   0.00000  Uiso   1.00
N528   N     0.75696   0.75441   0.15343   0.00000  Uiso   1.00
C529   C     0.75682   0.90266   0.06873   0.00000  Uiso   1.00
N530   N     0.74686   0.91773   0.11137   0.00000  Uiso   1.00
Br531  Br    0.67651   0.91441   0.01608   0.00000  Uiso   1.00
C532   C     0.16660   0.24661   0.75051   0.00000  Uiso   1.00
C533   C     0.14960   0.20344   0.98793   0.00000  Uiso   1.00
C534   C     0.16297   0.20047   0.93150   0.00000  Uiso   1.00
C535   C     0.18491   0.19329   0.51233   0.00000  Uiso   1.00
C536   C     0.23328   0.19065   0.98026   0.00000  Uiso   1.00
C537   C     0.24618   0.20170   0.92628   0.00000  Uiso   1.00
C538   C     0.21091   0.20743   0.90245   0.00000  Uiso   1.00
C539   C     0.17301   0.18115   0.56583   0.00000  Uiso   1.00
C540   C     0.25562   0.16585   0.55635   0.00000  Uiso   1.00
C541   C     0.12792   0.19177   0.90633   0.00000  Uiso   1.00
C542   C     0.19711   0.31140   0.77501   0.00000  Uiso   1.00
C543   C     0.14134   0.17371   0.85095   0.00000  Uiso   1.00
C544   C     0.19687   0.02089   0.77703   0.00000  Uiso   1.00
C545   C     0.16534   0.04238   0.75561   0.00000  Uiso   1.00
C546   C     0.13288   0.02099   0.73584   0.00000  Uiso   1.00
C547   C     0.13328   0.31179   0.73424   0.00000  Uiso   1.00
C548   C     0.16593   0.29061   0.75289   0.00000  Uiso   1.00
C549   C     0.31651   0.13672   0.72243   0.00000  Uiso   1.00
C550   C     0.03149   0.13751   0.72079   0.00000  Uiso   1.00
C551   C     0.01700   0.19717   0.77647   0.00000  Uiso   1.00
C552   C     0.30303   0.19794   0.77476   0.00000  Uiso   1.00
C553   C     0.16610   0.08667   0.75218   0.00000  Uiso   1.00
C554   C     0.19264   0.16585   0.64773   0.00000  Uiso   1.00
C555   C     0.26776   0.17606   0.50202   0.00000  Uiso   1.00
C556   C     0.20791   0.17002   0.58908   0.00000  Uiso   1.00
C557   C     0.08071   0.20242   0.93429   0.00000  Uiso   1.00
C558   C     0.06923   0.21904   0.98675   0.00000  Uiso   1.00
C559   C     0.10254   0.21720   0.51538   0.00000  Uiso   1.00
H560   H     0.10779   0.03698   0.72055   0.00000  Uiso   1.00
H561   H     0.10872   0.29556   0.71757   0.00000  Uiso   1.00
H562   H     0.30402   0.11314   0.69999   0.00000  Uiso   1.00
H563   H     0.02947   0.22172   0.79751   0.00000  Uiso   1.00
H564   H     0.28102   0.22431   0.79194   0.00000  Uiso   1.00
H565   H     0.28316   0.20389   0.90205   0.00000  Uiso   1.00
H566   H     0.30418   0.17223   0.97656   0.00000  Uiso   1.00
H567   H     0.13615   0.17872   0.58947   0.00000  Uiso   1.00
H568   H     0.05368   0.20072   0.91424   0.00000  Uiso   1.00
H569   H     0.22085   0.21785   0.86161   0.00000  Uiso   1.00
H570   H     0.22113   0.29429   0.79116   0.00000  Uiso   1.00
N571   N     0.04760   0.16668   0.75001   0.00000  Uiso   1.00
N572   N     0.28573   0.16665   0.75001   0.00000  Uiso   1.00
O573   O     0.12846   0.22775   0.75000   0.00000  Uiso   1.00
O574   O     0.20490   0.22774   0.75000   0.00000  Uiso   1.00
O575   O     0.10947   0.16666   0.82681   0.00000  Uiso   1.00
O576   O     0.18591   0.16665   0.82681   0.00000  Uiso   1.00
O577   O     0.12843   0.10559   0.75000   0.00000  Uiso   1.00
O578   O     0.20488   0.10558   0.75000   0.00000  Uiso   1.00
O579   O     0.14742   0.16668   0.67319   0.00000  Uiso   1.00
O580   O     0.22387   0.16667   0.67319   0.00000  Uiso   1.00
Zn581  Zn    0.11562   0.16667   0.75000   0.00000  Uiso   1.00
Zn582  Zn    0.21771   0.16666   0.75000   0.00000  Uiso   1.00
Br583  Br    0.30543   0.14419   0.58144   0.00000  Uiso   1.00
C584   C     0.22817   0.04139   0.80248   0.00000  Uiso   1.00
N585   N     0.25321   0.05774   0.82286   0.00000  Uiso   1.00
C586   C     0.06418   0.10974   0.68395   0.00000  Uiso   1.00
N587   N     0.09029   0.08774   0.65343   0.00000  Uiso   1.00
C588   C     0.09016   0.23599   0.56873   0.00000  Uiso   1.00
N589   N     0.08020   0.25106   0.61137   0.00000  Uiso   1.00
Br590  Br    0.00984   0.24774   0.51608   0.00000  Uiso   1.00
C591   C     0.49993   0.24661   0.75051   0.00000  Uiso   1.00
C592   C     0.48293   0.20344   0.98793   0.00000  Uiso   1.00
C593   C     0.49631   0.20047   0.93150   0.00000  Uiso   1.00
C594   C     0.51824   0.19329   0.51233   0.00000  Uiso   1.00
C595   C     0.56661   0.19065   0.98026   0.00000  Uiso   1.00
C596   C     0.57951   0.20170   0.92628   0.00000  Uiso   1.00
C597   C     0.54425   0.20743   0.90245   0.00000  Uiso   1.00
C598   C     0.50634   0.18115   0.56583   0.00000  Uiso   1.00
C599   C     0.58895   0.16585   0.55635   0.00000  Uiso   1.00
C600   C     0.46126   0.19177   0.90633   0.00000  Uiso   1.00
C601   C     0.53044   0.31140   0.77501   0.00000  Uiso   1.00
C602   C     0.47467   0.17371   0.85095   0.00000  Uiso   1.00
C603   C     0.53021   0.02089   0.77703   0.00000  Uiso   1.00
C604   C     0.49867   0.04238   0.75561   0.00000  Uiso   1.00
C605   C     0.46621   0.02099   0.73584   0.00000  Uiso   1.00
C606   C     0.46661   0.31179   0.73424   0.00000  Uiso   1.00
C607   C     0.49926   0.29061   0.75289   0.00000  Uiso   1.00
C608   C     0.64985   0.13672   0.72243   0.00000  Uiso   1.00
C609   C     0.36482   0.13751   0.72079   0.00000  Uiso   1.00
C610   C     0.35033   0.19717   0.77647   0.00000  Uiso   1.00
C611   C     0.63636   0.19794   0.77476   0.00000  Uiso   1.00
C612   C     0.49944   0.08667   0.75218   0.00000  Uiso   1.00
C613   C     0.52597   0.16585   0.64773   0.00000  Uiso   1.00
C614   C     0.60109   0.17606   0.50202   0.00000  Uiso   1.00
C615   C     0.54124   0.17002   0.58908   0.00000  Uiso   1.00
C616   C     0.41404   0.20242   0.93429   0.00000  Uiso   1.00
C617   C     0.40257   0.21904   0.98675   0.00000  Uiso   1.00
C618   C     0.43587   0.21720   0.51538   0.00000  Uiso   1.00
H619   H     0.44112   0.03698   0.72055   0.00000  Uiso   1.00
H620   H     0.44205   0.29556   0.71757   0.00000  Uiso   1.00
H621   H     0.63736   0.11314   0.69999   0.00000  Uiso   1.00
H622   H     0.36280   0.22172   0.79751   0.00000  Uiso   1.00
H623   H     0.61436   0.22431   0.79194   0.00000  Uiso   1.00
H624   H     0.61649   0.20389   0.90205   0.00000  Uiso   1.00
H625   H     0.63752   0.17223   0.97656   0.00000  Uiso   1.00
H626   H     0.46948   0.17872   0.58947   0.00000  Uiso   1.00
H627   H     0.38701   0.20072   0.91424   0.00000  Uiso   1.00
H628   H     0.55418   0.21785   0.86161   0.00000  Uiso   1.00
H629   H     0.55446   0.29429   0.79116   0.00000  Uiso   1.00
N630   N     0.38093   0.16668   0.75001   0.00000  Uiso   1.00
N631   N     0.61906   0.16665   0.75001   0.00000  Uiso   1.00
O632   O     0.46179   0.22775   0.75000   0.00000  Uiso   1.00
O633   O     0.53823   0.22774   0.75000   0.00000  Uiso   1.00
O634   O     0.44280   0.16666   0.82681   0.00000  Uiso   1.00
O635   O     0.51924   0.16665   0.82681   0.00000  Uiso   1.00
O636   O     0.46177   0.10559   0.75000   0.00000  Uiso   1.00
O637   O     0.53821   0.10558   0.75000   0.00000  Uiso   1.00
O638   O     0.48076   0.16668   0.67319   0.00000  Uiso   1.00
O639   O     0.55720   0.16667   0.67319   0.00000  Uiso   1.00
Zn640  Zn    0.44896   0.16667   0.75000   0.00000  Uiso   1.00
Zn641  Zn    0.55104   0.16666   0.75000   0.00000  Uiso   1.00
Br642  Br    0.63876   0.14419   0.58144   0.00000  Uiso   1.00
C643   C     0.56150   0.04139   0.80248   0.00000  Uiso   1.00
N644   N     0.58654   0.05774   0.82286   0.00000  Uiso   1.00
C645   C     0.39751   0.10974   0.68395   0.00000  Uiso   1.00
N646   N     0.42363   0.08774   0.65343   0.00000  Uiso   1.00
C647   C     0.42349   0.23599   0.56873   0.00000  Uiso   1.00
N648   N     0.41353   0.25106   0.61137   0.00000  Uiso   1.00
Br649  Br    0.34318   0.24774   0.51608   0.00000  Uiso   1.00
C650   C     0.83326   0.24661   0.75051   0.00000  Uiso   1.00
C651   C     0.81627   0.20344   0.98793   0.00000  Uiso   1.00
C652   C     0.82964   0.20047   0.93150   0.00000  Uiso   1.00
C653   C     0.85158   0.19329   0.51233   0.00000  Uiso   1.00
C654   C     0.89994   0.19065   0.98026   0.00000  Uiso   1.00
C655   C     0.91285   0.20170   0.92628   0.00000  Uiso   1.00
C656   C     0.87758   0.20743   0.90245   0.00000  Uiso   1.00
C657   C     0.83968   0.18115   0.56583   0.00000  Uiso   1.00
C658   C     0.92228   0.16585   0.55635   0.00000  Uiso   1.00
C659   C     0.79459   0.19177   0.90633   0.00000  Uiso   1.00
C660   C     0.86377   0.31140   0.77501   0.00000  Uiso   1.00
C661   C     0.80801   0.17371   0.85095   0.00000  Uiso   1.00
C662   C     0.86354   0.02089   0.77703   0.00000  Uiso   1.00
C663   C     0.83200   0.04238   0.75561   0.00000  Uiso   1.00
C664   C     0.79955   0.02099   0.73584   0.00000  Uiso   1.00
C665   C     0.79995   0.31179   0.73424   0.00000  Uiso   1.00
C666   C     0.83260   0.29061   0.75289   0.00000  Uiso   1.00
C667   C     0.98318   0.13672   0.72243   0.00000  Uiso   1.00
C668   C     0.69816   0.13751   0.72079   0.00000  Uiso   1.00
C669   C     0.68366   0.19717   0.77647   0.00000  Uiso   1.00
C670   C     0.96970   0.19794   0.77476   0.00000  Uiso   1.00
C671   C     0.83277   0.08667   0.75218   0.00000  Uiso   1.00
C672   C     0.85930   0.16585   0.64773   0.00000  Uiso   1.00
C673   C     0.93442   0.17606   0.50202   0.00000  Uiso   1.00
C674   C     0.87457   0.17002   0.58908   0.00000  Uiso   1.00
C675   C     0.74737   0.20242   0.93429   0.00000  Uiso   1.00
C676   C     0.73590   0.21904   0.98675   0.00000  Uiso   1.00
C677   C     0.76921   0.21720   0.51538   0.00000  Uiso   1.00
H678   H     0.77446   0.03698   0.72055   0.00000  Uiso   1.00
H679   H     0.77538   0.29556   0.71757   0.00000  Uiso   1.00
H680   H     0.97069   0.11314   0.69999   0.00000  Uiso   1.00
H681   H     0.69614   0.22172   0.79751   0.00000  Uiso   1.00
H682   H     0.94769   0.22431   0.79194   0.00000  Uiso   1.00
H683   H     0.94983   0.20389   0.90205   0.00000  Uiso   1.00
H684   H     0.97085   0.17223   0.97656   0.00000  Uiso   1.00
H685   H     0.80281   0.17872   0.58947   0.00000  Uiso   1.00
H686   H     0.72034   0.20072   0.91424   0.00000  Uiso   1.00
H687   H     0.88752   0.21785   0.86161   0.00000  Uiso   1.00
H688   H     0.88780   0.29429   0.79116   0.00000  Uiso   1.00
N689   N     0.71426   0.16668   0.75001   0.00000  Uiso   1.00
N690   N     0.95239   0.16665   0.75001   0.00000  Uiso   1.00
O691   O     0.79512   0.22775   0.75000   0.00000  Uiso   1.00
O692   O     0.87157   0.22774   0.75000   0.00000  Uiso   1.00
O693   O     0.77613   0.16666   0.82681   0.00000  Uiso   1.00
O694   O     0.85258   0.16665   0.82681   0.00000  Uiso   1.00
O695   O     0.79510   0.10559   0.75000   0.00000  Uiso   1.00
O696   O     0.87154   0.10558   0.75000   0.00000  Uiso   1.00
O697   O     0.81409   0.16668   0.67319   0.00000  Uiso   1.00
O698   O     0.89053   0.16667   0.67319   0.00000  Uiso   1.00
Zn699  Zn    0.78229   0.16667   0.75000   0.00000  Uiso   1.00
Zn700  Zn    0.88438   0.16666   0.75000   0.00000  Uiso   1.00
Br701  Br    0.97209   0.14419   0.58144   0.00000  Uiso   1.00
C702   C     0.89483   0.04139   0.80248   0.00000  Uiso   1.00
N703   N     0.91987   0.05774   0.82286   0.00000  Uiso   1.00
C704   C     0.73084   0.10974   0.68395   0.00000  Uiso   1.00
N705   N     0.75696   0.08774   0.65343   0.00000  Uiso   1.00
C706   C     0.75682   0.23599   0.56873   0.00000  Uiso   1.00
N707   N     0.74686   0.25106   0.61137   0.00000  Uiso   1.00
Br708  Br    0.67651   0.24774   0.51608   0.00000  Uiso   1.00
C709   C     0.16660   0.57994   0.75051   0.00000  Uiso   1.00
C710   C     0.14960   0.53678   0.98793   0.00000  Uiso   1.00
C711   C     0.16297   0.53380   0.93150   0.00000  Uiso   1.00
C712   C     0.18491   0.52663   0.51233   0.00000  Uiso   1.00
C713   C     0.23328   0.52398   0.98026   0.00000  Uiso   1.00
C714   C     0.24618   0.53503   0.92628   0.00000  Uiso   1.00
C715   C     0.21091   0.54076   0.90245   0.00000  Uiso   1.00
C716   C     0.17301   0.51448   0.56583   0.00000  Uiso   1.00
C717   C     0.25562   0.49918   0.55635   0.00000  Uiso   1.00
C718   C     0.12792   0.52510   0.90633   0.00000  Uiso   1.00
C719   C     0.19711   0.64474   0.77501   0.00000  Uiso   1.00
C720   C     0.14134   0.50704   0.85095   0.00000  Uiso   1.00
C721   C     0.19687   0.35422   0.77703   0.00000  Uiso   1.00
C722   C     0.16534   0.37571   0.75561   0.00000  Uiso   1.00
C723   C     0.13288   0.35432   0.73584   0.00000  Uiso   1.00
C724   C     0.13328   0.64512   0.73424   0.00000  Uiso   1.00
C725   C     0.16593   0.62394   0.75289   0.00000  Uiso   1.00
C726   C     0.31651   0.47006   0.72243   0.00000  Uiso   1.00
C727   C     0.03149   0.47085   0.72079   0.00000  Uiso   1.00
C728   C     0.01700   0.53051   0.77647   0.00000  Uiso   1.00
C729   C     0.30303   0.53127   0.77476   0.00000  Uiso   1.00
C730   C     0.16610   0.42001   0.75218   0.00000  Uiso   1.00
C731   C     0.19264   0.49919   0.64773   0.00000  Uiso   1.00
C732   C     0.26776   0.50939   0.50202   0.00000  Uiso   1.00
C733   C     0.20791   0.50335   0.58908   0.00000  Uiso   1.00
C734   C     0.08071   0.53575   0.93429   0.00000  Uiso   1.00
C735   C     0.06923   0.55237   0.98675   0.00000  Uiso   1.00
C736   C     0.10254   0.55053   0.51538   0.00000  Uiso   1.00
H737   H     0.10779   0.37032   0.72055   0.00000  Uiso   1.00
H738   H     0.10872   0.62889   0.71757   0.00000  Uiso   1.00
H739   H     0.30402   0.44648   0.69999   0.00000  Uiso   1.00
H740   H     0.02947   0.55505   0.79751   0.00000  Uiso   1.00
H741   H     0.28102   0.55765   0.79194   0.00000  Uiso   1.00
H742   H     0.28316   0.53723   0.90205   0.00000  Uiso   1.00
H743   H     0.30418   0.50556   0.97656   0.00000  Uiso   1.00
H744   H     0.13615   0.51205   0.58947   0.00000  Uiso   1.00
H745   H     0.05368   0.53406   0.91424   0.00000  Uiso   1.00
H746   H     0.22085   0.55119   0.86161   0.00000  Uiso   1.00
H747   H     0.22113   0.62762   0.79116   0.00000  Uiso   1.00
N748   N     0.04760   0.50001   0.75001   0.00000  Uiso   1.00
N749   N     0.28573   0.49998   0.75001   0.00000  Uiso   1.00
O750   O     0.12846   0.56108   0.75000   0.00000  Uiso   1.00
O751   O     0.20490   0.56107   0.75000   0.00000  Uiso   1.00
O752   O     0.10947   0.50000   0.82681   0.00000  Uiso   1.00
O753   O     0.18591   0.49999   0.82681   0.00000  Uiso   1.00
O754   O     0.12843   0.43893   0.75000   0.00000  Uiso   1.00
O755   O     0.20488   0.43892   0.75000   0.00000  Uiso   1.00
O756   O     0.14742   0.50001   0.67319   0.00000  Uiso   1.00
O757   O     0.22387   0.50000   0.67319   0.00000  Uiso   1.00
Zn758  Zn    0.11562   0.50001   0.75000   0.00000  Uiso   1.00
Zn759  Zn    0.21771   0.49999   0.75000   0.00000  Uiso   1.00
Br760  Br    0.30543   0.47752   0.58144   0.00000  Uiso   1.00
C761   C     0.22817   0.37472   0.80248   0.00000  Uiso   1.00
N762   N     0.25321   0.39108   0.82286   0.00000  Uiso   1.00
C763   C     0.06418   0.44307   0.68395   0.00000  Uiso   1.00
N764   N     0.09029   0.42108   0.65343   0.00000  Uiso   1.00
C765   C     0.09016   0.56933   0.56873   0.00000  Uiso   1.00
N766   N     0.08020   0.58439   0.61137   0.00000  Uiso   1.00
Br767  Br    0.00984   0.58108   0.51608   0.00000  Uiso   1.00
C768   C     0.49993   0.57994   0.75051   0.00000  Uiso   1.00
C769   C     0.48293   0.53678   0.98793   0.00000  Uiso   1.00
C770   C     0.49631   0.53380   0.93150   0.00000  Uiso   1.00
C771   C     0.51824   0.52663   0.51233   0.00000  Uiso   1.00
C772   C     0.56661   0.52398   0.98026   0.00000  Uiso   1.00
C773   C     0.57951   0.53503   0.92628   0.00000  Uiso   1.00
C774   C     0.54425   0.54076   0.90245   0.00000  Uiso   1.00
C775   C     0.50634   0.51448   0.56583   0.00000  Uiso   1.00
C776   C     0.58895   0.49918   0.55635   0.00000  Uiso   1.00
C777   C     0.46126   0.52510   0.90633   0.00000  Uiso   1.00
C778   C     0.53044   0.64474   0.77501   0.00000  Uiso   1.00
C779   C     0.47467   0.50704   0.85095   0.00000  Uiso   1.00
C780   C     0.53021   0.35422   0.77703   0.00000  Uiso   1.00
C781   C     0.49867   0.37571   0.75561   0.00000  Uiso   1.00
C782   C     0.46621   0.35432   0.73584   0.00000  Uiso   1.00
C783   C     0.46661   0.64512   0.73424   0.00000  Uiso   1.00
C784   C     0.49926   0.62394   0.75289   0.00000  Uiso   1.00
C785   C     0.64985   0.47006   0.72243   0.00000  Uiso   1.00
C786   C     0.36482   0.47085   0.72079   0.00000  Uiso   1.00
C787   C     0.35033   0.53051   0.77647   0.00000  Uiso   1.00
C788   C     0.63636   0.53127   0.77476   0.00000  Uiso   1.00
C789   C     0.49944   0.42001   0.75218   0.00000  Uiso   1.00
C790   C     0.52597   0.49919   0.64773   0.00000  Uiso   1.00
C791   C     0.60109   0.50939   0.50202   0.00000  Uiso   1.00
C792   C     0.54124   0.50335   0.58908   0.00000  Uiso   1.00
C793   C     0.41404   0.53575   0.93429   0.00000  Uiso   1.00
C794   C     0.40257   0.55237   0.98675   0.00000  Uiso   1.00
C795   C     0.43587   0.55053   0.51538   0.00000  Uiso   1.00
H796   H     0.44112   0.37032   0.72055   0.00000  Uiso   1.00
H797   H     0.44205   0.62889   0.71757   0.00000  Uiso   1.00
H798   H     0.63736   0.44648   0.69999   0.00000  Uiso   1.00
H799   H     0.36280   0.55505   0.79751   0.00000  Uiso   1.00
H800   H     0.61436   0.55765   0.79194   0.00000  Uiso   1.00
H801   H     0.61649   0.53723   0.90205   0.00000  Uiso   1.00
H802   H     0.63752   0.50556   0.97656   0.00000  Uiso   1.00
H803   H     0.46948   0.51205   0.58947   0.00000  Uiso   1.00
H804   H     0.38701   0.53406   0.91424   0.00000  Uiso   1.00
H805   H     0.55418   0.55119   0.86161   0.00000  Uiso   1.00
H806   H     0.55446   0.62762   0.79116   0.00000  Uiso   1.00
N807   N     0.38093   0.50001   0.75001   0.00000  Uiso   1.00
N808   N     0.61906   0.49998   0.75001   0.00000  Uiso   1.00
O809   O     0.46179   0.56108   0.75000   0.00000  Uiso   1.00
O810   O     0.53823   0.56107   0.75000   0.00000  Uiso   1.00
O811   O     0.44280   0.50000   0.82681   0.00000  Uiso   1.00
O812   O     0.51924   0.49999   0.82681   0.00000  Uiso   1.00
O813   O     0.46177   0.43893   0.75000   0.00000  Uiso   1.00
O814   O     0.53821   0.43892   0.75000   0.00000  Uiso   1.00
O815   O     0.48076   0.50001   0.67319   0.00000  Uiso   1.00
O816   O     0.55720   0.50000   0.67319   0.00000  Uiso   1.00
Zn817  Zn    0.44896   0.50001   0.75000   0.00000  Uiso   1.00
Zn818  Zn    0.55104   0.49999   0.75000   0.00000  Uiso   1.00
Br819  Br    0.63876   0.47752   0.58144   0.00000  Uiso   1.00
C820   C     0.56150   0.37472   0.80248   0.00000  Uiso   1.00
N821   N     0.58654   0.39108   0.82286   0.00000  Uiso   1.00
C822   C     0.39751   0.44307   0.68395   0.00000  Uiso   1.00
N823   N     0.42363   0.42108   0.65343   0.00000  Uiso   1.00
C824   C     0.42349   0.56933   0.56873   0.00000  Uiso   1.00
N825   N     0.41353   0.58439   0.61137   0.00000  Uiso   1.00
Br826  Br    0.34318   0.58108   0.51608   0.00000  Uiso   1.00
C827   C     0.83326   0.57994   0.75051   0.00000  Uiso   1.00
C828   C     0.81627   0.53678   0.98793   0.00000  Uiso   1.00
C829   C     0.82964   0.53380   0.93150   0.00000  Uiso   1.00
C830   C     0.85158   0.52663   0.51233   0.00000  Uiso   1.00
C831   C     0.89994   0.52398   0.98026   0.00000  Uiso   1.00
C832   C     0.91285   0.53503   0.92628   0.00000  Uiso   1.00
C833   C     0.87758   0.54076   0.90245   0.00000  Uiso   1.00
C834   C     0.83968   0.51448   0.56583   0.00000  Uiso   1.00
C835   C     0.92228   0.49918   0.55635   0.00000  Uiso   1.00
C836   C     0.79459   0.52510   0.90633   0.00000  Uiso   1.00
C837   C     0.86377   0.64474   0.77501   0.00000  Uiso   1.00
C838   C     0.80801   0.50704   0.85095   0.00000  Uiso   1.00
C839   C     0.86354   0.35422   0.77703   0.00000  Uiso   1.00
C840   C     0.83200   0.37571   0.75561   0.00000  Uiso   1.00
C841   C     0.79955   0.35432   0.73584   0.00000  Uiso   1.00
C842   C     0.79995   0.64512   0.73424   0.00000  Uiso   1.00
C843   C     0.83260   0.62394   0.75289   0.00000  Uiso   1.00
C844   C     0.98318   0.47006   0.72243   0.00000  Uiso   1.00
C845   C     0.69816   0.47085   0.72079   0.00000  Uiso   1.00
C846   C     0.68366   0.53051   0.77647   0.00000  Uiso   1.00
C847   C     0.96970   0.53127   0.77476   0.00000  Uiso   1.00
C848   C     0.83277   0.42001   0.75218   0.00000  Uiso   1.00
C849   C     0.85930   0.49919   0.64773   0.00000  Uiso   1.00
C850   C     0.93442   0.50939   0.50202   0.00000  Uiso   1.00
C851   C     0.87457   0.50335   0.58908   0.00000  Uiso   1.00
C852   C     0.74737   0.53575   0.93429   0.00000  Uiso   1.00
C853   C     0.73590   0.55237   0.98675   0.00000  Uiso   1.00
C854   C     0.76921   0.55053   0.51538   0.00000  Uiso   1.00
H855   H     0.77446   0.37032   0.72055   0.00000  Uiso   1.00
H856   H     0.77538   0.62889   0.71757   0.00000  Uiso   1.00
H857   H     0.97069   0.44648   0.69999   0.00000  Uiso   1.00
H858   H     0.69614   0.55505   0.79751   0.00000  Uiso   1.00
H859   H     0.94769   0.55765   0.79194   0.00000  Uiso   1.00
H860   H     0.94983   0.53723   0.90205   0.00000  Uiso   1.00
H861   H     0.97085   0.50556   0.97656   0.00000  Uiso   1.00
H862   H     0.80281   0.51205   0.58947   0.00000  Uiso   1.00
H863   H     0.72034   0.53406   0.91424   0.00000  Uiso   1.00
H864   H     0.88752   0.55119   0.86161   0.00000  Uiso   1.00
H865   H     0.88780   0.62762   0.79116   0.00000  Uiso   1.00
N866   N     0.71426   0.50001   0.75001   0.00000  Uiso   1.00
N867   N     0.95239   0.49998   0.75001   0.00000  Uiso   1.00
O868   O     0.79512   0.56108   0.75000   0.00000  Uiso   1.00
O869   O     0.87157   0.56107   0.75000   0.00000  Uiso   1.00
O870   O     0.77613   0.50000   0.82681   0.00000  Uiso   1.00
O871   O     0.85258   0.49999   0.82681   0.00000  Uiso   1.00
O872   O     0.79510   0.43893   0.75000   0.00000  Uiso   1.00
O873   O     0.87154   0.43892   0.75000   0.00000  Uiso   1.00
O874   O     0.81409   0.50001   0.67319   0.00000  Uiso   1.00
O875   O     0.89053   0.50000   0.67319   0.00000  Uiso   1.00
Zn876  Zn    0.78229   0.50001   0.75000   0.00000  Uiso   1.00
Zn877  Zn    0.88438   0.49999   0.75000   0.00000  Uiso   1.00
Br878  Br    0.97209   0.47752   0.58144   0.00000  Uiso   1.00
C879   C     0.89483   0.37472   0.80248   0.00000  Uiso   1.00
N880   N     0.91987   0.39108   0.82286   0.00000  Uiso   1.00
C881   C     0.73084   0.44307   0.68395   0.00000  Uiso   1.00
N882   N     0.75696   0.42108   0.65343   0.00000  Uiso   1.00
C883   C     0.75682   0.56933   0.56873   0.00000  Uiso   1.00
N884   N     0.74686   0.58439   0.61137   0.00000  Uiso   1.00
Br885  Br    0.67651   0.58108   0.51608   0.00000  Uiso   1.00
C886   C     0.16660   0.91327   0.75051   0.00000  Uiso   1.00
C887   C     0.14960   0.87011   0.98793   0.00000  Uiso   1.00
C888   C     0.16297   0.86714   0.93150   0.00000  Uiso   1.00
C889   C     0.18491   0.85996   0.51233   0.00000  Uiso   1.00
C890   C     0.23328   0.85731   0.98026   0.00000  Uiso   1.00
C891   C     0.24618   0.86837   0.92628   0.00000  Uiso   1.00
C892   C     0.21091   0.87409   0.90245   0.00000  Uiso   1.00
C893   C     0.17301   0.84781   0.56583   0.00000  Uiso   1.00
C894   C     0.25562   0.83251   0.55635   0.00000  Uiso   1.00
C895   C     0.12792   0.85844   0.90633   0.00000  Uiso   1.00
C896   C     0.19711   0.97807   0.77501   0.00000  Uiso   1.00
C897   C     0.14134   0.84037   0.85095   0.00000  Uiso   1.00
C898   C     0.19687   0.68755   0.77703   0.00000  Uiso   1.00
C899   C     0.16534   0.70905   0.75561   0.00000  Uiso   1.00
C900   C     0.13288   0.68766   0.73584   0.00000  Uiso   1.00
C901   C     0.13328   0.97846   0.73424   0.00000  Uiso   1.00
C902   C     0.16593   0.95727   0.75289   0.00000  Uiso   1.00
C903   C     0.31651   0.80339   0.72243   0.00000  Uiso   1.00
C904   C     0.03149   0.80418   0.72079   0.00000  Uiso   1.00
C905   C     0.01700   0.86384   0.77647   0.00000  Uiso   1.00
C906   C     0.30303   0.86461   0.77476   0.00000  Uiso   1.00
C907   C     0.16610   0.75334   0.75218   0.00000  Uiso   1.00
C908   C     0.19264   0.83252   0.64773   0.00000  Uiso   1.00
C909   C     0.26776   0.84272   0.50202   0.00000  Uiso   1.00
C910   C     0.20791   0.83669   0.58908   0.00000  Uiso   1.00
C911   C     0.08071   0.86909   0.93429   0.00000  Uiso   1.00
C912   C     0.06923   0.88571   0.98675   0.00000  Uiso   1.00
C913   C     0.10254   0.88387   0.51538   0.00000  Uiso   1.00
H914   H     0.10779   0.70365   0.72055   0.00000  Uiso   1.00
H915   H     0.10872   0.96222   0.71757   0.00000  Uiso   1.00
H916   H     0.30402   0.77981   0.69999   0.00000  Uiso   1.00
H917   H     0.02947   0.88839   0.79751   0.00000  Uiso   1.00
H918   H     0.28102   0.89098   0.79194   0.00000  Uiso   1.00
H919   H     0.28316   0.87056   0.90205   0.00000  Uiso   1.00
H920   H     0.30418   0.83889   0.97656   0.00000  Uiso   1.00
H921   H     0.13615   0.84539   0.58947   0.00000  Uiso   1.00
H922   H     0.05368   0.86739   0.91424   0.00000  Uiso   1.00
H923   H     0.22085   0.88452   0.86161   0.00000  Uiso   1.00
H924   H     0.22113   0.96096   0.79116   0.00000  Uiso   1.00
N925   N     0.04760   0.83334   0.75001   0.00000  Uiso   1.00
N926   N     0.28573   0.83331   0.75001   0.00000  Uiso   1.00
O927   O     0.12846   0.89442   0.75000   0.00000  Uiso   1.00
O928   O     0.20490   0.89441   0.75000   0.00000  Uiso   1.00
O929   O     0.10947   0.83333   0.82681   0.00000  Uiso   1.00
O930   O     0.18591   0.83332   0.82681   0.00000  Uiso   1.00
O931   O     0.12843   0.77226   0.75000   0.00000  Uiso   1.00
O932   O     0.20488   0.77225   0.75000   0.00000  Uiso   1.00
O933   O     0.14742   0.83335   0.67319   0.00000  Uiso   1.00
O934   O     0.22387   0.83334   0.67319   0.00000  Uiso   1.00
Zn935  Zn    0.11562   0.83334   0.75000   0.00000  Uiso   1.00
Zn936  Zn    0.21771   0.83333   0.75000   0.00000  Uiso   1.00
Br937  Br    0.30543   0.81085   0.58144   0.00000  Uiso   1.00
C938   C     0.22817   0.70805   0.80248   0.00000  Uiso   1.00
N939   N     0.25321   0.72441   0.82286   0.00000  Uiso   1.00
C940   C     0.06418   0.77641   0.68395   0.00000  Uiso   1.00
N941   N     0.09029   0.75441   0.65343   0.00000  Uiso   1.00
C942   C     0.09016   0.90266   0.56873   0.00000  Uiso   1.00
N943   N     0.08020   0.91773   0.61137   0.00000  Uiso   1.00
Br944  Br    0.00984   0.91441   0.51608   0.00000  Uiso   1.00
C945   C     0.49993   0.91327   0.75051   0.00000  Uiso   1.00
C946   C     0.48293   0.87011   0.98793   0.00000  Uiso   1.00
C947   C     0.49631   0.86714   0.93150   0.00000  Uiso   1.00
C948   C     0.51824   0.85996   0.51233   0.00000  Uiso   1.00
C949   C     0.56661   0.85731   0.98026   0.00000  Uiso   1.00
C950   C     0.57951   0.86837   0.92628   0.00000  Uiso   1.00
C951   C     0.54425   0.87409   0.90245   0.00000  Uiso   1.00
C952   C     0.50634   0.84781   0.56583   0.00000  Uiso   1.00
C953   C     0.58895   0.83251   0.55635   0.00000  Uiso   1.00
C954   C     0.46126   0.85844   0.90633   0.00000  Uiso   1.00
C955   C     0.53044   0.97807   0.77501   0.00000  Uiso   1.00
C956   C     0.47467   0.84037   0.85095   0.00000  Uiso   1.00
C957   C     0.53021   0.68755   0.77703   0.00000  Uiso   1.00
C958   C     0.49867   0.70905   0.75561   0.00000  Uiso   1.00
C959   C     0.46621   0.68766   0.73584   0.00000  Uiso   1.00
C960   C     0.46661   0.97846   0.73424   0.00000  Uiso   1.00
C961   C     0.49926   0.95727   0.75289   0.00000  Uiso   1.00
C962   C     0.64985   0.80339   0.72243   0.00000  Uiso   1.00
C963   C     0.36482   0.80418   0.72079   0.00000  Uiso   1.00
C964   C     0.35033   0.86384   0.77647   0.00000  Uiso   1.00
C965   C     0.63636   0.86461   0.77476   0.00000  Uiso   1.00
C966   C     0.49944   0.75334   0.75218   0.00000  Uiso   1.00
C967   C     0.52597   0.83252   0.64773   0.00000  Uiso   1.00
C968   C     0.60109   0.84272   0.50202   0.00000  Uiso   1.00
C969   C     0.54124   0.83669   0.58908   0.00000  Uiso   1.00
C970   C     0.41404   0.86909   0.93429   0.00000  Uiso   1.00
C971   C     0.40257   0.88571   0.98675   0.00000  Uiso   1.00
C972   C     0.43587   0.88387   0.51538   0.00000  Uiso   1.00
H973   H     0.44112   0.70365   0.72055   0.00000  Uiso   1.00
H974   H     0.44205   0.96222   0.71757   0.00000  Uiso   1.00
H975   H     0.63736   0.77981   0.69999   0.00000  Uiso   1.00
H976   H     0.36280   0.88839   0.79751   0.00000  Uiso   1.00
H977   H     0.61436   0.89098   0.79194   0.00000  Uiso   1.00
H978   H     0.61649   0.87056   0.90205   0.00000  Uiso   1.00
H979   H     0.63752   0.83889   0.97656   0.00000  Uiso   1.00
H980   H     0.46948   0.84539   0.58947   0.00000  Uiso   1.00
H981   H     0.38701   0.86739   0.91424   0.00000  Uiso   1.00
H982   H     0.55418   0.88452   0.86161   0.00000  Uiso   1.00
H983   H     0.55446   0.96096   0.79116   0.00000  Uiso   1.00
N984   N     0.38093   0.83334   0.75001   0.00000  Uiso   1.00
N985   N     0.61906   0.83331   0.75001   0.00000  Uiso   1.00
O986   O     0.46179   0.89442   0.75000   0.00000  Uiso   1.00
O987   O     0.53823   0.89441   0.75000   0.00000  Uiso   1.00
O988   O     0.44280   0.83333   0.82681   0.00000  Uiso   1.00
O989   O     0.51924   0.83332   0.82681   0.00000  Uiso   1.00
O990   O     0.46177   0.77226   0.75000   0.00000  Uiso   1.00
O991   O     0.53821   0.77225   0.75000   0.00000  Uiso   1.00
O992   O     0.48076   0.83335   0.67319   0.00000  Uiso   1.00
O993   O     0.55720   0.83334   0.67319   0.00000  Uiso   1.00
Zn994  Zn    0.44896   0.83334   0.75000   0.00000  Uiso   1.00
Zn995  Zn    0.55104   0.83333   0.75000   0.00000  Uiso   1.00
Br996  Br    0.63876   0.81085   0.58144   0.00000  Uiso   1.00
C997   C     0.56150   0.70805   0.80248   0.00000  Uiso   1.00
N998   N     0.58654   0.72441   0.82286   0.00000  Uiso   1.00
C999   C     0.39751   0.77641   0.68395   0.00000  Uiso   1.00
N1000  N     0.42363   0.75441   0.65343   0.00000  Uiso   1.00
C1001  C     0.42349   0.90266   0.56873   0.00000  Uiso   1.00
N1002  N     0.41353   0.91773   0.61137   0.00000  Uiso   1.00
Br1003 Br    0.34318   0.91441   0.51608   0.00000  Uiso   1.00
C1004  C     0.83326   0.91327   0.75051   0.00000  Uiso   1.00
C1005  C     0.81627   0.87011   0.98793   0.00000  Uiso   1.00
C1006  C     0.82964   0.86714   0.93150   0.00000  Uiso   1.00
C1007  C     0.85158   0.85996   0.51233   0.00000  Uiso   1.00
C1008  C     0.89994   0.85731   0.98026   0.00000  Uiso   1.00
C1009  C     0.91285   0.86837   0.92628   0.00000  Uiso   1.00
C1010  C     0.87758   0.87409   0.90245   0.00000  Uiso   1.00
C1011  C     0.83968   0.84781   0.56583   0.00000  Uiso   1.00
C1012  C     0.92228   0.83251   0.55635   0.00000  Uiso   1.00
C1013  C     0.79459   0.85844   0.90633   0.00000  Uiso   1.00
C1014  C     0.86377   0.97807   0.77501   0.00000  Uiso   1.00
C1015  C     0.80801   0.84037   0.85095   0.00000  Uiso   1.00
C1016  C     0.86354   0.68755   0.77703   0.00000  Uiso   1.00
C1017  C     0.83200   0.70905   0.75561   0.00000  Uiso   1.00
C1018  C     0.79955   0.68766   0.73584   0.00000  Uiso   1.00
C1019  C     0.79995   0.97846   0.73424   0.00000  Uiso   1.00
C1020  C     0.83260   0.95727   0.75289   0.00000  Uiso   1.00
C1021  C     0.98318   0.80339   0.72243   0.00000  Uiso   1.00
C1022  C     0.69816   0.80418   0.72079   0.00000  Uiso   1.00
C1023  C     0.68366   0.86384   0.77647   0.00000  Uiso   1.00
C1024  C     0.96970   0.86461   0.77476   0.00000  Uiso   1.00
C1025  C     0.83277   0.75334   0.75218   0.00000  Uiso   1.00
C1026  C     0.85930   0.83252   0.64773   0.00000  Uiso   1.00
C1027  C     0.93442   0.84272   0.50202   0.00000  Uiso   1.00
C1028  C     0.87457   0.83669   0.58908   0.00000  Uiso   1.00
C1029  C     0.74737   0.86909   0.93429   0.00000  Uiso   1.00
C1030  C     0.73590   0.88571   0.98675   0.00000  Uiso   1.00
C1031  C     0.76921   0.88387   0.51538   0.00000  Uiso   1.00
H1032  H     0.77446   0.70365   0.72055   0.00000  Uiso   1.00
H1033  H     0.77538   0.96222   0.71757   0.00000  Uiso   1.00
H1034  H     0.97069   0.77981   0.69999   0.00000  Uiso   1.00
H1035  H     0.69614   0.88839   0.79751   0.00000  Uiso   1.00
H1036  H     0.94769   0.89098   0.79194   0.00000  Uiso   1.00
H1037  H     0.94983   0.87056   0.90205   0.00000  Uiso   1.00
H1038  H     0.97085   0.83889   0.97656   0.00000  Uiso   1.00
H1039  H     0.80281   0.84539   0.58947   0.00000  Uiso   1.00
H1040  H     0.72034   0.86739   0.91424   0.00000  Uiso   1.00
H1041  H     0.88752   0.88452   0.86161   0.00000  Uiso   1.00
H1042  H     0.88780   0.96096   0.79116   0.00000  Uiso   1.00
N1043  N     0.71426   0.83334   0.75001   0.00000  Uiso   1.00
N1044  N     0.95239   0.83331   0.75001   0.00000  Uiso   1.00
O1045  O     0.79512   0.89442   0.75000   0.00000  Uiso   1.00
O1046  O     0.87157   0.89441   0.75000   0.00000  Uiso   1.00
O1047  O     0.77613   0.83333   0.82681   0.00000  Uiso   1.00
O1048  O     0.85258   0.83332   0.82681   0.00000  Uiso   1.00
O1049  O     0.79510   0.77226   0.75000   0.00000  Uiso   1.00
O1050  O     0.87154   0.77225   0.75000   0.00000  Uiso   1.00
O1051  O     0.81409   0.83335   0.67319   0.00000  Uiso   1.00
O1052  O     0.89053   0.83334   0.67319   0.00000  Uiso   1.00
Zn1053 Zn    0.78229   0.83334   0.75000   0.00000  Uiso   1.00
Zn1054 Zn    0.88438   0.83333   0.75000   0.00000  Uiso   1.00
Br1055 Br    0.97209   0.81085   0.58144   0.00000  Uiso   1.00
C1056  C     0.89483   0.70805   0.80248   0.00000  Uiso   1.00
N1057  N     0.91987   0.72441   0.82286   0.00000  Uiso   1.00
C1058  C     0.73084   0.77641   0.68395   0.00000  Uiso   1.00
N1059  N     0.75696   0.75441   0.65343   0.00000  Uiso   1.00
C1060  C     0.75682   0.90266   0.56873   0.00000  Uiso   1.00
N1061  N     0.74686   0.91773   0.61137   0.00000  Uiso   1.00
Br1062 Br    0.67651   0.91441   0.51608   0.00000  Uiso   1.00
loop_
_geom_bond_atom_site_label_1
_geom_bond_atom_site_label_2
_geom_bond_distance
_geom_bond_site_symmetry_2
_ccdc_geom_bond_type
C1     C17     1.415   .     S
C1     O42     1.283   .     A
C1     O43     1.284   .     A
C2     C3      1.401   .     A
C2     C535    1.422   .     S
C2     C559    1.424   .     S
C3     C10     1.413   .     A
C3     C7      1.405   .     A
C4     C8      1.389   .     A
C4     C533    1.422   1_554 S
C4     C536    1.419   1_554 S
C5     C6      1.389   .     A
C5     C535    1.419   .     S
C5     C555    1.397   .     S
C6     C7      1.383   .     A
C6     H34     1.084   .     S
C7     H38     1.071   .     S
C8     C25     1.399   .     A
C8     H36     1.078   .     S
C9     C25     1.412   .     A
C9     Br52    1.923   .     S
C9     C24     1.392   .     A
C10    C26     1.403   .     A
C10    C12     1.484   .     S
C11    H39     1.086   .     S
C11    C17     1.394   .     A
C11    C190    1.376   .     S
C12    O44     1.303   .     A
C12    O45     1.293   .     A
C13    C53     1.447   .     S
C13    C14     1.413   .     A
C13    C365    1.376   1_545 S
C14    C22     1.427   .     S
C14    C15     1.397   .     A
C15    H29     1.079   .     S
C15    C370    1.367   1_545 S
C16    H30     1.084   .     S
C16    C17     1.392   .     A
C16    C192    1.367   .     S
C18    N41     1.362   .     A
C18    H31     1.083   .     S
C18    C78     1.417   .     S
C19    N40     1.374   .     A
C19    C55     1.437   .     S
C19    C136    1.417   1_455 S
C20    N40     1.364   .     A
C20    H32     1.082   .     S
C20    C139    1.415   1_455 S
C21    N41     1.368   .     A
C21    H33     1.076   .     S
C21    C79     1.415   .     S
C22    O47     1.282   .     A
C22    O46     1.289   .     A
C23    O48     1.297   .     A
C23    C25     1.461   .     S
C23    O49     1.293   .     A
C24    C536    1.397   1_554 S
C24    H566    1.084   1_554 S
C26    H37     1.083   .     S
C26    C27     1.401   .     A
C27    C559    1.410   .     S
C27    Br590   1.921   .     S
C28    C57     1.448   .     S
C28    C533    1.424   1_554 S
C28    C558    1.410   1_554 S
H35    C555    1.084   .     S
N40    Zn50    2.013   .     S
N41    Zn51    2.013   .     S
O42    Zn50    1.998   .     S
O43    Zn51    2.001   .     S
O44    Zn50    1.952   .     S
O45    Zn51    1.930   .     S
O46    Zn50    2.001   .     S
O47    Zn51    1.998   .     S
O48    Zn50    1.930   .     S
O49    Zn51    1.952   .     S
C53    N54     1.158   .     T
C55    N56     1.157   .     T
C57    N58     1.158   .     T
Br59   C558    1.921   1_554 S
C60    C76     1.415   .     S
C60    O101    1.283   .     A
C60    O102    1.284   .     A
C61    C62     1.401   .     A
C61    C594    1.422   .     S
C61    C618    1.424   .     S
C62    C69     1.413   .     A
C62    C66     1.405   .     A
C63    C67     1.389   .     A
C63    C592    1.422   1_554 S
C63    C595    1.419   1_554 S
C64    C65     1.389   .     A
C64    C594    1.419   .     S
C64    C614    1.397   .     S
C65    C66     1.383   .     A
C65    H93     1.084   .     S
C66    H97     1.071   .     S
C67    C84     1.399   .     A
C67    H95     1.078   .     S
C68    C84     1.412   .     A
C68    Br111   1.923   .     S
C68    C83     1.392   .     A
C69    C85     1.403   .     A
C69    C71     1.484   .     S
C70    H98     1.086   .     S
C70    C76     1.394   .     A
C70    C249    1.376   .     S
C71    O103    1.303   .     A
C71    O104    1.293   .     A
C72    C112    1.447   .     S
C72    C73     1.413   .     A
C72    C424    1.376   1_545 S
C73    C81     1.427   .     S
C73    C74     1.397   .     A
C74    H88     1.079   .     S
C74    C429    1.367   1_545 S
C75    H89     1.084   .     S
C75    C76     1.392   .     A
C75    C251    1.367   .     S
C77    N100    1.362   .     A
C77    H90     1.083   .     S
C77    C137    1.417   .     S
C78    N99     1.374   .     A
C78    C114    1.437   .     S
C79    N99     1.364   .     A
C79    H91     1.082   .     S
C80    N100    1.368   .     A
C80    H92     1.076   .     S
C80    C138    1.415   .     S
C81    O106    1.282   .     A
C81    O105    1.289   .     A
C82    O107    1.297   .     A
C82    C84     1.461   .     S
C82    O108    1.293   .     A
C83    C595    1.397   1_554 S
C83    H625    1.084   1_554 S
C85    H96     1.083   .     S
C85    C86     1.401   .     A
C86    C618    1.410   .     S
C86    Br649   1.921   .     S
C87    C116    1.448   .     S
C87    C592    1.424   1_554 S
C87    C617    1.410   1_554 S
H94    C614    1.084   .     S
N99    Zn109   2.013   .     S
N100   Zn110   2.013   .     S
O101   Zn109   1.998   .     S
O102   Zn110   2.001   .     S
O103   Zn109   1.952   .     S
O104   Zn110   1.930   .     S
O105   Zn109   2.001   .     S
O106   Zn110   1.998   .     S
O107   Zn109   1.930   .     S
O108   Zn110   1.952   .     S
C112   N113    1.158   .     T
C114   N115    1.157   .     T
C116   N117    1.158   .     T
Br118  C617    1.921   1_554 S
C119   C135    1.415   .     S
C119   O160    1.283   .     A
C119   O161    1.284   .     A
C120   C121    1.401   .     A
C120   C653    1.422   .     S
C120   C677    1.424   .     S
C121   C128    1.413   .     A
C121   C125    1.405   .     A
C122   C126    1.389   .     A
C122   C651    1.422   1_554 S
C122   C654    1.419   1_554 S
C123   C124    1.389   .     A
C123   C653    1.419   .     S
C123   C673    1.397   .     S
C124   C125    1.383   .     A
C124   H152    1.084   .     S
C125   H156    1.071   .     S
C126   C143    1.399   .     A
C126   H154    1.078   .     S
C127   C143    1.412   .     A
C127   Br170   1.923   .     S
C127   C142    1.392   .     A
C128   C144    1.403   .     A
C128   C130    1.484   .     S
C129   H157    1.086   .     S
C129   C135    1.394   .     A
C129   C308    1.376   .     S
C130   O162    1.303   .     A
C130   O163    1.293   .     A
C131   C171    1.447   .     S
C131   C132    1.413   .     A
C131   C483    1.376   1_545 S
C132   C140    1.427   .     S
C132   C133    1.397   .     A
C133   H147    1.079   .     S
C133   C488    1.367   1_545 S
C134   H148    1.084   .     S
C134   C135    1.392   .     A
C134   C310    1.367   .     S
C136   N159    1.362   .     A
C136   H149    1.083   .     S
C136   C19     1.417   1_655 S
C137   N158    1.374   .     A
C137   C173    1.437   .     S
C138   N158    1.364   .     A
C138   H150    1.082   .     S
C139   N159    1.368   .     A
C139   H151    1.076   .     S
C139   C20     1.415   1_655 S
C140   O165    1.282   .     A
C140   O164    1.289   .     A
C141   O166    1.297   .     A
C141   C143    1.461   .     S
C141   O167    1.293   .     A
C142   C654    1.397   1_554 S
C142   H684    1.084   1_554 S
C144   H155    1.083   .     S
C144   C145    1.401   .     A
C145   C677    1.410   .     S
C145   Br708   1.921   .     S
C146   C175    1.448   .     S
C146   C651    1.424   1_554 S
C146   C676    1.410   1_554 S
H153   C673    1.084   .     S
N158   Zn168   2.013   .     S
N159   Zn169   2.013   .     S
O160   Zn168   1.998   .     S
O161   Zn169   2.001   .     S
O162   Zn168   1.952   .     S
O163   Zn169   1.930   .     S
O164   Zn168   2.001   .     S
O165   Zn169   1.998   .     S
O166   Zn168   1.930   .     S
O167   Zn169   1.952   .     S
C171   N172    1.158   .     T
C173   N174    1.157   .     T
C175   N176    1.158   .     T
Br177  C676    1.921   1_554 S
C178   C194    1.415   .     S
C178   O219    1.283   .     A
C178   O220    1.284   .     A
C179   C180    1.401   .     A
C179   C712    1.422   .     S
C179   C736    1.424   .     S
C180   C187    1.413   .     A
C180   C184    1.405   .     A
C181   C185    1.389   .     A
C181   C710    1.422   1_554 S
C181   C713    1.419   1_554 S
C182   C183    1.389   .     A
C182   C712    1.419   .     S
C182   C732    1.397   .     S
C183   C184    1.383   .     A
C183   H211    1.084   .     S
C184   H215    1.071   .     S
C185   C202    1.399   .     A
C185   H213    1.078   .     S
C186   C202    1.412   .     A
C186   Br229   1.923   .     S
C186   C201    1.392   .     A
C187   C203    1.403   .     A
C187   C189    1.484   .     S
C188   H216    1.086   .     S
C188   C194    1.394   .     A
C188   C367    1.376   .     S
C189   O221    1.303   .     A
C189   O222    1.293   .     A
C190   C230    1.447   .     S
C190   C191    1.413   .     A
C191   C199    1.427   .     S
C191   C192    1.397   .     A
C192   H206    1.079   .     S
C193   H207    1.084   .     S
C193   C194    1.392   .     A
C193   C369    1.367   .     S
C195   N218    1.362   .     A
C195   H208    1.083   .     S
C195   C255    1.417   .     S
C196   N217    1.374   .     A
C196   C232    1.437   .     S
C196   C313    1.417   1_455 S
C197   N217    1.364   .     A
C197   H209    1.082   .     S
C197   C316    1.415   1_455 S
C198   N218    1.368   .     A
C198   H210    1.076   .     S
C198   C256    1.415   .     S
C199   O224    1.282   .     A
C199   O223    1.289   .     A
C200   O225    1.297   .     A
C200   C202    1.461   .     S
C200   O226    1.293   .     A
C201   C713    1.397   1_554 S
C201   H743    1.084   1_554 S
C203   H214    1.083   .     S
C203   C204    1.401   .     A
C204   C736    1.410   .     S
C204   Br767   1.921   .     S
C205   C234    1.448   .     S
C205   C710    1.424   1_554 S
C205   C735    1.410   1_554 S
H212   C732    1.084   .     S
N217   Zn227   2.013   .     S
N218   Zn228   2.013   .     S
O219   Zn227   1.998   .     S
O220   Zn228   2.001   .     S
O221   Zn227   1.952   .     S
O222   Zn228   1.930   .     S
O223   Zn227   2.001   .     S
O224   Zn228   1.998   .     S
O225   Zn227   1.930   .     S
O226   Zn228   1.952   .     S
C230   N231    1.158   .     T
C232   N233    1.157   .     T
C234   N235    1.158   .     T
Br236  C735    1.921   1_554 S
C237   C253    1.415   .     S
C237   O278    1.283   .     A
C237   O279    1.284   .     A
C238   C239    1.401   .     A
C238   C771    1.422   .     S
C238   C795    1.424   .     S
C239   C246    1.413   .     A
C239   C243    1.405   .     A
C240   C244    1.389   .     A
C240   C769    1.422   1_554 S
C240   C772    1.419   1_554 S
C241   C242    1.389   .     A
C241   C771    1.419   .     S
C241   C791    1.397   .     S
C242   C243    1.383   .     A
C242   H270    1.084   .     S
C243   H274    1.071   .     S
C244   C261    1.399   .     A
C244   H272    1.078   .     S
C245   C261    1.412   .     A
C245   Br288   1.923   .     S
C245   C260    1.392   .     A
C246   C262    1.403   .     A
C246   C248    1.484   .     S
C247   H275    1.086   .     S
C247   C253    1.394   .     A
C247   C426    1.376   .     S
C248   O280    1.303   .     A
C248   O281    1.293   .     A
C249   C289    1.447   .     S
C249   C250    1.413   .     A
C250   C258    1.427   .     S
C250   C251    1.397   .     A
C251   H265    1.079   .     S
C252   H266    1.084   .     S
C252   C253    1.392   .     A
C252   C428    1.367   .     S
C254   N277    1.362   .     A
C254   H267    1.083   .     S
C254   C314    1.417   .     S
C255   N276    1.374   .     A
C255   C291    1.437   .     S
C256   N276    1.364   .     A
C256   H268    1.082   .     S
C257   N277    1.368   .     A
C257   H269    1.076   .     S
C257   C315    1.415   .     S
C258   O283    1.282   .     A
C258   O282    1.289   .     A
C259   O284    1.297   .     A
C259   C261    1.461   .     S
C259   O285    1.293   .     A
C260   C772    1.397   1_554 S
C260   H802    1.084   1_554 S
C262   H273    1.083   .     S
C262   C263    1.401   .     A
C263   C795    1.410   .     S
C263   Br826   1.921   .     S
C264   C293    1.448   .     S
C264   C769    1.424   1_554 S
C264   C794    1.410   1_554 S
H271   C791    1.084   .     S
N276   Zn286   2.013   .     S
N277   Zn287   2.013   .     S
O278   Zn286   1.998   .     S
O279   Zn287   2.001   .     S
O280   Zn286   1.952   .     S
O281   Zn287   1.930   .     S
O282   Zn286   2.001   .     S
O283   Zn287   1.998   .     S
O284   Zn286   1.930   .     S
O285   Zn287   1.952   .     S
C289   N290    1.158   .     T
C291   N292    1.157   .     T
C293   N294    1.158   .     T
Br295  C794    1.921   1_554 S
C296   C312    1.415   .     S
C296   O337    1.283   .     A
C296   O338    1.284   .     A
C297   C298    1.401   .     A
C297   C830    1.422   .     S
C297   C854    1.424   .     S
C298   C305    1.413   .     A
C298   C302    1.405   .     A
C299   C303    1.389   .     A
C299   C828    1.422   1_554 S
C299   C831    1.419   1_554 S
C300   C301    1.389   .     A
C300   C830    1.419   .     S
C300   C850    1.397   .     S
C301   C302    1.383   .     A
C301   H329    1.084   .     S
C302   H333    1.071   .     S
C303   C320    1.399   .     A
C303   H331    1.078   .     S
C304   C320    1.412   .     A
C304   Br347   1.923   .     S
C304   C319    1.392   .     A
C305   C321    1.403   .     A
C305   C307    1.484   .     S
C306   H334    1.086   .     S
C306   C312    1.394   .     A
C306   C485    1.376   .     S
C307   O339    1.303   .     A
C307   O340    1.293   .     A
C308   C348    1.447   .     S
C308   C309    1.413   .     A
C309   C317    1.427   .     S
C309   C310    1.397   .     A
C310   H324    1.079   .     S
C311   H325    1.084   .     S
C311   C312    1.392   .     A
C311   C487    1.367   .     S
C313   N336    1.362   .     A
C313   H326    1.083   .     S
C313   C196    1.417   1_655 S
C314   N335    1.374   .     A
C314   C350    1.437   .     S
C315   N335    1.364   .     A
C315   H327    1.082   .     S
C316   N336    1.368   .     A
C316   H328    1.076   .     S
C316   C197    1.415   1_655 S
C317   O342    1.282   .     A
C317   O341    1.289   .     A
C318   O343    1.297   .     A
C318   C320    1.461   .     S
C318   O344    1.293   .     A
C319   C831    1.397   1_554 S
C319   H861    1.084   1_554 S
C321   H332    1.083   .     S
C321   C322    1.401   .     A
C322   C854    1.410   .     S
C322   Br885   1.921   .     S
C323   C352    1.448   .     S
C323   C828    1.424   1_554 S
C323   C853    1.410   1_554 S
H330   C850    1.084   .     S
N335   Zn345   2.013   .     S
N336   Zn346   2.013   .     S
O337   Zn345   1.998   .     S
O338   Zn346   2.001   .     S
O339   Zn345   1.952   .     S
O340   Zn346   1.930   .     S
O341   Zn345   2.001   .     S
O342   Zn346   1.998   .     S
O343   Zn345   1.930   .     S
O344   Zn346   1.952   .     S
C348   N349    1.158   .     T
C350   N351    1.157   .     T
C352   N353    1.158   .     T
Br354  C853    1.921   1_554 S
C355   C371    1.415   .     S
C355   O396    1.283   .     A
C355   O397    1.284   .     A
C356   C357    1.401   .     A
C356   C889    1.422   .     S
C356   C913    1.424   .     S
C357   C364    1.413   .     A
C357   C361    1.405   .     A
C358   C362    1.389   .     A
C358   C887    1.422   1_554 S
C358   C890    1.419   1_554 S
C359   C360    1.389   .     A
C359   C889    1.419   .     S
C359   C909    1.397   .     S
C360   C361    1.383   .     A
C360   H388    1.084   .     S
C361   H392    1.071   .     S
C362   C379    1.399   .     A
C362   H390    1.078   .     S
C363   C379    1.412   .     A
C363   Br406   1.923   .     S
C363   C378    1.392   .     A
C364   C380    1.403   .     A
C364   C366    1.484   .     S
C365   H393    1.086   .     S
C365   C371    1.394   .     A
C365   C13     1.376   1_565 S
C366   O398    1.303   .     A
C366   O399    1.293   .     A
C367   C407    1.447   .     S
C367   C368    1.413   .     A
C368   C376    1.427   .     S
C368   C369    1.397   .     A
C369   H383    1.079   .     S
C370   H384    1.084   .     S
C370   C371    1.392   .     A
C370   C15     1.367   1_565 S
C372   N395    1.362   .     A
C372   H385    1.083   .     S
C372   C432    1.417   .     S
C373   N394    1.374   .     A
C373   C409    1.437   .     S
C373   C490    1.417   1_455 S
C374   N394    1.364   .     A
C374   H386    1.082   .     S
C374   C493    1.415   1_455 S
C375   N395    1.368   .     A
C375   H387    1.076   .     S
C375   C433    1.415   .     S
C376   O401    1.282   .     A
C376   O400    1.289   .     A
C377   O402    1.297   .     A
C377   C379    1.461   .     S
C377   O403    1.293   .     A
C378   C890    1.397   1_554 S
C378   H920    1.084   1_554 S
C380   H391    1.083   .     S
C380   C381    1.401   .     A
C381   C913    1.410   .     S
C381   Br944   1.921   .     S
C382   C411    1.448   .     S
C382   C887    1.424   1_554 S
C382   C912    1.410   1_554 S
H389   C909    1.084   .     S
N394   Zn404   2.013   .     S
N395   Zn405   2.013   .     S
O396   Zn404   1.998   .     S
O397   Zn405   2.001   .     S
O398   Zn404   1.952   .     S
O399   Zn405   1.930   .     S
O400   Zn404   2.001   .     S
O401   Zn405   1.998   .     S
O402   Zn404   1.930   .     S
O403   Zn405   1.952   .     S
C407   N408    1.158   .     T
C409   N410    1.157   .     T
C411   N412    1.158   .     T
Br413  C912    1.921   1_554 S
C414   C430    1.415   .     S
C414   O455    1.283   .     A
C414   O456    1.284   .     A
C415   C416    1.401   .     A
C415   C948    1.422   .     S
C415   C972    1.424   .     S
C416   C423    1.413   .     A
C416   C420    1.405   .     A
C417   C421    1.389   .     A
C417   C946    1.422   1_554 S
C417   C949    1.419   1_554 S
C418   C419    1.389   .     A
C418   C948    1.419   .     S
C418   C968    1.397   .     S
C419   C420    1.383   .     A
C419   H447    1.084   .     S
C420   H451    1.071   .     S
C421   C438    1.399   .     A
C421   H449    1.078   .     S
C422   C438    1.412   .     A
C422   Br465   1.923   .     S
C422   C437    1.392   .     A
C423   C439    1.403   .     A
C423   C425    1.484   .     S
C424   H452    1.086   .     S
C424   C430    1.394   .     A
C424   C72     1.376   1_565 S
C425   O457    1.303   .     A
C425   O458    1.293   .     A
C426   C466    1.447   .     S
C426   C427    1.413   .     A
C427   C435    1.427   .     S
C427   C428    1.397   .     A
C428   H442    1.079   .     S
C429   H443    1.084   .     S
C429   C430    1.392   .     A
C429   C74     1.367   1_565 S
C431   N454    1.362   .     A
C431   H444    1.083   .     S
C431   C491    1.417   .     S
C432   N453    1.374   .     A
C432   C468    1.437   .     S
C433   N453    1.364   .     A
C433   H445    1.082   .     S
C434   N454    1.368   .     A
C434   H446    1.076   .     S
C434   C492    1.415   .     S
C435   O460    1.282   .     A
C435   O459    1.289   .     A
C436   O461    1.297   .     A
C436   C438    1.461   .     S
C436   O462    1.293   .     A
C437   C949    1.397   1_554 S
C437   H979    1.084   1_554 S
C439   H450    1.083   .     S
C439   C440    1.401   .     A
C440   C972    1.410   .     S
C440   Br1003  1.921   .     S
C441   C470    1.448   .     S
C441   C946    1.424   1_554 S
C441   C971    1.410   1_554 S
H448   C968    1.084   .     S
N453   Zn463   2.013   .     S
N454   Zn464   2.013   .     S
O455   Zn463   1.998   .     S
O456   Zn464   2.001   .     S
O457   Zn463   1.952   .     S
O458   Zn464   1.930   .     S
O459   Zn463   2.001   .     S
O460   Zn464   1.998   .     S
O461   Zn463   1.930   .     S
O462   Zn464   1.952   .     S
C466   N467    1.158   .     T
C468   N469    1.157   .     T
C470   N471    1.158   .     T
Br472  C971    1.921   1_554 S
C473   C489    1.415   .     S
C473   O514    1.283   .     A
C473   O515    1.284   .     A
C474   C475    1.401   .     A
C474   C1007   1.422   .     S
C474   C1031   1.424   .     S
C475   C482    1.413   .     A
C475   C479    1.405   .     A
C476   C480    1.389   .     A
C476   C1005   1.422   1_554 S
C476   C1008   1.419   1_554 S
C477   C478    1.389   .     A
C477   C1007   1.419   .     S
C477   C1027   1.397   .     S
C478   C479    1.383   .     A
C478   H506    1.084   .     S
C479   H510    1.071   .     S
C480   C497    1.399   .     A
C480   H508    1.078   .     S
C481   C497    1.412   .     A
C481   Br524   1.923   .     S
C481   C496    1.392   .     A
C482   C498    1.403   .     A
C482   C484    1.484   .     S
C483   H511    1.086   .     S
C483   C489    1.394   .     A
C483   C131    1.376   1_565 S
C484   O516    1.303   .     A
C484   O517    1.293   .     A
C485   C525    1.447   .     S
C485   C486    1.413   .     A
C486   C494    1.427   .     S
C486   C487    1.397   .     A
C487   H501    1.079   .     S
C488   H502    1.084   .     S
C488   C489    1.392   .     A
C488   C133    1.367   1_565 S
C490   N513    1.362   .     A
C490   H503    1.083   .     S
C490   C373    1.417   1_655 S
C491   N512    1.374   .     A
C491   C527    1.437   .     S
C492   N512    1.364   .     A
C492   H504    1.082   .     S
C493   N513    1.368   .     A
C493   H505    1.076   .     S
C493   C374    1.415   1_655 S
C494   O519    1.282   .     A
C494   O518    1.289   .     A
C495   O520    1.297   .     A
C495   C497    1.461   .     S
C495   O521    1.293   .     A
C496   C1008   1.397   1_554 S
C496   H1038   1.084   1_554 S
C498   H509    1.083   .     S
C498   C499    1.401   .     A
C499   C1031   1.410   .     S
C499   Br1062  1.921   .     S
C500   C529    1.448   .     S
C500   C1005   1.424   1_554 S
C500   C1030   1.410   1_554 S
H507   C1027   1.084   .     S
N512   Zn522   2.013   .     S
N513   Zn523   2.013   .     S
O514   Zn522   1.998   .     S
O515   Zn523   2.001   .     S
O516   Zn522   1.952   .     S
O517   Zn523   1.930   .     S
O518   Zn522   2.001   .     S
O519   Zn523   1.998   .     S
O520   Zn522   1.930   .     S
O521   Zn523   1.952   .     S
C525   N526    1.158   .     T
C527   N528    1.157   .     T
C529   N530    1.158   .     T
Br531  C1030   1.921   1_554 S
C532   C548    1.415   .     S
C532   O573    1.283   .     A
C532   O574    1.284   .     A
C533   C534    1.401   .     A
C533   C4      1.422   1_556 S
C533   C28     1.424   1_556 S
C534   C541    1.413   .     A
C534   C538    1.405   .     A
C535   C539    1.389   .     A
C536   C537    1.389   .     A
C536   C4      1.419   1_556 S
C536   C24     1.397   1_556 S
C537   C538    1.383   .     A
C537   H565    1.084   .     S
C538   H569    1.071   .     S
C539   C556    1.399   .     A
C539   H567    1.078   .     S
C540   C556    1.412   .     A
C540   Br583   1.923   .     S
C540   C555    1.392   .     A
C541   C557    1.403   .     A
C541   C543    1.484   .     S
C542   H570    1.086   .     S
C542   C548    1.394   .     A
C542   C721    1.376   .     S
C543   O575    1.303   .     A
C543   O576    1.293   .     A
C544   C584    1.447   .     S
C544   C545    1.413   .     A
C544   C896    1.376   1_545 S
C545   C553    1.427   .     S
C545   C546    1.397   .     A
C546   H560    1.079   .     S
C546   C901    1.367   1_545 S
C547   H561    1.084   .     S
C547   C548    1.392   .     A
C547   C723    1.367   .     S
C549   N572    1.362   .     A
C549   H562    1.083   .     S
C549   C609    1.417   .     S
C550   N571    1.374   .     A
C550   C586    1.437   .     S
C550   C667    1.417   1_455 S
C551   N571    1.364   .     A
C551   H563    1.082   .     S
C551   C670    1.415   1_455 S
C552   N572    1.368   .     A
C552   H564    1.076   .     S
C552   C610    1.415   .     S
C553   O578    1.282   .     A
C553   O577    1.289   .     A
C554   O579    1.297   .     A
C554   C556    1.461   .     S
C554   O580    1.293   .     A
C557   H568    1.083   .     S
C557   C558    1.401   .     A
C558   C28     1.410   1_556 S
C558   Br59    1.921   1_556 S
C559   C588    1.448   .     S
H566   C24     1.084   1_556 S
N571   Zn581   2.013   .     S
N572   Zn582   2.013   .     S
O573   Zn581   1.998   .     S
O574   Zn582   2.001   .     S
O575   Zn581   1.952   .     S
O576   Zn582   1.930   .     S
O577   Zn581   2.001   .     S
O578   Zn582   1.998   .     S
O579   Zn581   1.930   .     S
O580   Zn582   1.952   .     S
C584   N585    1.158   .     T
C586   N587    1.157   .     T
C588   N589    1.158   .     T
C591   C607    1.415   .     S
C591   O632    1.283   .     A
C591   O633    1.284   .     A
C592   C593    1.401   .     A
C592   C63     1.422   1_556 S
C592   C87     1.424   1_556 S
C593   C600    1.413   .     A
C593   C597    1.405   .     A
C594   C598    1.389   .     A
C595   C596    1.389   .     A
C595   C63     1.419   1_556 S
C595   C83     1.397   1_556 S
C596   C597    1.383   .     A
C596   H624    1.084   .     S
C597   H628    1.071   .     S
C598   C615    1.399   .     A
C598   H626    1.078   .     S
C599   C615    1.412   .     A
C599   Br642   1.923   .     S
C599   C614    1.392   .     A
C600   C616    1.403   .     A
C600   C602    1.484   .     S
C601   H629    1.086   .     S
C601   C607    1.394   .     A
C601   C780    1.376   .     S
C602   O634    1.303   .     A
C602   O635    1.293   .     A
C603   C643    1.447   .     S
C603   C604    1.413   .     A
C603   C955    1.376   1_545 S
C604   C612    1.427   .     S
C604   C605    1.397   .     A
C605   H619    1.079   .     S
C605   C960    1.367   1_545 S
C606   H620    1.084   .     S
C606   C607    1.392   .     A
C606   C782    1.367   .     S
C608   N631    1.362   .     A
C608   H621    1.083   .     S
C608   C668    1.417   .     S
C609   N630    1.374   .     A
C609   C645    1.437   .     S
C610   N630    1.364   .     A
C610   H622    1.082   .     S
C611   N631    1.368   .     A
C611   H623    1.076   .     S
C611   C669    1.415   .     S
C612   O637    1.282   .     A
C612   O636    1.289   .     A
C613   O638    1.297   .     A
C613   C615    1.461   .     S
C613   O639    1.293   .     A
C616   H627    1.083   .     S
C616   C617    1.401   .     A
C617   C87     1.410   1_556 S
C617   Br118   1.921   1_556 S
C618   C647    1.448   .     S
H625   C83     1.084   1_556 S
N630   Zn640   2.013   .     S
N631   Zn641   2.013   .     S
O632   Zn640   1.998   .     S
O633   Zn641   2.001   .     S
O634   Zn640   1.952   .     S
O635   Zn641   1.930   .     S
O636   Zn640   2.001   .     S
O637   Zn641   1.998   .     S
O638   Zn640   1.930   .     S
O639   Zn641   1.952   .     S
C643   N644    1.158   .     T
C645   N646    1.157   .     T
C647   N648    1.158   .     T
C650   C666    1.415   .     S
C650   O691    1.283   .     A
C650   O692    1.284   .     A
C651   C652    1.401   .     A
C651   C122    1.422   1_556 S
C651   C146    1.424   1_556 S
C652   C659    1.413   .     A
C652   C656    1.405   .     A
C653   C657    1.389   .     A
C654   C655    1.389   .     A
C654   C122    1.419   1_556 S
C654   C142    1.397   1_556 S
C655   C656    1.383   .     A
C655   H683    1.084   .     S
C656   H687    1.071   .     S
C657   C674    1.399   .     A
C657   H685    1.078   .     S
C658   C674    1.412   .     A
C658   Br701   1.923   .     S
C658   C673    1.392   .     A
C659   C675    1.403   .     A
C659   C661    1.484   .     S
C660   H688    1.086   .     S
C660   C666    1.394   .     A
C660   C839    1.376   .     S
C661   O693    1.303   .     A
C661   O694    1.293   .     A
C662   C702    1.447   .     S
C662   C663    1.413   .     A
C662   C1014   1.376   1_545 S
C663   C671    1.427   .     S
C663   C664    1.397   .     A
C664   H678    1.079   .     S
C664   C1019   1.367   1_545 S
C665   H679    1.084   .     S
C665   C666    1.392   .     A
C665   C841    1.367   .     S
C667   N690    1.362   .     A
C667   H680    1.083   .     S
C667   C550    1.417   1_655 S
C668   N689    1.374   .     A
C668   C704    1.437   .     S
C669   N689    1.364   .     A
C669   H681    1.082   .     S
C670   N690    1.368   .     A
C670   H682    1.076   .     S
C670   C551    1.415   1_655 S
C671   O696    1.282   .     A
C671   O695    1.289   .     A
C672   O697    1.297   .     A
C672   C674    1.461   .     S
C672   O698    1.293   .     A
C675   H686    1.083   .     S
C675   C676    1.401   .     A
C676   C146    1.410   1_556 S
C676   Br177   1.921   1_556 S
C677   C706    1.448   .     S
H684   C142    1.084   1_556 S
N689   Zn699   2.013   .     S
N690   Zn700   2.013   .     S
O691   Zn699   1.998   .     S
O692   Zn700   2.001   .     S
O693   Zn699   1.952   .     S
O694   Zn700   1.930   .     S
O695   Zn699   2.001   .     S
O696   Zn700   1.998   .     S
O697   Zn699   1.930   .     S
O698   Zn700   1.952   .     S
C702   N703    1.158   .     T
C704   N705    1.157   .     T
C706   N707    1.158   .     T
C709   C725    1.415   .     S
C709   O750    1.283   .     A
C709   O751    1.284   .     A
C710   C711    1.401   .     A
C710   C181    1.422   1_556 S
C710   C205    1.424   1_556 S
C711   C718    1.413   .     A
C711   C715    1.405   .     A
C712   C716    1.389   .     A
C713   C714    1.389   .     A
C713   C181    1.419   1_556 S
C713   C201    1.397   1_556 S
C714   C715    1.383   .     A
C714   H742    1.084   .     S
C715   H746    1.071   .     S
C716   C733    1.399   .     A
C716   H744    1.078   .     S
C717   C733    1.412   .     A
C717   Br760   1.923   .     S
C717   C732    1.392   .     A
C718   C734    1.403   .     A
C718   C720    1.484   .     S
C719   H747    1.086   .     S
C719   C725    1.394   .     A
C719   C898    1.376   .     S
C720   O752    1.303   .     A
C720   O753    1.293   .     A
C721   C761    1.447   .     S
C721   C722    1.413   .     A
C722   C730    1.427   .     S
C722   C723    1.397   .     A
C723   H737    1.079   .     S
C724   H738    1.084   .     S
C724   C725    1.392   .     A
C724   C900    1.367   .     S
C726   N749    1.362   .     A
C726   H739    1.083   .     S
C726   C786    1.417   .     S
C727   N748    1.374   .     A
C727   C763    1.437   .     S
C727   C844    1.417   1_455 S
C728   N748    1.364   .     A
C728   H740    1.082   .     S
C728   C847    1.415   1_455 S
C729   N749    1.368   .     A
C729   H741    1.076   .     S
C729   C787    1.415   .     S
C730   O755    1.282   .     A
C730   O754    1.289   .     A
C731   O756    1.297   .     A
C731   C733    1.461   .     S
C731   O757    1.293   .     A
C734   H745    1.083   .     S
C734   C735    1.401   .     A
C735   C205    1.410   1_556 S
C735   Br236   1.921   1_556 S
C736   C765    1.448   .     S
H743   C201    1.084   1_556 S
N748   Zn758   2.013   .     S
N749   Zn759   2.013   .     S
O750   Zn758   1.998   .     S
O751   Zn759   2.001   .     S
O752   Zn758   1.952   .     S
O753   Zn759   1.930   .     S
O754   Zn758   2.001   .     S
O755   Zn759   1.998   .     S
O756   Zn758   1.930   .     S
O757   Zn759   1.952   .     S
C761   N762    1.158   .     T
C763   N764    1.157   .     T
C765   N766    1.158   .     T
C768   C784    1.415   .     S
C768   O809    1.283   .     A
C768   O810    1.284   .     A
C769   C770    1.401   .     A
C769   C240    1.422   1_556 S
C769   C264    1.424   1_556 S
C770   C777    1.413   .     A
C770   C774    1.405   .     A
C771   C775    1.389   .     A
C772   C773    1.389   .     A
C772   C240    1.419   1_556 S
C772   C260    1.397   1_556 S
C773   C774    1.383   .     A
C773   H801    1.084   .     S
C774   H805    1.071   .     S
C775   C792    1.399   .     A
C775   H803    1.078   .     S
C776   C792    1.412   .     A
C776   Br819   1.923   .     S
C776   C791    1.392   .     A
C777   C793    1.403   .     A
C777   C779    1.484   .     S
C778   H806    1.086   .     S
C778   C784    1.394   .     A
C778   C957    1.376   .     S
C779   O811    1.303   .     A
C779   O812    1.293   .     A
C780   C820    1.447   .     S
C780   C781    1.413   .     A
C781   C789    1.427   .     S
C781   C782    1.397   .     A
C782   H796    1.079   .     S
C783   H797    1.084   .     S
C783   C784    1.392   .     A
C783   C959    1.367   .     S
C785   N808    1.362   .     A
C785   H798    1.083   .     S
C785   C845    1.417   .     S
C786   N807    1.374   .     A
C786   C822    1.437   .     S
C787   N807    1.364   .     A
C787   H799    1.082   .     S
C788   N808    1.368   .     A
C788   H800    1.076   .     S
C788   C846    1.415   .     S
C789   O814    1.282   .     A
C789   O813    1.289   .     A
C790   O815    1.297   .     A
C790   C792    1.461   .     S
C790   O816    1.293   .     A
C793   H804    1.083   .     S
C793   C794    1.401   .     A
C794   C264    1.410   1_556 S
C794   Br295   1.921   1_556 S
C795   C824    1.448   .     S
H802   C260    1.084   1_556 S
N807   Zn817   2.013   .     S
N808   Zn818   2.013   .     S
O809   Zn817   1.998   .     S
O810   Zn818   2.001   .     S
O811   Zn817   1.952   .     S
O812   Zn818   1.930   .     S
O813   Zn817   2.001   .     S
O814   Zn818   1.998   .     S
O815   Zn817   1.930   .     S
O816   Zn818   1.952   .     S
C820   N821    1.158   .     T
C822   N823    1.157   .     T
C824   N825    1.158   .     T
C827   C843    1.415   .     S
C827   O868    1.283   .     A
C827   O869    1.284   .     A
C828   C829    1.401   .     A
C828   C299    1.422   1_556 S
C828   C323    1.424   1_556 S
C829   C836    1.413   .     A
C829   C833    1.405   .     A
C830   C834    1.389   .     A
C831   C832    1.389   .     A
C831   C299    1.419   1_556 S
C831   C319    1.397   1_556 S
C832   C833    1.383   .     A
C832   H860    1.084   .     S
C833   H864    1.071   .     S
C834   C851    1.399   .     A
C834   H862    1.078   .     S
C835   C851    1.412   .     A
C835   Br878   1.923   .     S
C835   C850    1.392   .     A
C836   C852    1.403   .     A
C836   C838    1.484   .     S
C837   H865    1.086   .     S
C837   C843    1.394   .     A
C837   C1016   1.376   .     S
C838   O870    1.303   .     A
C838   O871    1.293   .     A
C839   C879    1.447   .     S
C839   C840    1.413   .     A
C840   C848    1.427   .     S
C840   C841    1.397   .     A
C841   H855    1.079   .     S
C842   H856    1.084   .     S
C842   C843    1.392   .     A
C842   C1018   1.367   .     S
C844   N867    1.362   .     A
C844   H857    1.083   .     S
C844   C727    1.417   1_655 S
C845   N866    1.374   .     A
C845   C881    1.437   .     S
C846   N866    1.364   .     A
C846   H858    1.082   .     S
C847   N867    1.368   .     A
C847   H859    1.076   .     S
C847   C728    1.415   1_655 S
C848   O873    1.282   .     A
C848   O872    1.289   .     A
C849   O874    1.297   .     A
C849   C851    1.461   .     S
C849   O875    1.293   .     A
C852   H863    1.083   .     S
C852   C853    1.401   .     A
C853   C323    1.410   1_556 S
C853   Br354   1.921   1_556 S
C854   C883    1.448   .     S
H861   C319    1.084   1_556 S
N866   Zn876   2.013   .     S
N867   Zn877   2.013   .     S
O868   Zn876   1.998   .     S
O869   Zn877   2.001   .     S
O870   Zn876   1.952   .     S
O871   Zn877   1.930   .     S
O872   Zn876   2.001   .     S
O873   Zn877   1.998   .     S
O874   Zn876   1.930   .     S
O875   Zn877   1.952   .     S
C879   N880    1.158   .     T
C881   N882    1.157   .     T
C883   N884    1.158   .     T
C886   C902    1.415   .     S
C886   O927    1.283   .     A
C886   O928    1.284   .     A
C887   C888    1.401   .     A
C887   C358    1.422   1_556 S
C887   C382    1.424   1_556 S
C888   C895    1.413   .     A
C888   C892    1.405   .     A
C889   C893    1.389   .     A
C890   C891    1.389   .     A
C890   C358    1.419   1_556 S
C890   C378    1.397   1_556 S
C891   C892    1.383   .     A
C891   H919    1.084   .     S
C892   H923    1.071   .     S
C893   C910    1.399   .     A
C893   H921    1.078   .     S
C894   C910    1.412   .     A
C894   Br937   1.923   .     S
C894   C909    1.392   .     A
C895   C911    1.403   .     A
C895   C897    1.484   .     S
C896   H924    1.086   .     S
C896   C902    1.394   .     A
C896   C544    1.376   1_565 S
C897   O929    1.303   .     A
C897   O930    1.293   .     A
C898   C938    1.447   .     S
C898   C899    1.413   .     A
C899   C907    1.427   .     S
C899   C900    1.397   .     A
C900   H914    1.079   .     S
C901   H915    1.084   .     S
C901   C902    1.392   .     A
C901   C546    1.367   1_565 S
C903   N926    1.362   .     A
C903   H916    1.083   .     S
C903   C963    1.417   .     S
C904   N925    1.374   .     A
C904   C940    1.437   .     S
C904   C1021   1.417   1_455 S
C905   N925    1.364   .     A
C905   H917    1.082   .     S
C905   C1024   1.415   1_455 S
C906   N926    1.368   .     A
C906   H918    1.076   .     S
C906   C964    1.415   .     S
C907   O932    1.282   .     A
C907   O931    1.289   .     A
C908   O933    1.297   .     A
C908   C910    1.461   .     S
C908   O934    1.293   .     A
C911   H922    1.083   .     S
C911   C912    1.401   .     A
C912   C382    1.410   1_556 S
C912   Br413   1.921   1_556 S
C913   C942    1.448   .     S
H920   C378    1.084   1_556 S
N925   Zn935   2.013   .     S
N926   Zn936   2.013   .     S
O927   Zn935   1.998   .     S
O928   Zn936   2.001   .     S
O929   Zn935   1.952   .     S
O930   Zn936   1.930   .     S
O931   Zn935   2.001   .     S
O932   Zn936   1.998   .     S
O933   Zn935   1.930   .     S
O934   Zn936   1.952   .     S
C938   N939    1.158   .     T
C940   N941    1.157   .     T
C942   N943    1.158   .     T
C945   C961    1.415   .     S
C945   O986    1.283   .     A
C945   O987    1.284   .     A
C946   C947    1.401   .     A
C946   C417    1.422   1_556 S
C946   C441    1.424   1_556 S
C947   C954    1.413   .     A
C947   C951    1.405   .     A
C948   C952    1.389   .     A
C949   C950    1.389   .     A
C949   C417    1.419   1_556 S
C949   C437    1.397   1_556 S
C950   C951    1.383   .     A
C950   H978    1.084   .     S
C951   H982    1.071   .     S
C952   C969    1.399   .     A
C952   H980    1.078   .     S
C953   C969    1.412   .     A
C953   Br996   1.923   .     S
C953   C968    1.392   .     A
C954   C970    1.403   .     A
C954   C956    1.484   .     S
C955   H983    1.086   .     S
C955   C961    1.394   .     A
C955   C603    1.376   1_565 S
C956   O988    1.303   .     A
C956   O989    1.293   .     A
C957   C997    1.447   .     S
C957   C958    1.413   .     A
C958   C966    1.427   .     S
C958   C959    1.397   .     A
C959   H973    1.079   .     S
C960   H974    1.084   .     S
C960   C961    1.392   .     A
C960   C605    1.367   1_565 S
C962   N985    1.362   .     A
C962   H975    1.083   .     S
C962   C1022   1.417   .     S
C963   N984    1.374   .     A
C963   C999    1.437   .     S
C964   N984    1.364   .     A
C964   H976    1.082   .     S
C965   N985    1.368   .     A
C965   H977    1.076   .     S
C965   C1023   1.415   .     S
C966   O991    1.282   .     A
C966   O990    1.289   .     A
C967   O992    1.297   .     A
C967   C969    1.461   .     S
C967   O993    1.293   .     A
C970   H981    1.083   .     S
C970   C971    1.401   .     A
C971   C441    1.410   1_556 S
C971   Br472   1.921   1_556 S
C972   C1001   1.448   .     S
H979   C437    1.084   1_556 S
N984   Zn994   2.013   .     S
N985   Zn995   2.013   .     S
O986   Zn994   1.998   .     S
O987   Zn995   2.001   .     S
O988   Zn994   1.952   .     S
O989   Zn995   1.930   .     S
O990   Zn994   2.001   .     S
O991   Zn995   1.998   .     S
O992   Zn994   1.930   .     S
O993   Zn995   1.952   .     S
C997   N998    1.158   .     T
C999   N1000   1.157   .     T
C1001  N1002   1.158   .     T
C1004  C1020   1.415   .     S
C1004  O1045   1.283   .     A
C1004  O1046   1.284   .     A
C1005  C1006   1.401   .     A
C1005  C476    1.422   1_556 S
C1005  C500    1.424   1_556 S
C1006  C1013   1.413   .     A
C1006  C1010   1.405   .     A
C1007  C1011   1.389   .     A
C1008  C1009   1.389   .     A
C1008  C476    1.419   1_556 S
C1008  C496    1.397   1_556 S
C1009  C1010   1.383   .     A
C1009  H1037   1.084   .     S
C1010  H1041   1.071   .     S
C1011  C1028   1.399   .     A
C1011  H1039   1.078   .     S
C1012  C1028   1.412   .     A
C1012  Br1055  1.923   .     S
C1012  C1027   1.392   .     A
C1013  C1029   1.403   .     A
C1013  C1015   1.484   .     S
C1014  H1042   1.086   .     S
C1014  C1020   1.394   .     A
C1014  C662    1.376   1_565 S
C1015  O1047   1.303   .     A
C1015  O1048   1.293   .     A
C1016  C1056   1.447   .     S
C1016  C1017   1.413   .     A
C1017  C1025   1.427   .     S
C1017  C1018   1.397   .     A
C1018  H1032   1.079   .     S
C1019  H1033   1.084   .     S
C1019  C1020   1.392   .     A
C1019  C664    1.367   1_565 S
C1021  N1044   1.362   .     A
C1021  H1034   1.083   .     S
C1021  C904    1.417   1_655 S
C1022  N1043   1.374   .     A
C1022  C1058   1.437   .     S
C1023  N1043   1.364   .     A
C1023  H1035   1.082   .     S
C1024  N1044   1.368   .     A
C1024  H1036   1.076   .     S
C1024  C905    1.415   1_655 S
C1025  O1050   1.282   .     A
C1025  O1049   1.289   .     A
C1026  O1051   1.297   .     A
C1026  C1028   1.461   .     S
C1026  O1052   1.293   .     A
C1029  H1040   1.083   .     S
C1029  C1030   1.401   .     A
C1030  C500    1.410   1_556 S
C1030  Br531   1.921   1_556 S
C1031  C1060   1.448   .     S
H1038  C496    1.084   1_556 S
N1043  Zn1053  2.013   .     S
N1044  Zn1054  2.013   .     S
O1045  Zn1053  1.998   .     S
O1046  Zn1054  2.001   .     S
O1047  Zn1053  1.952   .     S
O1048  Zn1054  1.930   .     S
O1049  Zn1053  2.001   .     S
O1050  Zn1054  1.998   .     S
O1051  Zn1053  1.930   .     S
O1052  Zn1054  1.952   .     S
C1056  N1057   1.158   .     T
C1058  N1059   1.157   .     T
C1060  N1061   1.158   .     T
