data_str_m2_o1_o17_pcu_sym.176
_audit_creation_date              2020-01-03
_audit_creation_method            'Materials Studio'
_symmetry_space_group_name_H-M    'P1'
_symmetry_Int_Tables_number       1
_symmetry_cell_setting            triclinic
loop_
_symmetry_equiv_pos_as_xyz
  x,y,z
_cell_length_a                    32.8772
_cell_length_b                    28.7653
_cell_length_c                    30.0823
_cell_angle_alpha                 89.7566
_cell_angle_beta                  90.6538
_cell_angle_gamma                 89.1053
loop_
_atom_site_label
_atom_site_type_symbol
_atom_site_fract_x
_atom_site_fract_y
_atom_site_fract_z
_atom_site_U_iso_or_equiv
_atom_site_adp_type
_atom_site_occupancy
C1     C     0.08747   0.16704   0.25182   0.00000  Uiso   1.00
C2     C     0.24586   0.16629   0.24818   0.00000  Uiso   1.00
C3     C     0.09567   0.19191   0.02467   0.00000  Uiso   1.00
C4     C     0.23766   0.14142   0.47533   0.00000  Uiso   1.00
C5     C     0.02184   0.12548   0.26015   0.00000  Uiso   1.00
C6     C     0.31149   0.20785   0.23985   0.00000  Uiso   1.00
C7     C     0.31326   0.12398   0.25306   0.00000  Uiso   1.00
C8     C     0.02008   0.20935   0.24694   0.00000  Uiso   1.00
C9     C     0.29067   0.16573   0.24611   0.00000  Uiso   1.00
C10    C     0.04266   0.16760   0.25389   0.00000  Uiso   1.00
C11    C     0.14273   0.02536   0.22059   0.00000  Uiso   1.00
C12    C     0.19060   0.30797   0.27941   0.00000  Uiso   1.00
C13    C     0.19020   0.02420   0.27979   0.00000  Uiso   1.00
C14    C     0.14314   0.30913   0.22021   0.00000  Uiso   1.00
C15    C     0.16758   0.16668   0.16459   0.00000  Uiso   1.00
C16    C     0.16575   0.16666   0.33541   0.00000  Uiso   1.00
C17    C     0.20092   0.15847   0.40641   0.00000  Uiso   1.00
C18    C     0.13241   0.17486   0.09359   0.00000  Uiso   1.00
C19    C     0.16469   0.16691   0.38364   0.00000  Uiso   1.00
C20    C     0.16864   0.16643   0.11636   0.00000  Uiso   1.00
C21    C     0.12834   0.17534   0.40640   0.00000  Uiso   1.00
C22    C     0.20499   0.15800   0.09360   0.00000  Uiso   1.00
C23    C     0.12943   0.17969   0.45341   0.00000  Uiso   1.00
C24    C     0.20391   0.15365   0.04659   0.00000  Uiso   1.00
C25    C     0.16613   0.16717   0.47655   0.00000  Uiso   1.00
C26    C     0.16720   0.16617   0.02345   0.00000  Uiso   1.00
C27    C     0.20193   0.15605   0.45271   0.00000  Uiso   1.00
C28    C     0.13141   0.17728   0.04729   0.00000  Uiso   1.00
C29    C     0.09552   0.19580   0.47820   0.00000  Uiso   1.00
C30    C     0.23781   0.13754   0.02180   0.00000  Uiso   1.00
Cu31   Cu    0.16667   0.21355   0.25000   0.00000  Uiso   1.00
Cu32   Cu    0.16667   0.11978   0.25000   0.00000  Uiso   1.00
H33    H     0.22789   0.15229   0.38699   0.00000  Uiso   1.00
H34    H     0.10545   0.18105   0.11300   0.00000  Uiso   1.00
N35    N     0.16667   0.28402   0.25000   0.00000  Uiso   1.00
N36    N     0.16667   0.04931   0.25000   0.00000  Uiso   1.00
O37    O     0.10655   0.20625   0.24999   0.00000  Uiso   1.00
O38    O     0.22679   0.12709   0.25000   0.00000  Uiso   1.00
O39    O     0.22679   0.20625   0.25000   0.00000  Uiso   1.00
O40    O     0.10655   0.12709   0.24999   0.00000  Uiso   1.00
O41    O     0.16666   0.20627   0.18513   0.00000  Uiso   1.00
O42    O     0.16668   0.12707   0.31487   0.00000  Uiso   1.00
O43    O     0.16668   0.20627   0.31487   0.00000  Uiso   1.00
O44    O     0.16666   0.12707   0.18513   0.00000  Uiso   1.00
I45    I     0.07293   0.16896   0.36868   0.00000  Uiso   1.00
I46    I     0.26040   0.16438   0.13132   0.00000  Uiso   1.00
C47    C     0.06273   0.22284   0.45792   0.00000  Uiso   1.00
N48    N     0.03646   0.24490   0.44229   0.00000  Uiso   1.00
C49    C     0.27060   0.11050   0.04208   0.00000  Uiso   1.00
N50    N     0.29688   0.08843   0.05771   0.00000  Uiso   1.00
I51    I     0.04104   0.21059   0.05993   0.00000  Uiso   1.00
I52    I     0.29229   0.12275   0.44007   0.00000  Uiso   1.00
C53    C     0.04238   0.08418   0.27800   0.00000  Uiso   1.00
N54    N     0.05874   0.05159   0.29269   0.00000  Uiso   1.00
C55    C     0.29095   0.24915   0.22200   0.00000  Uiso   1.00
N56    N     0.27460   0.28175   0.20731   0.00000  Uiso   1.00
C57    C     0.29515   0.07856   0.24890   0.00000  Uiso   1.00
N58    N     0.28144   0.04202   0.24498   0.00000  Uiso   1.00
C59    C     0.03819   0.25477   0.25110   0.00000  Uiso   1.00
N60    N     0.05189   0.29131   0.25502   0.00000  Uiso   1.00
C61    C     0.11603   0.05050   0.19016   0.00000  Uiso   1.00
N62    N     0.09443   0.07023   0.16569   0.00000  Uiso   1.00
C63    C     0.21730   0.28284   0.30984   0.00000  Uiso   1.00
N64    N     0.23891   0.26310   0.33431   0.00000  Uiso   1.00
C65    C     0.21485   0.04803   0.31227   0.00000  Uiso   1.00
N66    N     0.23485   0.06655   0.33847   0.00000  Uiso   1.00
C67    C     0.11848   0.28531   0.18773   0.00000  Uiso   1.00
N68    N     0.09848   0.26678   0.16153   0.00000  Uiso   1.00
C69    C     0.42080   0.16704   0.25182   0.00000  Uiso   1.00
C70    C     0.57920   0.16629   0.24818   0.00000  Uiso   1.00
C71    C     0.42900   0.19191   0.02467   0.00000  Uiso   1.00
C72    C     0.57100   0.14142   0.47533   0.00000  Uiso   1.00
C73    C     0.35517   0.12548   0.26015   0.00000  Uiso   1.00
C74    C     0.64483   0.20785   0.23985   0.00000  Uiso   1.00
C75    C     0.64659   0.12398   0.25306   0.00000  Uiso   1.00
C76    C     0.35341   0.20935   0.24694   0.00000  Uiso   1.00
C77    C     0.62401   0.16573   0.24611   0.00000  Uiso   1.00
C78    C     0.37599   0.16760   0.25389   0.00000  Uiso   1.00
C79    C     0.47607   0.02536   0.22059   0.00000  Uiso   1.00
C80    C     0.52393   0.30797   0.27941   0.00000  Uiso   1.00
C81    C     0.52353   0.02420   0.27979   0.00000  Uiso   1.00
C82    C     0.47647   0.30913   0.22021   0.00000  Uiso   1.00
C83    C     0.50092   0.16668   0.16459   0.00000  Uiso   1.00
C84    C     0.49908   0.16666   0.33541   0.00000  Uiso   1.00
C85    C     0.53425   0.15847   0.40641   0.00000  Uiso   1.00
C86    C     0.46575   0.17486   0.09359   0.00000  Uiso   1.00
C87    C     0.49803   0.16691   0.38364   0.00000  Uiso   1.00
C88    C     0.50197   0.16643   0.11636   0.00000  Uiso   1.00
C89    C     0.46168   0.17534   0.40640   0.00000  Uiso   1.00
C90    C     0.53832   0.15800   0.09360   0.00000  Uiso   1.00
C91    C     0.46276   0.17969   0.45341   0.00000  Uiso   1.00
C92    C     0.53724   0.15365   0.04659   0.00000  Uiso   1.00
C93    C     0.49946   0.16717   0.47655   0.00000  Uiso   1.00
C94    C     0.50054   0.16617   0.02345   0.00000  Uiso   1.00
C95    C     0.53526   0.15605   0.45271   0.00000  Uiso   1.00
C96    C     0.46474   0.17728   0.04729   0.00000  Uiso   1.00
C97    C     0.42885   0.19580   0.47820   0.00000  Uiso   1.00
C98    C     0.57115   0.13754   0.02180   0.00000  Uiso   1.00
Cu99   Cu    0.50000   0.21355   0.25000   0.00000  Uiso   1.00
Cu100  Cu    0.50000   0.11978   0.25000   0.00000  Uiso   1.00
H101   H     0.56122   0.15229   0.38699   0.00000  Uiso   1.00
H102   H     0.43878   0.18105   0.11300   0.00000  Uiso   1.00
N103   N     0.50000   0.28402   0.25000   0.00000  Uiso   1.00
N104   N     0.50000   0.04931   0.25000   0.00000  Uiso   1.00
O105   O     0.43988   0.20625   0.24999   0.00000  Uiso   1.00
O106   O     0.56012   0.12709   0.25000   0.00000  Uiso   1.00
O107   O     0.56012   0.20625   0.25000   0.00000  Uiso   1.00
O108   O     0.43988   0.12709   0.24999   0.00000  Uiso   1.00
O109   O     0.49999   0.20627   0.18513   0.00000  Uiso   1.00
O110   O     0.50001   0.12707   0.31487   0.00000  Uiso   1.00
O111   O     0.50001   0.20627   0.31487   0.00000  Uiso   1.00
O112   O     0.49999   0.12707   0.18513   0.00000  Uiso   1.00
I113   I     0.40627   0.16896   0.36868   0.00000  Uiso   1.00
I114   I     0.59374   0.16438   0.13132   0.00000  Uiso   1.00
C115   C     0.39607   0.22284   0.45792   0.00000  Uiso   1.00
N116   N     0.36979   0.24490   0.44229   0.00000  Uiso   1.00
C117   C     0.60393   0.11050   0.04208   0.00000  Uiso   1.00
N118   N     0.63021   0.08843   0.05771   0.00000  Uiso   1.00
I119   I     0.37438   0.21059   0.05993   0.00000  Uiso   1.00
I120   I     0.62562   0.12275   0.44007   0.00000  Uiso   1.00
C121   C     0.37571   0.08418   0.27800   0.00000  Uiso   1.00
N122   N     0.39207   0.05159   0.29269   0.00000  Uiso   1.00
C123   C     0.62429   0.24915   0.22200   0.00000  Uiso   1.00
N124   N     0.60793   0.28175   0.20731   0.00000  Uiso   1.00
C125   C     0.62848   0.07856   0.24890   0.00000  Uiso   1.00
N126   N     0.61477   0.04202   0.24498   0.00000  Uiso   1.00
C127   C     0.37152   0.25477   0.25110   0.00000  Uiso   1.00
N128   N     0.38523   0.29131   0.25502   0.00000  Uiso   1.00
C129   C     0.44936   0.05050   0.19016   0.00000  Uiso   1.00
N130   N     0.42776   0.07023   0.16569   0.00000  Uiso   1.00
C131   C     0.55064   0.28284   0.30984   0.00000  Uiso   1.00
N132   N     0.57224   0.26310   0.33431   0.00000  Uiso   1.00
C133   C     0.54819   0.04803   0.31227   0.00000  Uiso   1.00
N134   N     0.56819   0.06655   0.33847   0.00000  Uiso   1.00
C135   C     0.45182   0.28531   0.18773   0.00000  Uiso   1.00
N136   N     0.43181   0.26678   0.16153   0.00000  Uiso   1.00
C137   C     0.75414   0.16704   0.25182   0.00000  Uiso   1.00
C138   C     0.91253   0.16629   0.24818   0.00000  Uiso   1.00
C139   C     0.76234   0.19191   0.02467   0.00000  Uiso   1.00
C140   C     0.90433   0.14142   0.47533   0.00000  Uiso   1.00
C141   C     0.68851   0.12548   0.26015   0.00000  Uiso   1.00
C142   C     0.97816   0.20785   0.23985   0.00000  Uiso   1.00
C143   C     0.97992   0.12398   0.25306   0.00000  Uiso   1.00
C144   C     0.68674   0.20935   0.24694   0.00000  Uiso   1.00
C145   C     0.95734   0.16573   0.24611   0.00000  Uiso   1.00
C146   C     0.70933   0.16760   0.25389   0.00000  Uiso   1.00
C147   C     0.80940   0.02536   0.22059   0.00000  Uiso   1.00
C148   C     0.85727   0.30797   0.27941   0.00000  Uiso   1.00
C149   C     0.85686   0.02420   0.27979   0.00000  Uiso   1.00
C150   C     0.80980   0.30913   0.22021   0.00000  Uiso   1.00
C151   C     0.83425   0.16668   0.16459   0.00000  Uiso   1.00
C152   C     0.83242   0.16666   0.33541   0.00000  Uiso   1.00
C153   C     0.86759   0.15847   0.40641   0.00000  Uiso   1.00
C154   C     0.79908   0.17486   0.09359   0.00000  Uiso   1.00
C155   C     0.83136   0.16691   0.38364   0.00000  Uiso   1.00
C156   C     0.83531   0.16643   0.11636   0.00000  Uiso   1.00
C157   C     0.79501   0.17534   0.40640   0.00000  Uiso   1.00
C158   C     0.87166   0.15800   0.09360   0.00000  Uiso   1.00
C159   C     0.79609   0.17969   0.45341   0.00000  Uiso   1.00
C160   C     0.87057   0.15365   0.04659   0.00000  Uiso   1.00
C161   C     0.83280   0.16717   0.47655   0.00000  Uiso   1.00
C162   C     0.83387   0.16617   0.02345   0.00000  Uiso   1.00
C163   C     0.86859   0.15605   0.45271   0.00000  Uiso   1.00
C164   C     0.79807   0.17728   0.04729   0.00000  Uiso   1.00
C165   C     0.76219   0.19580   0.47820   0.00000  Uiso   1.00
C166   C     0.90448   0.13754   0.02180   0.00000  Uiso   1.00
Cu167  Cu    0.83333   0.21355   0.25000   0.00000  Uiso   1.00
Cu168  Cu    0.83333   0.11978   0.25000   0.00000  Uiso   1.00
H169   H     0.89456   0.15229   0.38699   0.00000  Uiso   1.00
H170   H     0.77211   0.18105   0.11300   0.00000  Uiso   1.00
N171   N     0.83333   0.28402   0.25000   0.00000  Uiso   1.00
N172   N     0.83333   0.04931   0.25000   0.00000  Uiso   1.00
O173   O     0.77321   0.20625   0.24999   0.00000  Uiso   1.00
O174   O     0.89345   0.12709   0.25000   0.00000  Uiso   1.00
O175   O     0.89345   0.20625   0.25000   0.00000  Uiso   1.00
O176   O     0.77321   0.12709   0.24999   0.00000  Uiso   1.00
O177   O     0.83332   0.20627   0.18513   0.00000  Uiso   1.00
O178   O     0.83334   0.12707   0.31487   0.00000  Uiso   1.00
O179   O     0.83334   0.20627   0.31487   0.00000  Uiso   1.00
O180   O     0.83332   0.12707   0.18513   0.00000  Uiso   1.00
I181   I     0.73960   0.16896   0.36868   0.00000  Uiso   1.00
I182   I     0.92707   0.16438   0.13132   0.00000  Uiso   1.00
C183   C     0.72940   0.22284   0.45792   0.00000  Uiso   1.00
N184   N     0.70312   0.24490   0.44229   0.00000  Uiso   1.00
C185   C     0.93727   0.11050   0.04208   0.00000  Uiso   1.00
N186   N     0.96354   0.08843   0.05771   0.00000  Uiso   1.00
I187   I     0.70771   0.21059   0.05993   0.00000  Uiso   1.00
I188   I     0.95896   0.12275   0.44007   0.00000  Uiso   1.00
C189   C     0.70905   0.08418   0.27800   0.00000  Uiso   1.00
N190   N     0.72540   0.05159   0.29269   0.00000  Uiso   1.00
C191   C     0.95762   0.24915   0.22200   0.00000  Uiso   1.00
N192   N     0.94126   0.28175   0.20731   0.00000  Uiso   1.00
C193   C     0.96181   0.07856   0.24890   0.00000  Uiso   1.00
N194   N     0.94811   0.04202   0.24498   0.00000  Uiso   1.00
C195   C     0.70486   0.25477   0.25110   0.00000  Uiso   1.00
N196   N     0.71856   0.29131   0.25502   0.00000  Uiso   1.00
C197   C     0.78270   0.05050   0.19016   0.00000  Uiso   1.00
N198   N     0.76109   0.07023   0.16569   0.00000  Uiso   1.00
C199   C     0.88397   0.28284   0.30984   0.00000  Uiso   1.00
N200   N     0.90557   0.26310   0.33431   0.00000  Uiso   1.00
C201   C     0.88152   0.04803   0.31227   0.00000  Uiso   1.00
N202   N     0.90152   0.06655   0.33847   0.00000  Uiso   1.00
C203   C     0.78515   0.28531   0.18773   0.00000  Uiso   1.00
N204   N     0.76515   0.26678   0.16153   0.00000  Uiso   1.00
C205   C     0.08747   0.50037   0.25182   0.00000  Uiso   1.00
C206   C     0.24586   0.49963   0.24818   0.00000  Uiso   1.00
C207   C     0.09567   0.52525   0.02467   0.00000  Uiso   1.00
C208   C     0.23766   0.47475   0.47533   0.00000  Uiso   1.00
C209   C     0.02184   0.45881   0.26015   0.00000  Uiso   1.00
C210   C     0.31149   0.54119   0.23985   0.00000  Uiso   1.00
C211   C     0.31326   0.45732   0.25306   0.00000  Uiso   1.00
C212   C     0.02008   0.54268   0.24694   0.00000  Uiso   1.00
C213   C     0.29067   0.49906   0.24611   0.00000  Uiso   1.00
C214   C     0.04266   0.50094   0.25389   0.00000  Uiso   1.00
C215   C     0.14273   0.35869   0.22059   0.00000  Uiso   1.00
C216   C     0.19060   0.64131   0.27941   0.00000  Uiso   1.00
C217   C     0.19020   0.35754   0.27979   0.00000  Uiso   1.00
C218   C     0.14314   0.64246   0.22021   0.00000  Uiso   1.00
C219   C     0.16758   0.50001   0.16459   0.00000  Uiso   1.00
C220   C     0.16575   0.49999   0.33541   0.00000  Uiso   1.00
C221   C     0.20092   0.49181   0.40641   0.00000  Uiso   1.00
C222   C     0.13241   0.50819   0.09359   0.00000  Uiso   1.00
C223   C     0.16469   0.50024   0.38364   0.00000  Uiso   1.00
C224   C     0.16864   0.49976   0.11636   0.00000  Uiso   1.00
C225   C     0.12834   0.50867   0.40640   0.00000  Uiso   1.00
C226   C     0.20499   0.49133   0.09360   0.00000  Uiso   1.00
C227   C     0.12943   0.51302   0.45341   0.00000  Uiso   1.00
C228   C     0.20391   0.48698   0.04659   0.00000  Uiso   1.00
C229   C     0.16613   0.50050   0.47655   0.00000  Uiso   1.00
C230   C     0.16720   0.49950   0.02345   0.00000  Uiso   1.00
C231   C     0.20193   0.48939   0.45271   0.00000  Uiso   1.00
C232   C     0.13141   0.51061   0.04729   0.00000  Uiso   1.00
C233   C     0.09552   0.52913   0.47820   0.00000  Uiso   1.00
C234   C     0.23781   0.47087   0.02180   0.00000  Uiso   1.00
Cu235  Cu    0.16667   0.54689   0.25000   0.00000  Uiso   1.00
Cu236  Cu    0.16667   0.45311   0.25000   0.00000  Uiso   1.00
H237   H     0.22789   0.48562   0.38699   0.00000  Uiso   1.00
H238   H     0.10545   0.51438   0.11300   0.00000  Uiso   1.00
N239   N     0.16667   0.61736   0.25000   0.00000  Uiso   1.00
N240   N     0.16667   0.38264   0.25000   0.00000  Uiso   1.00
O241   O     0.10655   0.53958   0.24999   0.00000  Uiso   1.00
O242   O     0.22679   0.46042   0.25000   0.00000  Uiso   1.00
O243   O     0.22679   0.53958   0.25000   0.00000  Uiso   1.00
O244   O     0.10655   0.46042   0.24999   0.00000  Uiso   1.00
O245   O     0.16666   0.53960   0.18513   0.00000  Uiso   1.00
O246   O     0.16668   0.46040   0.31487   0.00000  Uiso   1.00
O247   O     0.16668   0.53960   0.31487   0.00000  Uiso   1.00
O248   O     0.16666   0.46040   0.18513   0.00000  Uiso   1.00
I249   I     0.07293   0.50229   0.36868   0.00000  Uiso   1.00
I250   I     0.26040   0.49771   0.13132   0.00000  Uiso   1.00
C251   C     0.06273   0.55617   0.45792   0.00000  Uiso   1.00
N252   N     0.03646   0.57824   0.44229   0.00000  Uiso   1.00
C253   C     0.27060   0.44383   0.04208   0.00000  Uiso   1.00
N254   N     0.29688   0.42176   0.05771   0.00000  Uiso   1.00
I255   I     0.04104   0.54392   0.05993   0.00000  Uiso   1.00
I256   I     0.29229   0.45608   0.44007   0.00000  Uiso   1.00
C257   C     0.04238   0.41751   0.27800   0.00000  Uiso   1.00
N258   N     0.05874   0.38492   0.29269   0.00000  Uiso   1.00
C259   C     0.29095   0.58249   0.22200   0.00000  Uiso   1.00
N260   N     0.27460   0.61508   0.20731   0.00000  Uiso   1.00
C261   C     0.29515   0.41189   0.24890   0.00000  Uiso   1.00
N262   N     0.28144   0.37536   0.24498   0.00000  Uiso   1.00
C263   C     0.03819   0.58811   0.25110   0.00000  Uiso   1.00
N264   N     0.05189   0.62464   0.25502   0.00000  Uiso   1.00
C265   C     0.11603   0.38383   0.19016   0.00000  Uiso   1.00
N266   N     0.09443   0.40357   0.16569   0.00000  Uiso   1.00
C267   C     0.21730   0.61617   0.30984   0.00000  Uiso   1.00
N268   N     0.23891   0.59643   0.33431   0.00000  Uiso   1.00
C269   C     0.21485   0.38136   0.31227   0.00000  Uiso   1.00
N270   N     0.23485   0.39989   0.33847   0.00000  Uiso   1.00
C271   C     0.11848   0.61864   0.18773   0.00000  Uiso   1.00
N272   N     0.09848   0.60011   0.16153   0.00000  Uiso   1.00
C273   C     0.42080   0.50037   0.25182   0.00000  Uiso   1.00
C274   C     0.57920   0.49963   0.24818   0.00000  Uiso   1.00
C275   C     0.42900   0.52525   0.02467   0.00000  Uiso   1.00
C276   C     0.57100   0.47475   0.47533   0.00000  Uiso   1.00
C277   C     0.35517   0.45881   0.26015   0.00000  Uiso   1.00
C278   C     0.64483   0.54119   0.23985   0.00000  Uiso   1.00
C279   C     0.64659   0.45732   0.25306   0.00000  Uiso   1.00
C280   C     0.35341   0.54268   0.24694   0.00000  Uiso   1.00
C281   C     0.62401   0.49906   0.24611   0.00000  Uiso   1.00
C282   C     0.37599   0.50094   0.25389   0.00000  Uiso   1.00
C283   C     0.47607   0.35869   0.22059   0.00000  Uiso   1.00
C284   C     0.52393   0.64131   0.27941   0.00000  Uiso   1.00
C285   C     0.52353   0.35754   0.27979   0.00000  Uiso   1.00
C286   C     0.47647   0.64246   0.22021   0.00000  Uiso   1.00
C287   C     0.50092   0.50001   0.16459   0.00000  Uiso   1.00
C288   C     0.49908   0.49999   0.33541   0.00000  Uiso   1.00
C289   C     0.53425   0.49181   0.40641   0.00000  Uiso   1.00
C290   C     0.46575   0.50819   0.09359   0.00000  Uiso   1.00
C291   C     0.49803   0.50024   0.38364   0.00000  Uiso   1.00
C292   C     0.50197   0.49976   0.11636   0.00000  Uiso   1.00
C293   C     0.46168   0.50867   0.40640   0.00000  Uiso   1.00
C294   C     0.53832   0.49133   0.09360   0.00000  Uiso   1.00
C295   C     0.46276   0.51302   0.45341   0.00000  Uiso   1.00
C296   C     0.53724   0.48698   0.04659   0.00000  Uiso   1.00
C297   C     0.49946   0.50050   0.47655   0.00000  Uiso   1.00
C298   C     0.50054   0.49950   0.02345   0.00000  Uiso   1.00
C299   C     0.53526   0.48939   0.45271   0.00000  Uiso   1.00
C300   C     0.46474   0.51061   0.04729   0.00000  Uiso   1.00
C301   C     0.42885   0.52913   0.47820   0.00000  Uiso   1.00
C302   C     0.57115   0.47087   0.02180   0.00000  Uiso   1.00
Cu303  Cu    0.50000   0.54689   0.25000   0.00000  Uiso   1.00
Cu304  Cu    0.50000   0.45311   0.25000   0.00000  Uiso   1.00
H305   H     0.56122   0.48562   0.38699   0.00000  Uiso   1.00
H306   H     0.43878   0.51438   0.11300   0.00000  Uiso   1.00
N307   N     0.50000   0.61736   0.25000   0.00000  Uiso   1.00
N308   N     0.50000   0.38264   0.25000   0.00000  Uiso   1.00
O309   O     0.43988   0.53958   0.24999   0.00000  Uiso   1.00
O310   O     0.56012   0.46042   0.25000   0.00000  Uiso   1.00
O311   O     0.56012   0.53958   0.25000   0.00000  Uiso   1.00
O312   O     0.43988   0.46042   0.24999   0.00000  Uiso   1.00
O313   O     0.49999   0.53960   0.18513   0.00000  Uiso   1.00
O314   O     0.50001   0.46040   0.31487   0.00000  Uiso   1.00
O315   O     0.50001   0.53960   0.31487   0.00000  Uiso   1.00
O316   O     0.49999   0.46040   0.18513   0.00000  Uiso   1.00
I317   I     0.40627   0.50229   0.36868   0.00000  Uiso   1.00
I318   I     0.59374   0.49771   0.13132   0.00000  Uiso   1.00
C319   C     0.39607   0.55617   0.45792   0.00000  Uiso   1.00
N320   N     0.36979   0.57824   0.44229   0.00000  Uiso   1.00
C321   C     0.60393   0.44383   0.04208   0.00000  Uiso   1.00
N322   N     0.63021   0.42176   0.05771   0.00000  Uiso   1.00
I323   I     0.37438   0.54392   0.05993   0.00000  Uiso   1.00
I324   I     0.62562   0.45608   0.44007   0.00000  Uiso   1.00
C325   C     0.37571   0.41751   0.27800   0.00000  Uiso   1.00
N326   N     0.39207   0.38492   0.29269   0.00000  Uiso   1.00
C327   C     0.62429   0.58249   0.22200   0.00000  Uiso   1.00
N328   N     0.60793   0.61508   0.20731   0.00000  Uiso   1.00
C329   C     0.62848   0.41189   0.24890   0.00000  Uiso   1.00
N330   N     0.61477   0.37536   0.24498   0.00000  Uiso   1.00
C331   C     0.37152   0.58811   0.25110   0.00000  Uiso   1.00
N332   N     0.38523   0.62464   0.25502   0.00000  Uiso   1.00
C333   C     0.44936   0.38383   0.19016   0.00000  Uiso   1.00
N334   N     0.42776   0.40357   0.16569   0.00000  Uiso   1.00
C335   C     0.55064   0.61617   0.30984   0.00000  Uiso   1.00
N336   N     0.57224   0.59643   0.33431   0.00000  Uiso   1.00
C337   C     0.54819   0.38136   0.31227   0.00000  Uiso   1.00
N338   N     0.56819   0.39989   0.33847   0.00000  Uiso   1.00
C339   C     0.45182   0.61864   0.18773   0.00000  Uiso   1.00
N340   N     0.43181   0.60011   0.16153   0.00000  Uiso   1.00
C341   C     0.75414   0.50037   0.25182   0.00000  Uiso   1.00
C342   C     0.91253   0.49963   0.24818   0.00000  Uiso   1.00
C343   C     0.76234   0.52525   0.02467   0.00000  Uiso   1.00
C344   C     0.90433   0.47475   0.47533   0.00000  Uiso   1.00
C345   C     0.68851   0.45881   0.26015   0.00000  Uiso   1.00
C346   C     0.97816   0.54119   0.23985   0.00000  Uiso   1.00
C347   C     0.97992   0.45732   0.25306   0.00000  Uiso   1.00
C348   C     0.68674   0.54268   0.24694   0.00000  Uiso   1.00
C349   C     0.95734   0.49906   0.24611   0.00000  Uiso   1.00
C350   C     0.70933   0.50094   0.25389   0.00000  Uiso   1.00
C351   C     0.80940   0.35869   0.22059   0.00000  Uiso   1.00
C352   C     0.85727   0.64131   0.27941   0.00000  Uiso   1.00
C353   C     0.85686   0.35754   0.27979   0.00000  Uiso   1.00
C354   C     0.80980   0.64246   0.22021   0.00000  Uiso   1.00
C355   C     0.83425   0.50001   0.16459   0.00000  Uiso   1.00
C356   C     0.83242   0.49999   0.33541   0.00000  Uiso   1.00
C357   C     0.86759   0.49181   0.40641   0.00000  Uiso   1.00
C358   C     0.79908   0.50819   0.09359   0.00000  Uiso   1.00
C359   C     0.83136   0.50024   0.38364   0.00000  Uiso   1.00
C360   C     0.83531   0.49976   0.11636   0.00000  Uiso   1.00
C361   C     0.79501   0.50867   0.40640   0.00000  Uiso   1.00
C362   C     0.87166   0.49133   0.09360   0.00000  Uiso   1.00
C363   C     0.79609   0.51302   0.45341   0.00000  Uiso   1.00
C364   C     0.87057   0.48698   0.04659   0.00000  Uiso   1.00
C365   C     0.83280   0.50050   0.47655   0.00000  Uiso   1.00
C366   C     0.83387   0.49950   0.02345   0.00000  Uiso   1.00
C367   C     0.86859   0.48939   0.45271   0.00000  Uiso   1.00
C368   C     0.79807   0.51061   0.04729   0.00000  Uiso   1.00
C369   C     0.76219   0.52913   0.47820   0.00000  Uiso   1.00
C370   C     0.90448   0.47087   0.02180   0.00000  Uiso   1.00
Cu371  Cu    0.83333   0.54689   0.25000   0.00000  Uiso   1.00
Cu372  Cu    0.83333   0.45311   0.25000   0.00000  Uiso   1.00
H373   H     0.89456   0.48562   0.38699   0.00000  Uiso   1.00
H374   H     0.77211   0.51438   0.11300   0.00000  Uiso   1.00
N375   N     0.83333   0.61736   0.25000   0.00000  Uiso   1.00
N376   N     0.83333   0.38264   0.25000   0.00000  Uiso   1.00
O377   O     0.77321   0.53958   0.24999   0.00000  Uiso   1.00
O378   O     0.89345   0.46042   0.25000   0.00000  Uiso   1.00
O379   O     0.89345   0.53958   0.25000   0.00000  Uiso   1.00
O380   O     0.77321   0.46042   0.24999   0.00000  Uiso   1.00
O381   O     0.83332   0.53960   0.18513   0.00000  Uiso   1.00
O382   O     0.83334   0.46040   0.31487   0.00000  Uiso   1.00
O383   O     0.83334   0.53960   0.31487   0.00000  Uiso   1.00
O384   O     0.83332   0.46040   0.18513   0.00000  Uiso   1.00
I385   I     0.73960   0.50229   0.36868   0.00000  Uiso   1.00
I386   I     0.92707   0.49771   0.13132   0.00000  Uiso   1.00
C387   C     0.72940   0.55617   0.45792   0.00000  Uiso   1.00
N388   N     0.70312   0.57824   0.44229   0.00000  Uiso   1.00
C389   C     0.93727   0.44383   0.04208   0.00000  Uiso   1.00
N390   N     0.96354   0.42176   0.05771   0.00000  Uiso   1.00
I391   I     0.70771   0.54392   0.05993   0.00000  Uiso   1.00
I392   I     0.95896   0.45608   0.44007   0.00000  Uiso   1.00
C393   C     0.70905   0.41751   0.27800   0.00000  Uiso   1.00
N394   N     0.72540   0.38492   0.29269   0.00000  Uiso   1.00
C395   C     0.95762   0.58249   0.22200   0.00000  Uiso   1.00
N396   N     0.94126   0.61508   0.20731   0.00000  Uiso   1.00
C397   C     0.96181   0.41189   0.24890   0.00000  Uiso   1.00
N398   N     0.94811   0.37536   0.24498   0.00000  Uiso   1.00
C399   C     0.70486   0.58811   0.25110   0.00000  Uiso   1.00
N400   N     0.71856   0.62464   0.25502   0.00000  Uiso   1.00
C401   C     0.78270   0.38383   0.19016   0.00000  Uiso   1.00
N402   N     0.76109   0.40357   0.16569   0.00000  Uiso   1.00
C403   C     0.88397   0.61617   0.30984   0.00000  Uiso   1.00
N404   N     0.90557   0.59643   0.33431   0.00000  Uiso   1.00
C405   C     0.88152   0.38136   0.31227   0.00000  Uiso   1.00
N406   N     0.90152   0.39989   0.33847   0.00000  Uiso   1.00
C407   C     0.78515   0.61864   0.18773   0.00000  Uiso   1.00
N408   N     0.76515   0.60011   0.16153   0.00000  Uiso   1.00
C409   C     0.08747   0.83371   0.25182   0.00000  Uiso   1.00
C410   C     0.24586   0.83296   0.24818   0.00000  Uiso   1.00
C411   C     0.09567   0.85858   0.02467   0.00000  Uiso   1.00
C412   C     0.23766   0.80809   0.47533   0.00000  Uiso   1.00
C413   C     0.02184   0.79215   0.26015   0.00000  Uiso   1.00
C414   C     0.31149   0.87452   0.23985   0.00000  Uiso   1.00
C415   C     0.31326   0.79065   0.25306   0.00000  Uiso   1.00
C416   C     0.02008   0.87602   0.24694   0.00000  Uiso   1.00
C417   C     0.29067   0.83240   0.24611   0.00000  Uiso   1.00
C418   C     0.04266   0.83427   0.25389   0.00000  Uiso   1.00
C419   C     0.14273   0.69203   0.22059   0.00000  Uiso   1.00
C420   C     0.19060   0.97464   0.27941   0.00000  Uiso   1.00
C421   C     0.19020   0.69087   0.27979   0.00000  Uiso   1.00
C422   C     0.14314   0.97580   0.22021   0.00000  Uiso   1.00
C423   C     0.16758   0.83334   0.16459   0.00000  Uiso   1.00
C424   C     0.16575   0.83332   0.33541   0.00000  Uiso   1.00
C425   C     0.20092   0.82514   0.40641   0.00000  Uiso   1.00
C426   C     0.13241   0.84153   0.09359   0.00000  Uiso   1.00
C427   C     0.16469   0.83357   0.38364   0.00000  Uiso   1.00
C428   C     0.16864   0.83309   0.11636   0.00000  Uiso   1.00
C429   C     0.12834   0.84200   0.40640   0.00000  Uiso   1.00
C430   C     0.20499   0.82467   0.09360   0.00000  Uiso   1.00
C431   C     0.12943   0.84635   0.45341   0.00000  Uiso   1.00
C432   C     0.20391   0.82031   0.04659   0.00000  Uiso   1.00
C433   C     0.16613   0.83383   0.47655   0.00000  Uiso   1.00
C434   C     0.16720   0.83283   0.02345   0.00000  Uiso   1.00
C435   C     0.20193   0.82272   0.45271   0.00000  Uiso   1.00
C436   C     0.13141   0.84395   0.04729   0.00000  Uiso   1.00
C437   C     0.09552   0.86246   0.47820   0.00000  Uiso   1.00
C438   C     0.23781   0.80420   0.02180   0.00000  Uiso   1.00
Cu439  Cu    0.16667   0.88022   0.25000   0.00000  Uiso   1.00
Cu440  Cu    0.16667   0.78645   0.25000   0.00000  Uiso   1.00
H441   H     0.22789   0.81895   0.38699   0.00000  Uiso   1.00
H442   H     0.10545   0.84771   0.11300   0.00000  Uiso   1.00
N443   N     0.16667   0.95069   0.25000   0.00000  Uiso   1.00
N444   N     0.16667   0.71598   0.25000   0.00000  Uiso   1.00
O445   O     0.10655   0.87291   0.24999   0.00000  Uiso   1.00
O446   O     0.22679   0.79375   0.25000   0.00000  Uiso   1.00
O447   O     0.22679   0.87291   0.25000   0.00000  Uiso   1.00
O448   O     0.10655   0.79375   0.24999   0.00000  Uiso   1.00
O449   O     0.16666   0.87293   0.18513   0.00000  Uiso   1.00
O450   O     0.16668   0.79373   0.31487   0.00000  Uiso   1.00
O451   O     0.16668   0.87293   0.31487   0.00000  Uiso   1.00
O452   O     0.16666   0.79373   0.18513   0.00000  Uiso   1.00
I453   I     0.07293   0.83562   0.36868   0.00000  Uiso   1.00
I454   I     0.26040   0.83104   0.13132   0.00000  Uiso   1.00
C455   C     0.06273   0.88950   0.45792   0.00000  Uiso   1.00
N456   N     0.03646   0.91157   0.44229   0.00000  Uiso   1.00
C457   C     0.27060   0.77716   0.04208   0.00000  Uiso   1.00
N458   N     0.29688   0.75510   0.05771   0.00000  Uiso   1.00
I459   I     0.04104   0.87725   0.05993   0.00000  Uiso   1.00
I460   I     0.29229   0.78941   0.44007   0.00000  Uiso   1.00
C461   C     0.04238   0.75085   0.27800   0.00000  Uiso   1.00
N462   N     0.05874   0.71826   0.29269   0.00000  Uiso   1.00
C463   C     0.29095   0.91582   0.22200   0.00000  Uiso   1.00
N464   N     0.27460   0.94841   0.20731   0.00000  Uiso   1.00
C465   C     0.29515   0.74523   0.24890   0.00000  Uiso   1.00
N466   N     0.28144   0.70869   0.24498   0.00000  Uiso   1.00
C467   C     0.03819   0.92144   0.25110   0.00000  Uiso   1.00
N468   N     0.05189   0.95798   0.25502   0.00000  Uiso   1.00
C469   C     0.11603   0.71716   0.19016   0.00000  Uiso   1.00
N470   N     0.09443   0.73690   0.16569   0.00000  Uiso   1.00
C471   C     0.21730   0.94950   0.30984   0.00000  Uiso   1.00
N472   N     0.23891   0.92977   0.33431   0.00000  Uiso   1.00
C473   C     0.21485   0.71469   0.31227   0.00000  Uiso   1.00
N474   N     0.23485   0.73322   0.33847   0.00000  Uiso   1.00
C475   C     0.11848   0.95197   0.18773   0.00000  Uiso   1.00
N476   N     0.09848   0.93345   0.16153   0.00000  Uiso   1.00
C477   C     0.42080   0.83371   0.25182   0.00000  Uiso   1.00
C478   C     0.57920   0.83296   0.24818   0.00000  Uiso   1.00
C479   C     0.42900   0.85858   0.02467   0.00000  Uiso   1.00
C480   C     0.57100   0.80809   0.47533   0.00000  Uiso   1.00
C481   C     0.35517   0.79215   0.26015   0.00000  Uiso   1.00
C482   C     0.64483   0.87452   0.23985   0.00000  Uiso   1.00
C483   C     0.64659   0.79065   0.25306   0.00000  Uiso   1.00
C484   C     0.35341   0.87602   0.24694   0.00000  Uiso   1.00
C485   C     0.62401   0.83240   0.24611   0.00000  Uiso   1.00
C486   C     0.37599   0.83427   0.25389   0.00000  Uiso   1.00
C487   C     0.47607   0.69203   0.22059   0.00000  Uiso   1.00
C488   C     0.52393   0.97464   0.27941   0.00000  Uiso   1.00
C489   C     0.52353   0.69087   0.27979   0.00000  Uiso   1.00
C490   C     0.47647   0.97580   0.22021   0.00000  Uiso   1.00
C491   C     0.50092   0.83334   0.16459   0.00000  Uiso   1.00
C492   C     0.49908   0.83332   0.33541   0.00000  Uiso   1.00
C493   C     0.53425   0.82514   0.40641   0.00000  Uiso   1.00
C494   C     0.46575   0.84153   0.09359   0.00000  Uiso   1.00
C495   C     0.49803   0.83357   0.38364   0.00000  Uiso   1.00
C496   C     0.50197   0.83309   0.11636   0.00000  Uiso   1.00
C497   C     0.46168   0.84200   0.40640   0.00000  Uiso   1.00
C498   C     0.53832   0.82467   0.09360   0.00000  Uiso   1.00
C499   C     0.46276   0.84635   0.45341   0.00000  Uiso   1.00
C500   C     0.53724   0.82031   0.04659   0.00000  Uiso   1.00
C501   C     0.49946   0.83383   0.47655   0.00000  Uiso   1.00
C502   C     0.50054   0.83283   0.02345   0.00000  Uiso   1.00
C503   C     0.53526   0.82272   0.45271   0.00000  Uiso   1.00
C504   C     0.46474   0.84395   0.04729   0.00000  Uiso   1.00
C505   C     0.42885   0.86246   0.47820   0.00000  Uiso   1.00
C506   C     0.57115   0.80420   0.02180   0.00000  Uiso   1.00
Cu507  Cu    0.50000   0.88022   0.25000   0.00000  Uiso   1.00
Cu508  Cu    0.50000   0.78645   0.25000   0.00000  Uiso   1.00
H509   H     0.56122   0.81895   0.38699   0.00000  Uiso   1.00
H510   H     0.43878   0.84771   0.11300   0.00000  Uiso   1.00
N511   N     0.50000   0.95069   0.25000   0.00000  Uiso   1.00
N512   N     0.50000   0.71598   0.25000   0.00000  Uiso   1.00
O513   O     0.43988   0.87291   0.24999   0.00000  Uiso   1.00
O514   O     0.56012   0.79375   0.25000   0.00000  Uiso   1.00
O515   O     0.56012   0.87291   0.25000   0.00000  Uiso   1.00
O516   O     0.43988   0.79375   0.24999   0.00000  Uiso   1.00
O517   O     0.49999   0.87293   0.18513   0.00000  Uiso   1.00
O518   O     0.50001   0.79373   0.31487   0.00000  Uiso   1.00
O519   O     0.50001   0.87293   0.31487   0.00000  Uiso   1.00
O520   O     0.49999   0.79373   0.18513   0.00000  Uiso   1.00
I521   I     0.40627   0.83562   0.36868   0.00000  Uiso   1.00
I522   I     0.59374   0.83104   0.13132   0.00000  Uiso   1.00
C523   C     0.39607   0.88950   0.45792   0.00000  Uiso   1.00
N524   N     0.36979   0.91157   0.44229   0.00000  Uiso   1.00
C525   C     0.60393   0.77716   0.04208   0.00000  Uiso   1.00
N526   N     0.63021   0.75510   0.05771   0.00000  Uiso   1.00
I527   I     0.37438   0.87725   0.05993   0.00000  Uiso   1.00
I528   I     0.62562   0.78941   0.44007   0.00000  Uiso   1.00
C529   C     0.37571   0.75085   0.27800   0.00000  Uiso   1.00
N530   N     0.39207   0.71826   0.29269   0.00000  Uiso   1.00
C531   C     0.62429   0.91582   0.22200   0.00000  Uiso   1.00
N532   N     0.60793   0.94841   0.20731   0.00000  Uiso   1.00
C533   C     0.62848   0.74523   0.24890   0.00000  Uiso   1.00
N534   N     0.61477   0.70869   0.24498   0.00000  Uiso   1.00
C535   C     0.37152   0.92144   0.25110   0.00000  Uiso   1.00
N536   N     0.38523   0.95798   0.25502   0.00000  Uiso   1.00
C537   C     0.44936   0.71716   0.19016   0.00000  Uiso   1.00
N538   N     0.42776   0.73690   0.16569   0.00000  Uiso   1.00
C539   C     0.55064   0.94950   0.30984   0.00000  Uiso   1.00
N540   N     0.57224   0.92977   0.33431   0.00000  Uiso   1.00
C541   C     0.54819   0.71469   0.31227   0.00000  Uiso   1.00
N542   N     0.56819   0.73322   0.33847   0.00000  Uiso   1.00
C543   C     0.45182   0.95197   0.18773   0.00000  Uiso   1.00
N544   N     0.43181   0.93345   0.16153   0.00000  Uiso   1.00
C545   C     0.75414   0.83371   0.25182   0.00000  Uiso   1.00
C546   C     0.91253   0.83296   0.24818   0.00000  Uiso   1.00
C547   C     0.76234   0.85858   0.02467   0.00000  Uiso   1.00
C548   C     0.90433   0.80809   0.47533   0.00000  Uiso   1.00
C549   C     0.68851   0.79215   0.26015   0.00000  Uiso   1.00
C550   C     0.97816   0.87452   0.23985   0.00000  Uiso   1.00
C551   C     0.97992   0.79065   0.25306   0.00000  Uiso   1.00
C552   C     0.68674   0.87602   0.24694   0.00000  Uiso   1.00
C553   C     0.95734   0.83240   0.24611   0.00000  Uiso   1.00
C554   C     0.70933   0.83427   0.25389   0.00000  Uiso   1.00
C555   C     0.80940   0.69203   0.22059   0.00000  Uiso   1.00
C556   C     0.85727   0.97464   0.27941   0.00000  Uiso   1.00
C557   C     0.85686   0.69087   0.27979   0.00000  Uiso   1.00
C558   C     0.80980   0.97580   0.22021   0.00000  Uiso   1.00
C559   C     0.83425   0.83334   0.16459   0.00000  Uiso   1.00
C560   C     0.83242   0.83332   0.33541   0.00000  Uiso   1.00
C561   C     0.86759   0.82514   0.40641   0.00000  Uiso   1.00
C562   C     0.79908   0.84153   0.09359   0.00000  Uiso   1.00
C563   C     0.83136   0.83357   0.38364   0.00000  Uiso   1.00
C564   C     0.83531   0.83309   0.11636   0.00000  Uiso   1.00
C565   C     0.79501   0.84200   0.40640   0.00000  Uiso   1.00
C566   C     0.87166   0.82467   0.09360   0.00000  Uiso   1.00
C567   C     0.79609   0.84635   0.45341   0.00000  Uiso   1.00
C568   C     0.87057   0.82031   0.04659   0.00000  Uiso   1.00
C569   C     0.83280   0.83383   0.47655   0.00000  Uiso   1.00
C570   C     0.83387   0.83283   0.02345   0.00000  Uiso   1.00
C571   C     0.86859   0.82272   0.45271   0.00000  Uiso   1.00
C572   C     0.79807   0.84395   0.04729   0.00000  Uiso   1.00
C573   C     0.76219   0.86246   0.47820   0.00000  Uiso   1.00
C574   C     0.90448   0.80420   0.02180   0.00000  Uiso   1.00
Cu575  Cu    0.83333   0.88022   0.25000   0.00000  Uiso   1.00
Cu576  Cu    0.83333   0.78645   0.25000   0.00000  Uiso   1.00
H577   H     0.89456   0.81895   0.38699   0.00000  Uiso   1.00
H578   H     0.77211   0.84771   0.11300   0.00000  Uiso   1.00
N579   N     0.83333   0.95069   0.25000   0.00000  Uiso   1.00
N580   N     0.83333   0.71598   0.25000   0.00000  Uiso   1.00
O581   O     0.77321   0.87291   0.24999   0.00000  Uiso   1.00
O582   O     0.89345   0.79375   0.25000   0.00000  Uiso   1.00
O583   O     0.89345   0.87291   0.25000   0.00000  Uiso   1.00
O584   O     0.77321   0.79375   0.24999   0.00000  Uiso   1.00
O585   O     0.83332   0.87293   0.18513   0.00000  Uiso   1.00
O586   O     0.83334   0.79373   0.31487   0.00000  Uiso   1.00
O587   O     0.83334   0.87293   0.31487   0.00000  Uiso   1.00
O588   O     0.83332   0.79373   0.18513   0.00000  Uiso   1.00
I589   I     0.73960   0.83562   0.36868   0.00000  Uiso   1.00
I590   I     0.92707   0.83104   0.13132   0.00000  Uiso   1.00
C591   C     0.72940   0.88950   0.45792   0.00000  Uiso   1.00
N592   N     0.70312   0.91157   0.44229   0.00000  Uiso   1.00
C593   C     0.93727   0.77716   0.04208   0.00000  Uiso   1.00
N594   N     0.96354   0.75510   0.05771   0.00000  Uiso   1.00
I595   I     0.70771   0.87725   0.05993   0.00000  Uiso   1.00
I596   I     0.95896   0.78941   0.44007   0.00000  Uiso   1.00
C597   C     0.70905   0.75085   0.27800   0.00000  Uiso   1.00
N598   N     0.72540   0.71826   0.29269   0.00000  Uiso   1.00
C599   C     0.95762   0.91582   0.22200   0.00000  Uiso   1.00
N600   N     0.94126   0.94841   0.20731   0.00000  Uiso   1.00
C601   C     0.96181   0.74523   0.24890   0.00000  Uiso   1.00
N602   N     0.94811   0.70869   0.24498   0.00000  Uiso   1.00
C603   C     0.70486   0.92144   0.25110   0.00000  Uiso   1.00
N604   N     0.71856   0.95798   0.25502   0.00000  Uiso   1.00
C605   C     0.78270   0.71716   0.19016   0.00000  Uiso   1.00
N606   N     0.76109   0.73690   0.16569   0.00000  Uiso   1.00
C607   C     0.88397   0.94950   0.30984   0.00000  Uiso   1.00
N608   N     0.90557   0.92977   0.33431   0.00000  Uiso   1.00
C609   C     0.88152   0.71469   0.31227   0.00000  Uiso   1.00
N610   N     0.90152   0.73322   0.33847   0.00000  Uiso   1.00
C611   C     0.78515   0.95197   0.18773   0.00000  Uiso   1.00
N612   N     0.76515   0.93345   0.16153   0.00000  Uiso   1.00
C613   C     0.08747   0.16704   0.75182   0.00000  Uiso   1.00
C614   C     0.24586   0.16629   0.74818   0.00000  Uiso   1.00
C615   C     0.09567   0.19191   0.52467   0.00000  Uiso   1.00
C616   C     0.23766   0.14142   0.97533   0.00000  Uiso   1.00
C617   C     0.02184   0.12548   0.76015   0.00000  Uiso   1.00
C618   C     0.31149   0.20785   0.73985   0.00000  Uiso   1.00
C619   C     0.31326   0.12398   0.75306   0.00000  Uiso   1.00
C620   C     0.02008   0.20935   0.74694   0.00000  Uiso   1.00
C621   C     0.29067   0.16573   0.74611   0.00000  Uiso   1.00
C622   C     0.04266   0.16760   0.75389   0.00000  Uiso   1.00
C623   C     0.14273   0.02536   0.72059   0.00000  Uiso   1.00
C624   C     0.19060   0.30797   0.77941   0.00000  Uiso   1.00
C625   C     0.19020   0.02420   0.77979   0.00000  Uiso   1.00
C626   C     0.14314   0.30913   0.72021   0.00000  Uiso   1.00
C627   C     0.16758   0.16668   0.66459   0.00000  Uiso   1.00
C628   C     0.16575   0.16666   0.83541   0.00000  Uiso   1.00
C629   C     0.20092   0.15847   0.90641   0.00000  Uiso   1.00
C630   C     0.13241   0.17486   0.59359   0.00000  Uiso   1.00
C631   C     0.16469   0.16691   0.88364   0.00000  Uiso   1.00
C632   C     0.16864   0.16643   0.61636   0.00000  Uiso   1.00
C633   C     0.12834   0.17534   0.90640   0.00000  Uiso   1.00
C634   C     0.20499   0.15800   0.59360   0.00000  Uiso   1.00
C635   C     0.12943   0.17969   0.95341   0.00000  Uiso   1.00
C636   C     0.20391   0.15365   0.54659   0.00000  Uiso   1.00
C637   C     0.16613   0.16717   0.97655   0.00000  Uiso   1.00
C638   C     0.16720   0.16617   0.52345   0.00000  Uiso   1.00
C639   C     0.20193   0.15605   0.95271   0.00000  Uiso   1.00
C640   C     0.13141   0.17728   0.54729   0.00000  Uiso   1.00
C641   C     0.09552   0.19580   0.97820   0.00000  Uiso   1.00
C642   C     0.23781   0.13754   0.52180   0.00000  Uiso   1.00
Cu643  Cu    0.16667   0.21355   0.75000   0.00000  Uiso   1.00
Cu644  Cu    0.16667   0.11978   0.75000   0.00000  Uiso   1.00
H645   H     0.22789   0.15229   0.88699   0.00000  Uiso   1.00
H646   H     0.10545   0.18105   0.61300   0.00000  Uiso   1.00
N647   N     0.16667   0.28402   0.75000   0.00000  Uiso   1.00
N648   N     0.16667   0.04931   0.75000   0.00000  Uiso   1.00
O649   O     0.10655   0.20625   0.74999   0.00000  Uiso   1.00
O650   O     0.22679   0.12709   0.75000   0.00000  Uiso   1.00
O651   O     0.22679   0.20625   0.75000   0.00000  Uiso   1.00
O652   O     0.10655   0.12709   0.74999   0.00000  Uiso   1.00
O653   O     0.16666   0.20627   0.68513   0.00000  Uiso   1.00
O654   O     0.16668   0.12707   0.81487   0.00000  Uiso   1.00
O655   O     0.16668   0.20627   0.81487   0.00000  Uiso   1.00
O656   O     0.16666   0.12707   0.68513   0.00000  Uiso   1.00
I657   I     0.07293   0.16896   0.86868   0.00000  Uiso   1.00
I658   I     0.26040   0.16438   0.63132   0.00000  Uiso   1.00
C659   C     0.06273   0.22284   0.95792   0.00000  Uiso   1.00
N660   N     0.03646   0.24490   0.94229   0.00000  Uiso   1.00
C661   C     0.27060   0.11050   0.54208   0.00000  Uiso   1.00
N662   N     0.29688   0.08843   0.55771   0.00000  Uiso   1.00
I663   I     0.04104   0.21059   0.55993   0.00000  Uiso   1.00
I664   I     0.29229   0.12275   0.94007   0.00000  Uiso   1.00
C665   C     0.04238   0.08418   0.77800   0.00000  Uiso   1.00
N666   N     0.05874   0.05159   0.79269   0.00000  Uiso   1.00
C667   C     0.29095   0.24915   0.72200   0.00000  Uiso   1.00
N668   N     0.27460   0.28175   0.70731   0.00000  Uiso   1.00
C669   C     0.29515   0.07856   0.74890   0.00000  Uiso   1.00
N670   N     0.28144   0.04202   0.74498   0.00000  Uiso   1.00
C671   C     0.03819   0.25477   0.75110   0.00000  Uiso   1.00
N672   N     0.05189   0.29131   0.75502   0.00000  Uiso   1.00
C673   C     0.11603   0.05050   0.69016   0.00000  Uiso   1.00
N674   N     0.09443   0.07023   0.66569   0.00000  Uiso   1.00
C675   C     0.21730   0.28284   0.80984   0.00000  Uiso   1.00
N676   N     0.23891   0.26310   0.83431   0.00000  Uiso   1.00
C677   C     0.21485   0.04803   0.81227   0.00000  Uiso   1.00
N678   N     0.23485   0.06655   0.83847   0.00000  Uiso   1.00
C679   C     0.11848   0.28531   0.68773   0.00000  Uiso   1.00
N680   N     0.09848   0.26678   0.66153   0.00000  Uiso   1.00
C681   C     0.42080   0.16704   0.75182   0.00000  Uiso   1.00
C682   C     0.57920   0.16629   0.74818   0.00000  Uiso   1.00
C683   C     0.42900   0.19191   0.52467   0.00000  Uiso   1.00
C684   C     0.57100   0.14142   0.97533   0.00000  Uiso   1.00
C685   C     0.35517   0.12548   0.76015   0.00000  Uiso   1.00
C686   C     0.64483   0.20785   0.73985   0.00000  Uiso   1.00
C687   C     0.64659   0.12398   0.75306   0.00000  Uiso   1.00
C688   C     0.35341   0.20935   0.74694   0.00000  Uiso   1.00
C689   C     0.62401   0.16573   0.74611   0.00000  Uiso   1.00
C690   C     0.37599   0.16760   0.75389   0.00000  Uiso   1.00
C691   C     0.47607   0.02536   0.72059   0.00000  Uiso   1.00
C692   C     0.52393   0.30797   0.77941   0.00000  Uiso   1.00
C693   C     0.52353   0.02420   0.77979   0.00000  Uiso   1.00
C694   C     0.47647   0.30913   0.72021   0.00000  Uiso   1.00
C695   C     0.50092   0.16668   0.66459   0.00000  Uiso   1.00
C696   C     0.49908   0.16666   0.83541   0.00000  Uiso   1.00
C697   C     0.53425   0.15847   0.90641   0.00000  Uiso   1.00
C698   C     0.46575   0.17486   0.59359   0.00000  Uiso   1.00
C699   C     0.49803   0.16691   0.88364   0.00000  Uiso   1.00
C700   C     0.50197   0.16643   0.61636   0.00000  Uiso   1.00
C701   C     0.46168   0.17534   0.90640   0.00000  Uiso   1.00
C702   C     0.53832   0.15800   0.59360   0.00000  Uiso   1.00
C703   C     0.46276   0.17969   0.95341   0.00000  Uiso   1.00
C704   C     0.53724   0.15365   0.54659   0.00000  Uiso   1.00
C705   C     0.49946   0.16717   0.97655   0.00000  Uiso   1.00
C706   C     0.50054   0.16617   0.52345   0.00000  Uiso   1.00
C707   C     0.53526   0.15605   0.95271   0.00000  Uiso   1.00
C708   C     0.46474   0.17728   0.54729   0.00000  Uiso   1.00
C709   C     0.42885   0.19580   0.97820   0.00000  Uiso   1.00
C710   C     0.57115   0.13754   0.52180   0.00000  Uiso   1.00
Cu711  Cu    0.50000   0.21355   0.75000   0.00000  Uiso   1.00
Cu712  Cu    0.50000   0.11978   0.75000   0.00000  Uiso   1.00
H713   H     0.56122   0.15229   0.88699   0.00000  Uiso   1.00
H714   H     0.43878   0.18105   0.61300   0.00000  Uiso   1.00
N715   N     0.50000   0.28402   0.75000   0.00000  Uiso   1.00
N716   N     0.50000   0.04931   0.75000   0.00000  Uiso   1.00
O717   O     0.43988   0.20625   0.74999   0.00000  Uiso   1.00
O718   O     0.56012   0.12709   0.75000   0.00000  Uiso   1.00
O719   O     0.56012   0.20625   0.75000   0.00000  Uiso   1.00
O720   O     0.43988   0.12709   0.74999   0.00000  Uiso   1.00
O721   O     0.49999   0.20627   0.68513   0.00000  Uiso   1.00
O722   O     0.50001   0.12707   0.81487   0.00000  Uiso   1.00
O723   O     0.50001   0.20627   0.81487   0.00000  Uiso   1.00
O724   O     0.49999   0.12707   0.68513   0.00000  Uiso   1.00
I725   I     0.40627   0.16896   0.86868   0.00000  Uiso   1.00
I726   I     0.59374   0.16438   0.63132   0.00000  Uiso   1.00
C727   C     0.39607   0.22284   0.95792   0.00000  Uiso   1.00
N728   N     0.36979   0.24490   0.94229   0.00000  Uiso   1.00
C729   C     0.60393   0.11050   0.54208   0.00000  Uiso   1.00
N730   N     0.63021   0.08843   0.55771   0.00000  Uiso   1.00
I731   I     0.37438   0.21059   0.55993   0.00000  Uiso   1.00
I732   I     0.62562   0.12275   0.94007   0.00000  Uiso   1.00
C733   C     0.37571   0.08418   0.77800   0.00000  Uiso   1.00
N734   N     0.39207   0.05159   0.79269   0.00000  Uiso   1.00
C735   C     0.62429   0.24915   0.72200   0.00000  Uiso   1.00
N736   N     0.60793   0.28175   0.70731   0.00000  Uiso   1.00
C737   C     0.62848   0.07856   0.74890   0.00000  Uiso   1.00
N738   N     0.61477   0.04202   0.74498   0.00000  Uiso   1.00
C739   C     0.37152   0.25477   0.75110   0.00000  Uiso   1.00
N740   N     0.38523   0.29131   0.75502   0.00000  Uiso   1.00
C741   C     0.44936   0.05050   0.69016   0.00000  Uiso   1.00
N742   N     0.42776   0.07023   0.66569   0.00000  Uiso   1.00
C743   C     0.55064   0.28284   0.80984   0.00000  Uiso   1.00
N744   N     0.57224   0.26310   0.83431   0.00000  Uiso   1.00
C745   C     0.54819   0.04803   0.81227   0.00000  Uiso   1.00
N746   N     0.56819   0.06655   0.83847   0.00000  Uiso   1.00
C747   C     0.45182   0.28531   0.68773   0.00000  Uiso   1.00
N748   N     0.43181   0.26678   0.66153   0.00000  Uiso   1.00
C749   C     0.75414   0.16704   0.75182   0.00000  Uiso   1.00
C750   C     0.91253   0.16629   0.74818   0.00000  Uiso   1.00
C751   C     0.76234   0.19191   0.52467   0.00000  Uiso   1.00
C752   C     0.90433   0.14142   0.97533   0.00000  Uiso   1.00
C753   C     0.68851   0.12548   0.76015   0.00000  Uiso   1.00
C754   C     0.97816   0.20785   0.73985   0.00000  Uiso   1.00
C755   C     0.97992   0.12398   0.75306   0.00000  Uiso   1.00
C756   C     0.68674   0.20935   0.74694   0.00000  Uiso   1.00
C757   C     0.95734   0.16573   0.74611   0.00000  Uiso   1.00
C758   C     0.70933   0.16760   0.75389   0.00000  Uiso   1.00
C759   C     0.80940   0.02536   0.72059   0.00000  Uiso   1.00
C760   C     0.85727   0.30797   0.77941   0.00000  Uiso   1.00
C761   C     0.85686   0.02420   0.77979   0.00000  Uiso   1.00
C762   C     0.80980   0.30913   0.72021   0.00000  Uiso   1.00
C763   C     0.83425   0.16668   0.66459   0.00000  Uiso   1.00
C764   C     0.83242   0.16666   0.83541   0.00000  Uiso   1.00
C765   C     0.86759   0.15847   0.90641   0.00000  Uiso   1.00
C766   C     0.79908   0.17486   0.59359   0.00000  Uiso   1.00
C767   C     0.83136   0.16691   0.88364   0.00000  Uiso   1.00
C768   C     0.83531   0.16643   0.61636   0.00000  Uiso   1.00
C769   C     0.79501   0.17534   0.90640   0.00000  Uiso   1.00
C770   C     0.87166   0.15800   0.59360   0.00000  Uiso   1.00
C771   C     0.79609   0.17969   0.95341   0.00000  Uiso   1.00
C772   C     0.87057   0.15365   0.54659   0.00000  Uiso   1.00
C773   C     0.83280   0.16717   0.97655   0.00000  Uiso   1.00
C774   C     0.83387   0.16617   0.52345   0.00000  Uiso   1.00
C775   C     0.86859   0.15605   0.95271   0.00000  Uiso   1.00
C776   C     0.79807   0.17728   0.54729   0.00000  Uiso   1.00
C777   C     0.76219   0.19580   0.97820   0.00000  Uiso   1.00
C778   C     0.90448   0.13754   0.52180   0.00000  Uiso   1.00
Cu779  Cu    0.83333   0.21355   0.75000   0.00000  Uiso   1.00
Cu780  Cu    0.83333   0.11978   0.75000   0.00000  Uiso   1.00
H781   H     0.89456   0.15229   0.88699   0.00000  Uiso   1.00
H782   H     0.77211   0.18105   0.61300   0.00000  Uiso   1.00
N783   N     0.83333   0.28402   0.75000   0.00000  Uiso   1.00
N784   N     0.83333   0.04931   0.75000   0.00000  Uiso   1.00
O785   O     0.77321   0.20625   0.74999   0.00000  Uiso   1.00
O786   O     0.89345   0.12709   0.75000   0.00000  Uiso   1.00
O787   O     0.89345   0.20625   0.75000   0.00000  Uiso   1.00
O788   O     0.77321   0.12709   0.74999   0.00000  Uiso   1.00
O789   O     0.83332   0.20627   0.68513   0.00000  Uiso   1.00
O790   O     0.83334   0.12707   0.81487   0.00000  Uiso   1.00
O791   O     0.83334   0.20627   0.81487   0.00000  Uiso   1.00
O792   O     0.83332   0.12707   0.68513   0.00000  Uiso   1.00
I793   I     0.73960   0.16896   0.86868   0.00000  Uiso   1.00
I794   I     0.92707   0.16438   0.63132   0.00000  Uiso   1.00
C795   C     0.72940   0.22284   0.95792   0.00000  Uiso   1.00
N796   N     0.70312   0.24490   0.94229   0.00000  Uiso   1.00
C797   C     0.93727   0.11050   0.54208   0.00000  Uiso   1.00
N798   N     0.96354   0.08843   0.55771   0.00000  Uiso   1.00
I799   I     0.70771   0.21059   0.55993   0.00000  Uiso   1.00
I800   I     0.95896   0.12275   0.94007   0.00000  Uiso   1.00
C801   C     0.70905   0.08418   0.77800   0.00000  Uiso   1.00
N802   N     0.72540   0.05159   0.79269   0.00000  Uiso   1.00
C803   C     0.95762   0.24915   0.72200   0.00000  Uiso   1.00
N804   N     0.94126   0.28175   0.70731   0.00000  Uiso   1.00
C805   C     0.96181   0.07856   0.74890   0.00000  Uiso   1.00
N806   N     0.94811   0.04202   0.74498   0.00000  Uiso   1.00
C807   C     0.70486   0.25477   0.75110   0.00000  Uiso   1.00
N808   N     0.71856   0.29131   0.75502   0.00000  Uiso   1.00
C809   C     0.78270   0.05050   0.69016   0.00000  Uiso   1.00
N810   N     0.76109   0.07023   0.66569   0.00000  Uiso   1.00
C811   C     0.88397   0.28284   0.80984   0.00000  Uiso   1.00
N812   N     0.90557   0.26310   0.83431   0.00000  Uiso   1.00
C813   C     0.88152   0.04803   0.81227   0.00000  Uiso   1.00
N814   N     0.90152   0.06655   0.83847   0.00000  Uiso   1.00
C815   C     0.78515   0.28531   0.68773   0.00000  Uiso   1.00
N816   N     0.76515   0.26678   0.66153   0.00000  Uiso   1.00
C817   C     0.08747   0.50037   0.75182   0.00000  Uiso   1.00
C818   C     0.24586   0.49963   0.74818   0.00000  Uiso   1.00
C819   C     0.09567   0.52525   0.52467   0.00000  Uiso   1.00
C820   C     0.23766   0.47475   0.97533   0.00000  Uiso   1.00
C821   C     0.02184   0.45881   0.76015   0.00000  Uiso   1.00
C822   C     0.31149   0.54119   0.73985   0.00000  Uiso   1.00
C823   C     0.31326   0.45732   0.75306   0.00000  Uiso   1.00
C824   C     0.02008   0.54268   0.74694   0.00000  Uiso   1.00
C825   C     0.29067   0.49906   0.74611   0.00000  Uiso   1.00
C826   C     0.04266   0.50094   0.75389   0.00000  Uiso   1.00
C827   C     0.14273   0.35869   0.72059   0.00000  Uiso   1.00
C828   C     0.19060   0.64131   0.77941   0.00000  Uiso   1.00
C829   C     0.19020   0.35754   0.77979   0.00000  Uiso   1.00
C830   C     0.14314   0.64246   0.72021   0.00000  Uiso   1.00
C831   C     0.16758   0.50001   0.66459   0.00000  Uiso   1.00
C832   C     0.16575   0.49999   0.83541   0.00000  Uiso   1.00
C833   C     0.20092   0.49181   0.90641   0.00000  Uiso   1.00
C834   C     0.13241   0.50819   0.59359   0.00000  Uiso   1.00
C835   C     0.16469   0.50024   0.88364   0.00000  Uiso   1.00
C836   C     0.16864   0.49976   0.61636   0.00000  Uiso   1.00
C837   C     0.12834   0.50867   0.90640   0.00000  Uiso   1.00
C838   C     0.20499   0.49133   0.59360   0.00000  Uiso   1.00
C839   C     0.12943   0.51302   0.95341   0.00000  Uiso   1.00
C840   C     0.20391   0.48698   0.54659   0.00000  Uiso   1.00
C841   C     0.16613   0.50050   0.97655   0.00000  Uiso   1.00
C842   C     0.16720   0.49950   0.52345   0.00000  Uiso   1.00
C843   C     0.20193   0.48939   0.95271   0.00000  Uiso   1.00
C844   C     0.13141   0.51061   0.54729   0.00000  Uiso   1.00
C845   C     0.09552   0.52913   0.97820   0.00000  Uiso   1.00
C846   C     0.23781   0.47087   0.52180   0.00000  Uiso   1.00
Cu847  Cu    0.16667   0.54689   0.75000   0.00000  Uiso   1.00
Cu848  Cu    0.16667   0.45311   0.75000   0.00000  Uiso   1.00
H849   H     0.22789   0.48562   0.88699   0.00000  Uiso   1.00
H850   H     0.10545   0.51438   0.61300   0.00000  Uiso   1.00
N851   N     0.16667   0.61736   0.75000   0.00000  Uiso   1.00
N852   N     0.16667   0.38264   0.75000   0.00000  Uiso   1.00
O853   O     0.10655   0.53958   0.74999   0.00000  Uiso   1.00
O854   O     0.22679   0.46042   0.75000   0.00000  Uiso   1.00
O855   O     0.22679   0.53958   0.75000   0.00000  Uiso   1.00
O856   O     0.10655   0.46042   0.74999   0.00000  Uiso   1.00
O857   O     0.16666   0.53960   0.68513   0.00000  Uiso   1.00
O858   O     0.16668   0.46040   0.81487   0.00000  Uiso   1.00
O859   O     0.16668   0.53960   0.81487   0.00000  Uiso   1.00
O860   O     0.16666   0.46040   0.68513   0.00000  Uiso   1.00
I861   I     0.07293   0.50229   0.86868   0.00000  Uiso   1.00
I862   I     0.26040   0.49771   0.63132   0.00000  Uiso   1.00
C863   C     0.06273   0.55617   0.95792   0.00000  Uiso   1.00
N864   N     0.03646   0.57824   0.94229   0.00000  Uiso   1.00
C865   C     0.27060   0.44383   0.54208   0.00000  Uiso   1.00
N866   N     0.29688   0.42176   0.55771   0.00000  Uiso   1.00
I867   I     0.04104   0.54392   0.55993   0.00000  Uiso   1.00
I868   I     0.29229   0.45608   0.94007   0.00000  Uiso   1.00
C869   C     0.04238   0.41751   0.77800   0.00000  Uiso   1.00
N870   N     0.05874   0.38492   0.79269   0.00000  Uiso   1.00
C871   C     0.29095   0.58249   0.72200   0.00000  Uiso   1.00
N872   N     0.27460   0.61508   0.70731   0.00000  Uiso   1.00
C873   C     0.29515   0.41189   0.74890   0.00000  Uiso   1.00
N874   N     0.28144   0.37536   0.74498   0.00000  Uiso   1.00
C875   C     0.03819   0.58811   0.75110   0.00000  Uiso   1.00
N876   N     0.05189   0.62464   0.75502   0.00000  Uiso   1.00
C877   C     0.11603   0.38383   0.69016   0.00000  Uiso   1.00
N878   N     0.09443   0.40357   0.66569   0.00000  Uiso   1.00
C879   C     0.21730   0.61617   0.80984   0.00000  Uiso   1.00
N880   N     0.23891   0.59643   0.83431   0.00000  Uiso   1.00
C881   C     0.21485   0.38136   0.81227   0.00000  Uiso   1.00
N882   N     0.23485   0.39989   0.83847   0.00000  Uiso   1.00
C883   C     0.11848   0.61864   0.68773   0.00000  Uiso   1.00
N884   N     0.09848   0.60011   0.66153   0.00000  Uiso   1.00
C885   C     0.42080   0.50037   0.75182   0.00000  Uiso   1.00
C886   C     0.57920   0.49963   0.74818   0.00000  Uiso   1.00
C887   C     0.42900   0.52525   0.52467   0.00000  Uiso   1.00
C888   C     0.57100   0.47475   0.97533   0.00000  Uiso   1.00
C889   C     0.35517   0.45881   0.76015   0.00000  Uiso   1.00
C890   C     0.64483   0.54119   0.73985   0.00000  Uiso   1.00
C891   C     0.64659   0.45732   0.75306   0.00000  Uiso   1.00
C892   C     0.35341   0.54268   0.74694   0.00000  Uiso   1.00
C893   C     0.62401   0.49906   0.74611   0.00000  Uiso   1.00
C894   C     0.37599   0.50094   0.75389   0.00000  Uiso   1.00
C895   C     0.47607   0.35869   0.72059   0.00000  Uiso   1.00
C896   C     0.52393   0.64131   0.77941   0.00000  Uiso   1.00
C897   C     0.52353   0.35754   0.77979   0.00000  Uiso   1.00
C898   C     0.47647   0.64246   0.72021   0.00000  Uiso   1.00
C899   C     0.50092   0.50001   0.66459   0.00000  Uiso   1.00
C900   C     0.49908   0.49999   0.83541   0.00000  Uiso   1.00
C901   C     0.53425   0.49181   0.90641   0.00000  Uiso   1.00
C902   C     0.46575   0.50819   0.59359   0.00000  Uiso   1.00
C903   C     0.49803   0.50024   0.88364   0.00000  Uiso   1.00
C904   C     0.50197   0.49976   0.61636   0.00000  Uiso   1.00
C905   C     0.46168   0.50867   0.90640   0.00000  Uiso   1.00
C906   C     0.53832   0.49133   0.59360   0.00000  Uiso   1.00
C907   C     0.46276   0.51302   0.95341   0.00000  Uiso   1.00
C908   C     0.53724   0.48698   0.54659   0.00000  Uiso   1.00
C909   C     0.49946   0.50050   0.97655   0.00000  Uiso   1.00
C910   C     0.50054   0.49950   0.52345   0.00000  Uiso   1.00
C911   C     0.53526   0.48939   0.95271   0.00000  Uiso   1.00
C912   C     0.46474   0.51061   0.54729   0.00000  Uiso   1.00
C913   C     0.42885   0.52913   0.97820   0.00000  Uiso   1.00
C914   C     0.57115   0.47087   0.52180   0.00000  Uiso   1.00
Cu915  Cu    0.50000   0.54689   0.75000   0.00000  Uiso   1.00
Cu916  Cu    0.50000   0.45311   0.75000   0.00000  Uiso   1.00
H917   H     0.56122   0.48562   0.88699   0.00000  Uiso   1.00
H918   H     0.43878   0.51438   0.61300   0.00000  Uiso   1.00
N919   N     0.50000   0.61736   0.75000   0.00000  Uiso   1.00
N920   N     0.50000   0.38264   0.75000   0.00000  Uiso   1.00
O921   O     0.43988   0.53958   0.74999   0.00000  Uiso   1.00
O922   O     0.56012   0.46042   0.75000   0.00000  Uiso   1.00
O923   O     0.56012   0.53958   0.75000   0.00000  Uiso   1.00
O924   O     0.43988   0.46042   0.74999   0.00000  Uiso   1.00
O925   O     0.49999   0.53960   0.68513   0.00000  Uiso   1.00
O926   O     0.50001   0.46040   0.81487   0.00000  Uiso   1.00
O927   O     0.50001   0.53960   0.81487   0.00000  Uiso   1.00
O928   O     0.49999   0.46040   0.68513   0.00000  Uiso   1.00
I929   I     0.40627   0.50229   0.86868   0.00000  Uiso   1.00
I930   I     0.59374   0.49771   0.63132   0.00000  Uiso   1.00
C931   C     0.39607   0.55617   0.95792   0.00000  Uiso   1.00
N932   N     0.36979   0.57824   0.94229   0.00000  Uiso   1.00
C933   C     0.60393   0.44383   0.54208   0.00000  Uiso   1.00
N934   N     0.63021   0.42176   0.55771   0.00000  Uiso   1.00
I935   I     0.37438   0.54392   0.55993   0.00000  Uiso   1.00
I936   I     0.62562   0.45608   0.94007   0.00000  Uiso   1.00
C937   C     0.37571   0.41751   0.77800   0.00000  Uiso   1.00
N938   N     0.39207   0.38492   0.79269   0.00000  Uiso   1.00
C939   C     0.62429   0.58249   0.72200   0.00000  Uiso   1.00
N940   N     0.60793   0.61508   0.70731   0.00000  Uiso   1.00
C941   C     0.62848   0.41189   0.74890   0.00000  Uiso   1.00
N942   N     0.61477   0.37536   0.74498   0.00000  Uiso   1.00
C943   C     0.37152   0.58811   0.75110   0.00000  Uiso   1.00
N944   N     0.38523   0.62464   0.75502   0.00000  Uiso   1.00
C945   C     0.44936   0.38383   0.69016   0.00000  Uiso   1.00
N946   N     0.42776   0.40357   0.66569   0.00000  Uiso   1.00
C947   C     0.55064   0.61617   0.80984   0.00000  Uiso   1.00
N948   N     0.57224   0.59643   0.83431   0.00000  Uiso   1.00
C949   C     0.54819   0.38136   0.81227   0.00000  Uiso   1.00
N950   N     0.56819   0.39989   0.83847   0.00000  Uiso   1.00
C951   C     0.45182   0.61864   0.68773   0.00000  Uiso   1.00
N952   N     0.43181   0.60011   0.66153   0.00000  Uiso   1.00
C953   C     0.75414   0.50037   0.75182   0.00000  Uiso   1.00
C954   C     0.91253   0.49963   0.74818   0.00000  Uiso   1.00
C955   C     0.76234   0.52525   0.52467   0.00000  Uiso   1.00
C956   C     0.90433   0.47475   0.97533   0.00000  Uiso   1.00
C957   C     0.68851   0.45881   0.76015   0.00000  Uiso   1.00
C958   C     0.97816   0.54119   0.73985   0.00000  Uiso   1.00
C959   C     0.97992   0.45732   0.75306   0.00000  Uiso   1.00
C960   C     0.68674   0.54268   0.74694   0.00000  Uiso   1.00
C961   C     0.95734   0.49906   0.74611   0.00000  Uiso   1.00
C962   C     0.70933   0.50094   0.75389   0.00000  Uiso   1.00
C963   C     0.80940   0.35869   0.72059   0.00000  Uiso   1.00
C964   C     0.85727   0.64131   0.77941   0.00000  Uiso   1.00
C965   C     0.85686   0.35754   0.77979   0.00000  Uiso   1.00
C966   C     0.80980   0.64246   0.72021   0.00000  Uiso   1.00
C967   C     0.83425   0.50001   0.66459   0.00000  Uiso   1.00
C968   C     0.83242   0.49999   0.83541   0.00000  Uiso   1.00
C969   C     0.86759   0.49181   0.90641   0.00000  Uiso   1.00
C970   C     0.79908   0.50819   0.59359   0.00000  Uiso   1.00
C971   C     0.83136   0.50024   0.88364   0.00000  Uiso   1.00
C972   C     0.83531   0.49976   0.61636   0.00000  Uiso   1.00
C973   C     0.79501   0.50867   0.90640   0.00000  Uiso   1.00
C974   C     0.87166   0.49133   0.59360   0.00000  Uiso   1.00
C975   C     0.79609   0.51302   0.95341   0.00000  Uiso   1.00
C976   C     0.87057   0.48698   0.54659   0.00000  Uiso   1.00
C977   C     0.83280   0.50050   0.97655   0.00000  Uiso   1.00
C978   C     0.83387   0.49950   0.52345   0.00000  Uiso   1.00
C979   C     0.86859   0.48939   0.95271   0.00000  Uiso   1.00
C980   C     0.79807   0.51061   0.54729   0.00000  Uiso   1.00
C981   C     0.76219   0.52913   0.97820   0.00000  Uiso   1.00
C982   C     0.90448   0.47087   0.52180   0.00000  Uiso   1.00
Cu983  Cu    0.83333   0.54689   0.75000   0.00000  Uiso   1.00
Cu984  Cu    0.83333   0.45311   0.75000   0.00000  Uiso   1.00
H985   H     0.89456   0.48562   0.88699   0.00000  Uiso   1.00
H986   H     0.77211   0.51438   0.61300   0.00000  Uiso   1.00
N987   N     0.83333   0.61736   0.75000   0.00000  Uiso   1.00
N988   N     0.83333   0.38264   0.75000   0.00000  Uiso   1.00
O989   O     0.77321   0.53958   0.74999   0.00000  Uiso   1.00
O990   O     0.89345   0.46042   0.75000   0.00000  Uiso   1.00
O991   O     0.89345   0.53958   0.75000   0.00000  Uiso   1.00
O992   O     0.77321   0.46042   0.74999   0.00000  Uiso   1.00
O993   O     0.83332   0.53960   0.68513   0.00000  Uiso   1.00
O994   O     0.83334   0.46040   0.81487   0.00000  Uiso   1.00
O995   O     0.83334   0.53960   0.81487   0.00000  Uiso   1.00
O996   O     0.83332   0.46040   0.68513   0.00000  Uiso   1.00
I997   I     0.73960   0.50229   0.86868   0.00000  Uiso   1.00
I998   I     0.92707   0.49771   0.63132   0.00000  Uiso   1.00
C999   C     0.72940   0.55617   0.95792   0.00000  Uiso   1.00
N1000  N     0.70312   0.57824   0.94229   0.00000  Uiso   1.00
C1001  C     0.93727   0.44383   0.54208   0.00000  Uiso   1.00
N1002  N     0.96354   0.42176   0.55771   0.00000  Uiso   1.00
I1003  I     0.70771   0.54392   0.55993   0.00000  Uiso   1.00
I1004  I     0.95896   0.45608   0.94007   0.00000  Uiso   1.00
C1005  C     0.70905   0.41751   0.77800   0.00000  Uiso   1.00
N1006  N     0.72540   0.38492   0.79269   0.00000  Uiso   1.00
C1007  C     0.95762   0.58249   0.72200   0.00000  Uiso   1.00
N1008  N     0.94126   0.61508   0.70731   0.00000  Uiso   1.00
C1009  C     0.96181   0.41189   0.74890   0.00000  Uiso   1.00
N1010  N     0.94811   0.37536   0.74498   0.00000  Uiso   1.00
C1011  C     0.70486   0.58811   0.75110   0.00000  Uiso   1.00
N1012  N     0.71856   0.62464   0.75502   0.00000  Uiso   1.00
C1013  C     0.78270   0.38383   0.69016   0.00000  Uiso   1.00
N1014  N     0.76109   0.40357   0.66569   0.00000  Uiso   1.00
C1015  C     0.88397   0.61617   0.80984   0.00000  Uiso   1.00
N1016  N     0.90557   0.59643   0.83431   0.00000  Uiso   1.00
C1017  C     0.88152   0.38136   0.81227   0.00000  Uiso   1.00
N1018  N     0.90152   0.39989   0.83847   0.00000  Uiso   1.00
C1019  C     0.78515   0.61864   0.68773   0.00000  Uiso   1.00
N1020  N     0.76515   0.60011   0.66153   0.00000  Uiso   1.00
C1021  C     0.08747   0.83371   0.75182   0.00000  Uiso   1.00
C1022  C     0.24586   0.83296   0.74818   0.00000  Uiso   1.00
C1023  C     0.09567   0.85858   0.52467   0.00000  Uiso   1.00
C1024  C     0.23766   0.80809   0.97533   0.00000  Uiso   1.00
C1025  C     0.02184   0.79215   0.76015   0.00000  Uiso   1.00
C1026  C     0.31149   0.87452   0.73985   0.00000  Uiso   1.00
C1027  C     0.31326   0.79065   0.75306   0.00000  Uiso   1.00
C1028  C     0.02008   0.87602   0.74694   0.00000  Uiso   1.00
C1029  C     0.29067   0.83240   0.74611   0.00000  Uiso   1.00
C1030  C     0.04266   0.83427   0.75389   0.00000  Uiso   1.00
C1031  C     0.14273   0.69203   0.72059   0.00000  Uiso   1.00
C1032  C     0.19060   0.97464   0.77941   0.00000  Uiso   1.00
C1033  C     0.19020   0.69087   0.77979   0.00000  Uiso   1.00
C1034  C     0.14314   0.97580   0.72021   0.00000  Uiso   1.00
C1035  C     0.16758   0.83334   0.66459   0.00000  Uiso   1.00
C1036  C     0.16575   0.83332   0.83541   0.00000  Uiso   1.00
C1037  C     0.20092   0.82514   0.90641   0.00000  Uiso   1.00
C1038  C     0.13241   0.84153   0.59359   0.00000  Uiso   1.00
C1039  C     0.16469   0.83357   0.88364   0.00000  Uiso   1.00
C1040  C     0.16864   0.83309   0.61636   0.00000  Uiso   1.00
C1041  C     0.12834   0.84200   0.90640   0.00000  Uiso   1.00
C1042  C     0.20499   0.82467   0.59360   0.00000  Uiso   1.00
C1043  C     0.12943   0.84635   0.95341   0.00000  Uiso   1.00
C1044  C     0.20391   0.82031   0.54659   0.00000  Uiso   1.00
C1045  C     0.16613   0.83383   0.97655   0.00000  Uiso   1.00
C1046  C     0.16720   0.83283   0.52345   0.00000  Uiso   1.00
C1047  C     0.20193   0.82272   0.95271   0.00000  Uiso   1.00
C1048  C     0.13141   0.84395   0.54729   0.00000  Uiso   1.00
C1049  C     0.09552   0.86246   0.97820   0.00000  Uiso   1.00
C1050  C     0.23781   0.80420   0.52180   0.00000  Uiso   1.00
Cu1051 Cu    0.16667   0.88022   0.75000   0.00000  Uiso   1.00
Cu1052 Cu    0.16667   0.78645   0.75000   0.00000  Uiso   1.00
H1053  H     0.22789   0.81895   0.88699   0.00000  Uiso   1.00
H1054  H     0.10545   0.84771   0.61300   0.00000  Uiso   1.00
N1055  N     0.16667   0.95069   0.75000   0.00000  Uiso   1.00
N1056  N     0.16667   0.71598   0.75000   0.00000  Uiso   1.00
O1057  O     0.10655   0.87291   0.74999   0.00000  Uiso   1.00
O1058  O     0.22679   0.79375   0.75000   0.00000  Uiso   1.00
O1059  O     0.22679   0.87291   0.75000   0.00000  Uiso   1.00
O1060  O     0.10655   0.79375   0.74999   0.00000  Uiso   1.00
O1061  O     0.16666   0.87293   0.68513   0.00000  Uiso   1.00
O1062  O     0.16668   0.79373   0.81487   0.00000  Uiso   1.00
O1063  O     0.16668   0.87293   0.81487   0.00000  Uiso   1.00
O1064  O     0.16666   0.79373   0.68513   0.00000  Uiso   1.00
I1065  I     0.07293   0.83562   0.86868   0.00000  Uiso   1.00
I1066  I     0.26040   0.83104   0.63132   0.00000  Uiso   1.00
C1067  C     0.06273   0.88950   0.95792   0.00000  Uiso   1.00
N1068  N     0.03646   0.91157   0.94229   0.00000  Uiso   1.00
C1069  C     0.27060   0.77716   0.54208   0.00000  Uiso   1.00
N1070  N     0.29688   0.75510   0.55771   0.00000  Uiso   1.00
I1071  I     0.04104   0.87725   0.55993   0.00000  Uiso   1.00
I1072  I     0.29229   0.78941   0.94007   0.00000  Uiso   1.00
C1073  C     0.04238   0.75085   0.77800   0.00000  Uiso   1.00
N1074  N     0.05874   0.71826   0.79269   0.00000  Uiso   1.00
C1075  C     0.29095   0.91582   0.72200   0.00000  Uiso   1.00
N1076  N     0.27460   0.94841   0.70731   0.00000  Uiso   1.00
C1077  C     0.29515   0.74523   0.74890   0.00000  Uiso   1.00
N1078  N     0.28144   0.70869   0.74498   0.00000  Uiso   1.00
C1079  C     0.03819   0.92144   0.75110   0.00000  Uiso   1.00
N1080  N     0.05189   0.95798   0.75502   0.00000  Uiso   1.00
C1081  C     0.11603   0.71716   0.69016   0.00000  Uiso   1.00
N1082  N     0.09443   0.73690   0.66569   0.00000  Uiso   1.00
C1083  C     0.21730   0.94950   0.80984   0.00000  Uiso   1.00
N1084  N     0.23891   0.92977   0.83431   0.00000  Uiso   1.00
C1085  C     0.21485   0.71469   0.81227   0.00000  Uiso   1.00
N1086  N     0.23485   0.73322   0.83847   0.00000  Uiso   1.00
C1087  C     0.11848   0.95197   0.68773   0.00000  Uiso   1.00
N1088  N     0.09848   0.93345   0.66153   0.00000  Uiso   1.00
C1089  C     0.42080   0.83371   0.75182   0.00000  Uiso   1.00
C1090  C     0.57920   0.83296   0.74818   0.00000  Uiso   1.00
C1091  C     0.42900   0.85858   0.52467   0.00000  Uiso   1.00
C1092  C     0.57100   0.80809   0.97533   0.00000  Uiso   1.00
C1093  C     0.35517   0.79215   0.76015   0.00000  Uiso   1.00
C1094  C     0.64483   0.87452   0.73985   0.00000  Uiso   1.00
C1095  C     0.64659   0.79065   0.75306   0.00000  Uiso   1.00
C1096  C     0.35341   0.87602   0.74694   0.00000  Uiso   1.00
C1097  C     0.62401   0.83240   0.74611   0.00000  Uiso   1.00
C1098  C     0.37599   0.83427   0.75389   0.00000  Uiso   1.00
C1099  C     0.47607   0.69203   0.72059   0.00000  Uiso   1.00
C1100  C     0.52393   0.97464   0.77941   0.00000  Uiso   1.00
C1101  C     0.52353   0.69087   0.77979   0.00000  Uiso   1.00
C1102  C     0.47647   0.97580   0.72021   0.00000  Uiso   1.00
C1103  C     0.50092   0.83334   0.66459   0.00000  Uiso   1.00
C1104  C     0.49908   0.83332   0.83541   0.00000  Uiso   1.00
C1105  C     0.53425   0.82514   0.90641   0.00000  Uiso   1.00
C1106  C     0.46575   0.84153   0.59359   0.00000  Uiso   1.00
C1107  C     0.49803   0.83357   0.88364   0.00000  Uiso   1.00
C1108  C     0.50197   0.83309   0.61636   0.00000  Uiso   1.00
C1109  C     0.46168   0.84200   0.90640   0.00000  Uiso   1.00
C1110  C     0.53832   0.82467   0.59360   0.00000  Uiso   1.00
C1111  C     0.46276   0.84635   0.95341   0.00000  Uiso   1.00
C1112  C     0.53724   0.82031   0.54659   0.00000  Uiso   1.00
C1113  C     0.49946   0.83383   0.97655   0.00000  Uiso   1.00
C1114  C     0.50054   0.83283   0.52345   0.00000  Uiso   1.00
C1115  C     0.53526   0.82272   0.95271   0.00000  Uiso   1.00
C1116  C     0.46474   0.84395   0.54729   0.00000  Uiso   1.00
C1117  C     0.42885   0.86246   0.97820   0.00000  Uiso   1.00
C1118  C     0.57115   0.80420   0.52180   0.00000  Uiso   1.00
Cu1119 Cu    0.50000   0.88022   0.75000   0.00000  Uiso   1.00
Cu1120 Cu    0.50000   0.78645   0.75000   0.00000  Uiso   1.00
H1121  H     0.56122   0.81895   0.88699   0.00000  Uiso   1.00
H1122  H     0.43878   0.84771   0.61300   0.00000  Uiso   1.00
N1123  N     0.50000   0.95069   0.75000   0.00000  Uiso   1.00
N1124  N     0.50000   0.71598   0.75000   0.00000  Uiso   1.00
O1125  O     0.43988   0.87291   0.74999   0.00000  Uiso   1.00
O1126  O     0.56012   0.79375   0.75000   0.00000  Uiso   1.00
O1127  O     0.56012   0.87291   0.75000   0.00000  Uiso   1.00
O1128  O     0.43988   0.79375   0.74999   0.00000  Uiso   1.00
O1129  O     0.49999   0.87293   0.68513   0.00000  Uiso   1.00
O1130  O     0.50001   0.79373   0.81487   0.00000  Uiso   1.00
O1131  O     0.50001   0.87293   0.81487   0.00000  Uiso   1.00
O1132  O     0.49999   0.79373   0.68513   0.00000  Uiso   1.00
I1133  I     0.40627   0.83562   0.86868   0.00000  Uiso   1.00
I1134  I     0.59374   0.83104   0.63132   0.00000  Uiso   1.00
C1135  C     0.39607   0.88950   0.95792   0.00000  Uiso   1.00
N1136  N     0.36979   0.91157   0.94229   0.00000  Uiso   1.00
C1137  C     0.60393   0.77716   0.54208   0.00000  Uiso   1.00
N1138  N     0.63021   0.75510   0.55771   0.00000  Uiso   1.00
I1139  I     0.37438   0.87725   0.55993   0.00000  Uiso   1.00
I1140  I     0.62562   0.78941   0.94007   0.00000  Uiso   1.00
C1141  C     0.37571   0.75085   0.77800   0.00000  Uiso   1.00
N1142  N     0.39207   0.71826   0.79269   0.00000  Uiso   1.00
C1143  C     0.62429   0.91582   0.72200   0.00000  Uiso   1.00
N1144  N     0.60793   0.94841   0.70731   0.00000  Uiso   1.00
C1145  C     0.62848   0.74523   0.74890   0.00000  Uiso   1.00
N1146  N     0.61477   0.70869   0.74498   0.00000  Uiso   1.00
C1147  C     0.37152   0.92144   0.75110   0.00000  Uiso   1.00
N1148  N     0.38523   0.95798   0.75502   0.00000  Uiso   1.00
C1149  C     0.44936   0.71716   0.69016   0.00000  Uiso   1.00
N1150  N     0.42776   0.73690   0.66569   0.00000  Uiso   1.00
C1151  C     0.55064   0.94950   0.80984   0.00000  Uiso   1.00
N1152  N     0.57224   0.92977   0.83431   0.00000  Uiso   1.00
C1153  C     0.54819   0.71469   0.81227   0.00000  Uiso   1.00
N1154  N     0.56819   0.73322   0.83847   0.00000  Uiso   1.00
C1155  C     0.45182   0.95197   0.68773   0.00000  Uiso   1.00
N1156  N     0.43181   0.93345   0.66153   0.00000  Uiso   1.00
C1157  C     0.75414   0.83371   0.75182   0.00000  Uiso   1.00
C1158  C     0.91253   0.83296   0.74818   0.00000  Uiso   1.00
C1159  C     0.76234   0.85858   0.52467   0.00000  Uiso   1.00
C1160  C     0.90433   0.80809   0.97533   0.00000  Uiso   1.00
C1161  C     0.68851   0.79215   0.76015   0.00000  Uiso   1.00
C1162  C     0.97816   0.87452   0.73985   0.00000  Uiso   1.00
C1163  C     0.97992   0.79065   0.75306   0.00000  Uiso   1.00
C1164  C     0.68674   0.87602   0.74694   0.00000  Uiso   1.00
C1165  C     0.95734   0.83240   0.74611   0.00000  Uiso   1.00
C1166  C     0.70933   0.83427   0.75389   0.00000  Uiso   1.00
C1167  C     0.80940   0.69203   0.72059   0.00000  Uiso   1.00
C1168  C     0.85727   0.97464   0.77941   0.00000  Uiso   1.00
C1169  C     0.85686   0.69087   0.77979   0.00000  Uiso   1.00
C1170  C     0.80980   0.97580   0.72021   0.00000  Uiso   1.00
C1171  C     0.83425   0.83334   0.66459   0.00000  Uiso   1.00
C1172  C     0.83242   0.83332   0.83541   0.00000  Uiso   1.00
C1173  C     0.86759   0.82514   0.90641   0.00000  Uiso   1.00
C1174  C     0.79908   0.84153   0.59359   0.00000  Uiso   1.00
C1175  C     0.83136   0.83357   0.88364   0.00000  Uiso   1.00
C1176  C     0.83531   0.83309   0.61636   0.00000  Uiso   1.00
C1177  C     0.79501   0.84200   0.90640   0.00000  Uiso   1.00
C1178  C     0.87166   0.82467   0.59360   0.00000  Uiso   1.00
C1179  C     0.79609   0.84635   0.95341   0.00000  Uiso   1.00
C1180  C     0.87057   0.82031   0.54659   0.00000  Uiso   1.00
C1181  C     0.83280   0.83383   0.97655   0.00000  Uiso   1.00
C1182  C     0.83387   0.83283   0.52345   0.00000  Uiso   1.00
C1183  C     0.86859   0.82272   0.95271   0.00000  Uiso   1.00
C1184  C     0.79807   0.84395   0.54729   0.00000  Uiso   1.00
C1185  C     0.76219   0.86246   0.97820   0.00000  Uiso   1.00
C1186  C     0.90448   0.80420   0.52180   0.00000  Uiso   1.00
Cu1187 Cu    0.83333   0.88022   0.75000   0.00000  Uiso   1.00
Cu1188 Cu    0.83333   0.78645   0.75000   0.00000  Uiso   1.00
H1189  H     0.89456   0.81895   0.88699   0.00000  Uiso   1.00
H1190  H     0.77211   0.84771   0.61300   0.00000  Uiso   1.00
N1191  N     0.83333   0.95069   0.75000   0.00000  Uiso   1.00
N1192  N     0.83333   0.71598   0.75000   0.00000  Uiso   1.00
O1193  O     0.77321   0.87291   0.74999   0.00000  Uiso   1.00
O1194  O     0.89345   0.79375   0.75000   0.00000  Uiso   1.00
O1195  O     0.89345   0.87291   0.75000   0.00000  Uiso   1.00
O1196  O     0.77321   0.79375   0.74999   0.00000  Uiso   1.00
O1197  O     0.83332   0.87293   0.68513   0.00000  Uiso   1.00
O1198  O     0.83334   0.79373   0.81487   0.00000  Uiso   1.00
O1199  O     0.83334   0.87293   0.81487   0.00000  Uiso   1.00
O1200  O     0.83332   0.79373   0.68513   0.00000  Uiso   1.00
I1201  I     0.73960   0.83562   0.86868   0.00000  Uiso   1.00
I1202  I     0.92707   0.83104   0.63132   0.00000  Uiso   1.00
C1203  C     0.72940   0.88950   0.95792   0.00000  Uiso   1.00
N1204  N     0.70312   0.91157   0.94229   0.00000  Uiso   1.00
C1205  C     0.93727   0.77716   0.54208   0.00000  Uiso   1.00
N1206  N     0.96354   0.75510   0.55771   0.00000  Uiso   1.00
I1207  I     0.70771   0.87725   0.55993   0.00000  Uiso   1.00
I1208  I     0.95896   0.78941   0.94007   0.00000  Uiso   1.00
C1209  C     0.70905   0.75085   0.77800   0.00000  Uiso   1.00
N1210  N     0.72540   0.71826   0.79269   0.00000  Uiso   1.00
C1211  C     0.95762   0.91582   0.72200   0.00000  Uiso   1.00
N1212  N     0.94126   0.94841   0.70731   0.00000  Uiso   1.00
C1213  C     0.96181   0.74523   0.74890   0.00000  Uiso   1.00
N1214  N     0.94811   0.70869   0.74498   0.00000  Uiso   1.00
C1215  C     0.70486   0.92144   0.75110   0.00000  Uiso   1.00
N1216  N     0.71856   0.95798   0.75502   0.00000  Uiso   1.00
C1217  C     0.78270   0.71716   0.69016   0.00000  Uiso   1.00
N1218  N     0.76109   0.73690   0.66569   0.00000  Uiso   1.00
C1219  C     0.88397   0.94950   0.80984   0.00000  Uiso   1.00
N1220  N     0.90557   0.92977   0.83431   0.00000  Uiso   1.00
C1221  C     0.88152   0.71469   0.81227   0.00000  Uiso   1.00
N1222  N     0.90152   0.73322   0.83847   0.00000  Uiso   1.00
C1223  C     0.78515   0.95197   0.68773   0.00000  Uiso   1.00
N1224  N     0.76515   0.93345   0.66153   0.00000  Uiso   1.00
loop_
_geom_bond_atom_site_label_1
_geom_bond_atom_site_label_2
_geom_bond_distance
_geom_bond_site_symmetry_2
_ccdc_geom_bond_type
C1     O37     1.300   .     A
C1     O40     1.302   .     A
C1     C10     1.475   .     S
C2     C9      1.475   .     S
C2     O38     1.300   .     A
C2     O39     1.302   .     A
C3     I51     2.158   .     S
C3     C28     1.409   .     A
C3     C641    1.402   1_554 S
C4     I52     2.158   .     S
C4     C27     1.409   .     A
C4     C642    1.402   .     S
C5     C10     1.414   .     A
C5     C53     1.455   .     S
C5     C143    1.393   1_455 S
C6     C55     1.455   .     S
C6     C9      1.414   .     A
C6     C76     1.393   .     S
C7     C9      1.415   .     A
C7     C57     1.450   .     S
C7     C73     1.393   .     S
C8     C59     1.450   .     S
C8     C10     1.415   .     A
C8     C142    1.393   1_455 S
C11    C61     1.445   .     S
C11    N36     1.372   .     A
C11    C422    1.426   1_545 S
C12    N35     1.372   .     A
C12    C63     1.445   .     S
C12    C217    1.426   .     S
C13    C65     1.444   .     S
C13    N36     1.373   .     A
C13    C420    1.426   1_545 S
C14    C67     1.444   .     S
C14    N35     1.373   .     A
C14    C215    1.426   .     S
C15    C20     1.452   .     S
C15    O44     1.295   .     A
C15    O41     1.298   .     A
C16    O43     1.295   .     A
C16    C19     1.452   .     S
C16    O42     1.298   .     A
C17    H33     1.080   .     S
C17    C27     1.394   .     A
C17    C19     1.385   .     A
C18    C20     1.385   .     A
C18    H34     1.080   .     S
C18    C28     1.394   .     A
C19    C21     1.402   .     A
C20    C22     1.402   .     A
C21    I45     2.146   .     S
C21    C23     1.420   .     A
C22    I46     2.146   .     S
C22    C24     1.420   .     A
C23    C25     1.427   .     A
C23    C29     1.421   .     A
C24    C30     1.421   .     A
C24    C26     1.427   .     A
C25    C27     1.418   .     A
C25    C638    1.411   .     S
C26    C28     1.418   .     A
C26    C637    1.411   1_554 S
C29    C47     1.447   .     S
C29    C615    1.402   .     S
C30    C49     1.447   .     S
C30    C616    1.402   1_554 S
Cu31   O37     1.991   .     S
Cu31   O39     1.984   .     S
Cu31   Cu32    2.697   .     S
Cu31   O43     1.962   .     S
Cu31   N35     2.027   .     S
Cu31   O41     1.964   .     S
Cu32   O38     1.991   .     S
Cu32   O40     1.984   .     S
Cu32   O44     1.962   .     S
Cu32   N36     2.027   .     S
Cu32   O42     1.964   .     S
C47    N48     1.158   .     T
C49    N50     1.158   .     T
C53    N54     1.157   .     T
C55    N56     1.157   .     T
C57    N58     1.156   .     T
C59    N60     1.156   .     T
C61    N62     1.158   .     T
C63    N64     1.158   .     T
C65    N66     1.158   .     T
C67    N68     1.158   .     T
C69    O105    1.300   .     A
C69    O108    1.302   .     A
C69    C78     1.475   .     S
C70    C77     1.475   .     S
C70    O106    1.300   .     A
C70    O107    1.302   .     A
C71    I119    2.158   .     S
C71    C96     1.409   .     A
C71    C709    1.402   1_554 S
C72    I120    2.158   .     S
C72    C95     1.409   .     A
C72    C710    1.402   .     S
C73    C78     1.414   .     A
C73    C121    1.455   .     S
C74    C123    1.455   .     S
C74    C77     1.414   .     A
C74    C144    1.393   .     S
C75    C77     1.415   .     A
C75    C125    1.450   .     S
C75    C141    1.393   .     S
C76    C127    1.450   .     S
C76    C78     1.415   .     A
C79    C129    1.445   .     S
C79    N104    1.372   .     A
C79    C490    1.426   1_545 S
C80    N103    1.372   .     A
C80    C131    1.445   .     S
C80    C285    1.426   .     S
C81    C133    1.444   .     S
C81    N104    1.373   .     A
C81    C488    1.426   1_545 S
C82    C135    1.444   .     S
C82    N103    1.373   .     A
C82    C283    1.426   .     S
C83    C88     1.452   .     S
C83    O112    1.295   .     A
C83    O109    1.298   .     A
C84    O111    1.295   .     A
C84    C87     1.452   .     S
C84    O110    1.298   .     A
C85    H101    1.080   .     S
C85    C95     1.394   .     A
C85    C87     1.385   .     A
C86    C88     1.385   .     A
C86    H102    1.080   .     S
C86    C96     1.394   .     A
C87    C89     1.402   .     A
C88    C90     1.402   .     A
C89    I113    2.146   .     S
C89    C91     1.420   .     A
C90    I114    2.146   .     S
C90    C92     1.420   .     A
C91    C93     1.427   .     A
C91    C97     1.421   .     A
C92    C98     1.421   .     A
C92    C94     1.427   .     A
C93    C95     1.418   .     A
C93    C706    1.411   .     S
C94    C96     1.418   .     A
C94    C705    1.411   1_554 S
C97    C115    1.447   .     S
C97    C683    1.402   .     S
C98    C117    1.447   .     S
C98    C684    1.402   1_554 S
Cu99   O105    1.991   .     S
Cu99   O107    1.984   .     S
Cu99   Cu100   2.697   .     S
Cu99   O111    1.962   .     S
Cu99   N103    2.027   .     S
Cu99   O109    1.964   .     S
Cu100  O106    1.991   .     S
Cu100  O108    1.984   .     S
Cu100  O112    1.962   .     S
Cu100  N104    2.027   .     S
Cu100  O110    1.964   .     S
C115   N116    1.158   .     T
C117   N118    1.158   .     T
C121   N122    1.157   .     T
C123   N124    1.157   .     T
C125   N126    1.156   .     T
C127   N128    1.156   .     T
C129   N130    1.158   .     T
C131   N132    1.158   .     T
C133   N134    1.158   .     T
C135   N136    1.158   .     T
C137   O173    1.300   .     A
C137   O176    1.302   .     A
C137   C146    1.475   .     S
C138   C145    1.475   .     S
C138   O174    1.300   .     A
C138   O175    1.302   .     A
C139   I187    2.158   .     S
C139   C164    1.409   .     A
C139   C777    1.402   1_554 S
C140   I188    2.158   .     S
C140   C163    1.409   .     A
C140   C778    1.402   .     S
C141   C146    1.414   .     A
C141   C189    1.455   .     S
C142   C191    1.455   .     S
C142   C145    1.414   .     A
C142   C8      1.393   1_655 S
C143   C145    1.415   .     A
C143   C193    1.450   .     S
C143   C5      1.393   1_655 S
C144   C195    1.450   .     S
C144   C146    1.415   .     A
C147   C197    1.445   .     S
C147   N172    1.372   .     A
C147   C558    1.426   1_545 S
C148   N171    1.372   .     A
C148   C199    1.445   .     S
C148   C353    1.426   .     S
C149   C201    1.444   .     S
C149   N172    1.373   .     A
C149   C556    1.426   1_545 S
C150   C203    1.444   .     S
C150   N171    1.373   .     A
C150   C351    1.426   .     S
C151   C156    1.452   .     S
C151   O180    1.295   .     A
C151   O177    1.298   .     A
C152   O179    1.295   .     A
C152   C155    1.452   .     S
C152   O178    1.298   .     A
C153   H169    1.080   .     S
C153   C163    1.394   .     A
C153   C155    1.385   .     A
C154   C156    1.385   .     A
C154   H170    1.080   .     S
C154   C164    1.394   .     A
C155   C157    1.402   .     A
C156   C158    1.402   .     A
C157   I181    2.146   .     S
C157   C159    1.420   .     A
C158   I182    2.146   .     S
C158   C160    1.420   .     A
C159   C161    1.427   .     A
C159   C165    1.421   .     A
C160   C166    1.421   .     A
C160   C162    1.427   .     A
C161   C163    1.418   .     A
C161   C774    1.411   .     S
C162   C164    1.418   .     A
C162   C773    1.411   1_554 S
C165   C183    1.447   .     S
C165   C751    1.402   .     S
C166   C185    1.447   .     S
C166   C752    1.402   1_554 S
Cu167  O173    1.991   .     S
Cu167  O175    1.984   .     S
Cu167  Cu168   2.697   .     S
Cu167  O179    1.962   .     S
Cu167  N171    2.027   .     S
Cu167  O177    1.964   .     S
Cu168  O174    1.991   .     S
Cu168  O176    1.984   .     S
Cu168  O180    1.962   .     S
Cu168  N172    2.027   .     S
Cu168  O178    1.964   .     S
C183   N184    1.158   .     T
C185   N186    1.158   .     T
C189   N190    1.157   .     T
C191   N192    1.157   .     T
C193   N194    1.156   .     T
C195   N196    1.156   .     T
C197   N198    1.158   .     T
C199   N200    1.158   .     T
C201   N202    1.158   .     T
C203   N204    1.158   .     T
C205   O241    1.300   .     A
C205   O244    1.302   .     A
C205   C214    1.475   .     S
C206   C213    1.475   .     S
C206   O242    1.300   .     A
C206   O243    1.302   .     A
C207   I255    2.158   .     S
C207   C232    1.409   .     A
C207   C845    1.402   1_554 S
C208   I256    2.158   .     S
C208   C231    1.409   .     A
C208   C846    1.402   .     S
C209   C214    1.414   .     A
C209   C257    1.455   .     S
C209   C347    1.393   1_455 S
C210   C259    1.455   .     S
C210   C213    1.414   .     A
C210   C280    1.393   .     S
C211   C213    1.415   .     A
C211   C261    1.450   .     S
C211   C277    1.393   .     S
C212   C263    1.450   .     S
C212   C214    1.415   .     A
C212   C346    1.393   1_455 S
C215   C265    1.445   .     S
C215   N240    1.372   .     A
C216   N239    1.372   .     A
C216   C267    1.445   .     S
C216   C421    1.426   .     S
C217   C269    1.444   .     S
C217   N240    1.373   .     A
C218   C271    1.444   .     S
C218   N239    1.373   .     A
C218   C419    1.426   .     S
C219   C224    1.452   .     S
C219   O248    1.295   .     A
C219   O245    1.298   .     A
C220   O247    1.295   .     A
C220   C223    1.452   .     S
C220   O246    1.298   .     A
C221   H237    1.080   .     S
C221   C231    1.394   .     A
C221   C223    1.385   .     A
C222   C224    1.385   .     A
C222   H238    1.080   .     S
C222   C232    1.394   .     A
C223   C225    1.402   .     A
C224   C226    1.402   .     A
C225   I249    2.146   .     S
C225   C227    1.420   .     A
C226   I250    2.146   .     S
C226   C228    1.420   .     A
C227   C229    1.427   .     A
C227   C233    1.421   .     A
C228   C234    1.421   .     A
C228   C230    1.427   .     A
C229   C231    1.418   .     A
C229   C842    1.411   .     S
C230   C232    1.418   .     A
C230   C841    1.411   1_554 S
C233   C251    1.447   .     S
C233   C819    1.402   .     S
C234   C253    1.447   .     S
C234   C820    1.402   1_554 S
Cu235  O241    1.991   .     S
Cu235  O243    1.984   .     S
Cu235  Cu236   2.697   .     S
Cu235  O247    1.962   .     S
Cu235  N239    2.027   .     S
Cu235  O245    1.964   .     S
Cu236  O242    1.991   .     S
Cu236  O244    1.984   .     S
Cu236  O248    1.962   .     S
Cu236  N240    2.027   .     S
Cu236  O246    1.964   .     S
C251   N252    1.158   .     T
C253   N254    1.158   .     T
C257   N258    1.157   .     T
C259   N260    1.157   .     T
C261   N262    1.156   .     T
C263   N264    1.156   .     T
C265   N266    1.158   .     T
C267   N268    1.158   .     T
C269   N270    1.158   .     T
C271   N272    1.158   .     T
C273   O309    1.300   .     A
C273   O312    1.302   .     A
C273   C282    1.475   .     S
C274   C281    1.475   .     S
C274   O310    1.300   .     A
C274   O311    1.302   .     A
C275   I323    2.158   .     S
C275   C300    1.409   .     A
C275   C913    1.402   1_554 S
C276   I324    2.158   .     S
C276   C299    1.409   .     A
C276   C914    1.402   .     S
C277   C282    1.414   .     A
C277   C325    1.455   .     S
C278   C327    1.455   .     S
C278   C281    1.414   .     A
C278   C348    1.393   .     S
C279   C281    1.415   .     A
C279   C329    1.450   .     S
C279   C345    1.393   .     S
C280   C331    1.450   .     S
C280   C282    1.415   .     A
C283   C333    1.445   .     S
C283   N308    1.372   .     A
C284   N307    1.372   .     A
C284   C335    1.445   .     S
C284   C489    1.426   .     S
C285   C337    1.444   .     S
C285   N308    1.373   .     A
C286   C339    1.444   .     S
C286   N307    1.373   .     A
C286   C487    1.426   .     S
C287   C292    1.452   .     S
C287   O316    1.295   .     A
C287   O313    1.298   .     A
C288   O315    1.295   .     A
C288   C291    1.452   .     S
C288   O314    1.298   .     A
C289   H305    1.080   .     S
C289   C299    1.394   .     A
C289   C291    1.385   .     A
C290   C292    1.385   .     A
C290   H306    1.080   .     S
C290   C300    1.394   .     A
C291   C293    1.402   .     A
C292   C294    1.402   .     A
C293   I317    2.146   .     S
C293   C295    1.420   .     A
C294   I318    2.146   .     S
C294   C296    1.420   .     A
C295   C297    1.427   .     A
C295   C301    1.421   .     A
C296   C302    1.421   .     A
C296   C298    1.427   .     A
C297   C299    1.418   .     A
C297   C910    1.411   .     S
C298   C300    1.418   .     A
C298   C909    1.411   1_554 S
C301   C319    1.447   .     S
C301   C887    1.402   .     S
C302   C321    1.447   .     S
C302   C888    1.402   1_554 S
Cu303  O309    1.991   .     S
Cu303  O311    1.984   .     S
Cu303  Cu304   2.697   .     S
Cu303  O315    1.962   .     S
Cu303  N307    2.027   .     S
Cu303  O313    1.964   .     S
Cu304  O310    1.991   .     S
Cu304  O312    1.984   .     S
Cu304  O316    1.962   .     S
Cu304  N308    2.027   .     S
Cu304  O314    1.964   .     S
C319   N320    1.158   .     T
C321   N322    1.158   .     T
C325   N326    1.157   .     T
C327   N328    1.157   .     T
C329   N330    1.156   .     T
C331   N332    1.156   .     T
C333   N334    1.158   .     T
C335   N336    1.158   .     T
C337   N338    1.158   .     T
C339   N340    1.158   .     T
C341   O377    1.300   .     A
C341   O380    1.302   .     A
C341   C350    1.475   .     S
C342   C349    1.475   .     S
C342   O378    1.300   .     A
C342   O379    1.302   .     A
C343   I391    2.158   .     S
C343   C368    1.409   .     A
C343   C981    1.402   1_554 S
C344   I392    2.158   .     S
C344   C367    1.409   .     A
C344   C982    1.402   .     S
C345   C350    1.414   .     A
C345   C393    1.455   .     S
C346   C395    1.455   .     S
C346   C349    1.414   .     A
C346   C212    1.393   1_655 S
C347   C349    1.415   .     A
C347   C397    1.450   .     S
C347   C209    1.393   1_655 S
C348   C399    1.450   .     S
C348   C350    1.415   .     A
C351   C401    1.445   .     S
C351   N376    1.372   .     A
C352   N375    1.372   .     A
C352   C403    1.445   .     S
C352   C557    1.426   .     S
C353   C405    1.444   .     S
C353   N376    1.373   .     A
C354   C407    1.444   .     S
C354   N375    1.373   .     A
C354   C555    1.426   .     S
C355   C360    1.452   .     S
C355   O384    1.295   .     A
C355   O381    1.298   .     A
C356   O383    1.295   .     A
C356   C359    1.452   .     S
C356   O382    1.298   .     A
C357   H373    1.080   .     S
C357   C367    1.394   .     A
C357   C359    1.385   .     A
C358   C360    1.385   .     A
C358   H374    1.080   .     S
C358   C368    1.394   .     A
C359   C361    1.402   .     A
C360   C362    1.402   .     A
C361   I385    2.146   .     S
C361   C363    1.420   .     A
C362   I386    2.146   .     S
C362   C364    1.420   .     A
C363   C365    1.427   .     A
C363   C369    1.421   .     A
C364   C370    1.421   .     A
C364   C366    1.427   .     A
C365   C367    1.418   .     A
C365   C978    1.411   .     S
C366   C368    1.418   .     A
C366   C977    1.411   1_554 S
C369   C387    1.447   .     S
C369   C955    1.402   .     S
C370   C389    1.447   .     S
C370   C956    1.402   1_554 S
Cu371  O377    1.991   .     S
Cu371  O379    1.984   .     S
Cu371  Cu372   2.697   .     S
Cu371  O383    1.962   .     S
Cu371  N375    2.027   .     S
Cu371  O381    1.964   .     S
Cu372  O378    1.991   .     S
Cu372  O380    1.984   .     S
Cu372  O384    1.962   .     S
Cu372  N376    2.027   .     S
Cu372  O382    1.964   .     S
C387   N388    1.158   .     T
C389   N390    1.158   .     T
C393   N394    1.157   .     T
C395   N396    1.157   .     T
C397   N398    1.156   .     T
C399   N400    1.156   .     T
C401   N402    1.158   .     T
C403   N404    1.158   .     T
C405   N406    1.158   .     T
C407   N408    1.158   .     T
C409   O445    1.300   .     A
C409   O448    1.302   .     A
C409   C418    1.475   .     S
C410   C417    1.475   .     S
C410   O446    1.300   .     A
C410   O447    1.302   .     A
C411   I459    2.158   .     S
C411   C436    1.409   .     A
C411   C1049   1.402   1_554 S
C412   I460    2.158   .     S
C412   C435    1.409   .     A
C412   C1050   1.402   .     S
C413   C418    1.414   .     A
C413   C461    1.455   .     S
C413   C551    1.393   1_455 S
C414   C463    1.455   .     S
C414   C417    1.414   .     A
C414   C484    1.393   .     S
C415   C417    1.415   .     A
C415   C465    1.450   .     S
C415   C481    1.393   .     S
C416   C467    1.450   .     S
C416   C418    1.415   .     A
C416   C550    1.393   1_455 S
C419   C469    1.445   .     S
C419   N444    1.372   .     A
C420   N443    1.372   .     A
C420   C471    1.445   .     S
C420   C13     1.426   1_565 S
C421   C473    1.444   .     S
C421   N444    1.373   .     A
C422   C475    1.444   .     S
C422   N443    1.373   .     A
C422   C11     1.426   1_565 S
C423   C428    1.452   .     S
C423   O452    1.295   .     A
C423   O449    1.298   .     A
C424   O451    1.295   .     A
C424   C427    1.452   .     S
C424   O450    1.298   .     A
C425   H441    1.080   .     S
C425   C435    1.394   .     A
C425   C427    1.385   .     A
C426   C428    1.385   .     A
C426   H442    1.080   .     S
C426   C436    1.394   .     A
C427   C429    1.402   .     A
C428   C430    1.402   .     A
C429   I453    2.146   .     S
C429   C431    1.420   .     A
C430   I454    2.146   .     S
C430   C432    1.420   .     A
C431   C433    1.427   .     A
C431   C437    1.421   .     A
C432   C438    1.421   .     A
C432   C434    1.427   .     A
C433   C435    1.418   .     A
C433   C1046   1.411   .     S
C434   C436    1.418   .     A
C434   C1045   1.411   1_554 S
C437   C455    1.447   .     S
C437   C1023   1.402   .     S
C438   C457    1.447   .     S
C438   C1024   1.402   1_554 S
Cu439  O445    1.991   .     S
Cu439  O447    1.984   .     S
Cu439  Cu440   2.697   .     S
Cu439  O451    1.962   .     S
Cu439  N443    2.027   .     S
Cu439  O449    1.964   .     S
Cu440  O446    1.991   .     S
Cu440  O448    1.984   .     S
Cu440  O452    1.962   .     S
Cu440  N444    2.027   .     S
Cu440  O450    1.964   .     S
C455   N456    1.158   .     T
C457   N458    1.158   .     T
C461   N462    1.157   .     T
C463   N464    1.157   .     T
C465   N466    1.156   .     T
C467   N468    1.156   .     T
C469   N470    1.158   .     T
C471   N472    1.158   .     T
C473   N474    1.158   .     T
C475   N476    1.158   .     T
C477   O513    1.300   .     A
C477   O516    1.302   .     A
C477   C486    1.475   .     S
C478   C485    1.475   .     S
C478   O514    1.300   .     A
C478   O515    1.302   .     A
C479   I527    2.158   .     S
C479   C504    1.409   .     A
C479   C1117   1.402   1_554 S
C480   I528    2.158   .     S
C480   C503    1.409   .     A
C480   C1118   1.402   .     S
C481   C486    1.414   .     A
C481   C529    1.455   .     S
C482   C531    1.455   .     S
C482   C485    1.414   .     A
C482   C552    1.393   .     S
C483   C485    1.415   .     A
C483   C533    1.450   .     S
C483   C549    1.393   .     S
C484   C535    1.450   .     S
C484   C486    1.415   .     A
C487   C537    1.445   .     S
C487   N512    1.372   .     A
C488   N511    1.372   .     A
C488   C539    1.445   .     S
C488   C81     1.426   1_565 S
C489   C541    1.444   .     S
C489   N512    1.373   .     A
C490   C543    1.444   .     S
C490   N511    1.373   .     A
C490   C79     1.426   1_565 S
C491   C496    1.452   .     S
C491   O520    1.295   .     A
C491   O517    1.298   .     A
C492   O519    1.295   .     A
C492   C495    1.452   .     S
C492   O518    1.298   .     A
C493   H509    1.080   .     S
C493   C503    1.394   .     A
C493   C495    1.385   .     A
C494   C496    1.385   .     A
C494   H510    1.080   .     S
C494   C504    1.394   .     A
C495   C497    1.402   .     A
C496   C498    1.402   .     A
C497   I521    2.146   .     S
C497   C499    1.420   .     A
C498   I522    2.146   .     S
C498   C500    1.420   .     A
C499   C501    1.427   .     A
C499   C505    1.421   .     A
C500   C506    1.421   .     A
C500   C502    1.427   .     A
C501   C503    1.418   .     A
C501   C1114   1.411   .     S
C502   C504    1.418   .     A
C502   C1113   1.411   1_554 S
C505   C523    1.447   .     S
C505   C1091   1.402   .     S
C506   C525    1.447   .     S
C506   C1092   1.402   1_554 S
Cu507  O513    1.991   .     S
Cu507  O515    1.984   .     S
Cu507  Cu508   2.697   .     S
Cu507  O519    1.962   .     S
Cu507  N511    2.027   .     S
Cu507  O517    1.964   .     S
Cu508  O514    1.991   .     S
Cu508  O516    1.984   .     S
Cu508  O520    1.962   .     S
Cu508  N512    2.027   .     S
Cu508  O518    1.964   .     S
C523   N524    1.158   .     T
C525   N526    1.158   .     T
C529   N530    1.157   .     T
C531   N532    1.157   .     T
C533   N534    1.156   .     T
C535   N536    1.156   .     T
C537   N538    1.158   .     T
C539   N540    1.158   .     T
C541   N542    1.158   .     T
C543   N544    1.158   .     T
C545   O581    1.300   .     A
C545   O584    1.302   .     A
C545   C554    1.475   .     S
C546   C553    1.475   .     S
C546   O582    1.300   .     A
C546   O583    1.302   .     A
C547   I595    2.158   .     S
C547   C572    1.409   .     A
C547   C1185   1.402   1_554 S
C548   I596    2.158   .     S
C548   C571    1.409   .     A
C548   C1186   1.402   .     S
C549   C554    1.414   .     A
C549   C597    1.455   .     S
C550   C599    1.455   .     S
C550   C553    1.414   .     A
C550   C416    1.393   1_655 S
C551   C553    1.415   .     A
C551   C601    1.450   .     S
C551   C413    1.393   1_655 S
C552   C603    1.450   .     S
C552   C554    1.415   .     A
C555   C605    1.445   .     S
C555   N580    1.372   .     A
C556   N579    1.372   .     A
C556   C607    1.445   .     S
C556   C149    1.426   1_565 S
C557   C609    1.444   .     S
C557   N580    1.373   .     A
C558   C611    1.444   .     S
C558   N579    1.373   .     A
C558   C147    1.426   1_565 S
C559   C564    1.452   .     S
C559   O588    1.295   .     A
C559   O585    1.298   .     A
C560   O587    1.295   .     A
C560   C563    1.452   .     S
C560   O586    1.298   .     A
C561   H577    1.080   .     S
C561   C571    1.394   .     A
C561   C563    1.385   .     A
C562   C564    1.385   .     A
C562   H578    1.080   .     S
C562   C572    1.394   .     A
C563   C565    1.402   .     A
C564   C566    1.402   .     A
C565   I589    2.146   .     S
C565   C567    1.420   .     A
C566   I590    2.146   .     S
C566   C568    1.420   .     A
C567   C569    1.427   .     A
C567   C573    1.421   .     A
C568   C574    1.421   .     A
C568   C570    1.427   .     A
C569   C571    1.418   .     A
C569   C1182   1.411   .     S
C570   C572    1.418   .     A
C570   C1181   1.411   1_554 S
C573   C591    1.447   .     S
C573   C1159   1.402   .     S
C574   C593    1.447   .     S
C574   C1160   1.402   1_554 S
Cu575  O581    1.991   .     S
Cu575  O583    1.984   .     S
Cu575  Cu576   2.697   .     S
Cu575  O587    1.962   .     S
Cu575  N579    2.027   .     S
Cu575  O585    1.964   .     S
Cu576  O582    1.991   .     S
Cu576  O584    1.984   .     S
Cu576  O588    1.962   .     S
Cu576  N580    2.027   .     S
Cu576  O586    1.964   .     S
C591   N592    1.158   .     T
C593   N594    1.158   .     T
C597   N598    1.157   .     T
C599   N600    1.157   .     T
C601   N602    1.156   .     T
C603   N604    1.156   .     T
C605   N606    1.158   .     T
C607   N608    1.158   .     T
C609   N610    1.158   .     T
C611   N612    1.158   .     T
C613   O649    1.300   .     A
C613   O652    1.302   .     A
C613   C622    1.475   .     S
C614   C621    1.475   .     S
C614   O650    1.300   .     A
C614   O651    1.302   .     A
C615   I663    2.158   .     S
C615   C640    1.409   .     A
C616   I664    2.158   .     S
C616   C639    1.409   .     A
C616   C30     1.402   1_556 S
C617   C622    1.414   .     A
C617   C665    1.455   .     S
C617   C755    1.393   1_455 S
C618   C667    1.455   .     S
C618   C621    1.414   .     A
C618   C688    1.393   .     S
C619   C621    1.415   .     A
C619   C669    1.450   .     S
C619   C685    1.393   .     S
C620   C671    1.450   .     S
C620   C622    1.415   .     A
C620   C754    1.393   1_455 S
C623   C673    1.445   .     S
C623   N648    1.372   .     A
C623   C1034   1.426   1_545 S
C624   N647    1.372   .     A
C624   C675    1.445   .     S
C624   C829    1.426   .     S
C625   C677    1.444   .     S
C625   N648    1.373   .     A
C625   C1032   1.426   1_545 S
C626   C679    1.444   .     S
C626   N647    1.373   .     A
C626   C827    1.426   .     S
C627   C632    1.452   .     S
C627   O656    1.295   .     A
C627   O653    1.298   .     A
C628   O655    1.295   .     A
C628   C631    1.452   .     S
C628   O654    1.298   .     A
C629   H645    1.080   .     S
C629   C639    1.394   .     A
C629   C631    1.385   .     A
C630   C632    1.385   .     A
C630   H646    1.080   .     S
C630   C640    1.394   .     A
C631   C633    1.402   .     A
C632   C634    1.402   .     A
C633   I657    2.146   .     S
C633   C635    1.420   .     A
C634   I658    2.146   .     S
C634   C636    1.420   .     A
C635   C637    1.427   .     A
C635   C641    1.421   .     A
C636   C642    1.421   .     A
C636   C638    1.427   .     A
C637   C639    1.418   .     A
C637   C26     1.411   1_556 S
C638   C640    1.418   .     A
C641   C659    1.447   .     S
C641   C3      1.402   1_556 S
C642   C661    1.447   .     S
Cu643  O649    1.991   .     S
Cu643  O651    1.984   .     S
Cu643  Cu644   2.697   .     S
Cu643  O655    1.962   .     S
Cu643  N647    2.027   .     S
Cu643  O653    1.964   .     S
Cu644  O650    1.991   .     S
Cu644  O652    1.984   .     S
Cu644  O656    1.962   .     S
Cu644  N648    2.027   .     S
Cu644  O654    1.964   .     S
C659   N660    1.158   .     T
C661   N662    1.158   .     T
C665   N666    1.157   .     T
C667   N668    1.157   .     T
C669   N670    1.156   .     T
C671   N672    1.156   .     T
C673   N674    1.158   .     T
C675   N676    1.158   .     T
C677   N678    1.158   .     T
C679   N680    1.158   .     T
C681   O717    1.300   .     A
C681   O720    1.302   .     A
C681   C690    1.475   .     S
C682   C689    1.475   .     S
C682   O718    1.300   .     A
C682   O719    1.302   .     A
C683   I731    2.158   .     S
C683   C708    1.409   .     A
C684   I732    2.158   .     S
C684   C707    1.409   .     A
C684   C98     1.402   1_556 S
C685   C690    1.414   .     A
C685   C733    1.455   .     S
C686   C735    1.455   .     S
C686   C689    1.414   .     A
C686   C756    1.393   .     S
C687   C689    1.415   .     A
C687   C737    1.450   .     S
C687   C753    1.393   .     S
C688   C739    1.450   .     S
C688   C690    1.415   .     A
C691   C741    1.445   .     S
C691   N716    1.372   .     A
C691   C1102   1.426   1_545 S
C692   N715    1.372   .     A
C692   C743    1.445   .     S
C692   C897    1.426   .     S
C693   C745    1.444   .     S
C693   N716    1.373   .     A
C693   C1100   1.426   1_545 S
C694   C747    1.444   .     S
C694   N715    1.373   .     A
C694   C895    1.426   .     S
C695   C700    1.452   .     S
C695   O724    1.295   .     A
C695   O721    1.298   .     A
C696   O723    1.295   .     A
C696   C699    1.452   .     S
C696   O722    1.298   .     A
C697   H713    1.080   .     S
C697   C707    1.394   .     A
C697   C699    1.385   .     A
C698   C700    1.385   .     A
C698   H714    1.080   .     S
C698   C708    1.394   .     A
C699   C701    1.402   .     A
C700   C702    1.402   .     A
C701   I725    2.146   .     S
C701   C703    1.420   .     A
C702   I726    2.146   .     S
C702   C704    1.420   .     A
C703   C705    1.427   .     A
C703   C709    1.421   .     A
C704   C710    1.421   .     A
C704   C706    1.427   .     A
C705   C707    1.418   .     A
C705   C94     1.411   1_556 S
C706   C708    1.418   .     A
C709   C727    1.447   .     S
C709   C71     1.402   1_556 S
C710   C729    1.447   .     S
Cu711  O717    1.991   .     S
Cu711  O719    1.984   .     S
Cu711  Cu712   2.697   .     S
Cu711  O723    1.962   .     S
Cu711  N715    2.027   .     S
Cu711  O721    1.964   .     S
Cu712  O718    1.991   .     S
Cu712  O720    1.984   .     S
Cu712  O724    1.962   .     S
Cu712  N716    2.027   .     S
Cu712  O722    1.964   .     S
C727   N728    1.158   .     T
C729   N730    1.158   .     T
C733   N734    1.157   .     T
C735   N736    1.157   .     T
C737   N738    1.156   .     T
C739   N740    1.156   .     T
C741   N742    1.158   .     T
C743   N744    1.158   .     T
C745   N746    1.158   .     T
C747   N748    1.158   .     T
C749   O785    1.300   .     A
C749   O788    1.302   .     A
C749   C758    1.475   .     S
C750   C757    1.475   .     S
C750   O786    1.300   .     A
C750   O787    1.302   .     A
C751   I799    2.158   .     S
C751   C776    1.409   .     A
C752   I800    2.158   .     S
C752   C775    1.409   .     A
C752   C166    1.402   1_556 S
C753   C758    1.414   .     A
C753   C801    1.455   .     S
C754   C803    1.455   .     S
C754   C757    1.414   .     A
C754   C620    1.393   1_655 S
C755   C757    1.415   .     A
C755   C805    1.450   .     S
C755   C617    1.393   1_655 S
C756   C807    1.450   .     S
C756   C758    1.415   .     A
C759   C809    1.445   .     S
C759   N784    1.372   .     A
C759   C1170   1.426   1_545 S
C760   N783    1.372   .     A
C760   C811    1.445   .     S
C760   C965    1.426   .     S
C761   C813    1.444   .     S
C761   N784    1.373   .     A
C761   C1168   1.426   1_545 S
C762   C815    1.444   .     S
C762   N783    1.373   .     A
C762   C963    1.426   .     S
C763   C768    1.452   .     S
C763   O792    1.295   .     A
C763   O789    1.298   .     A
C764   O791    1.295   .     A
C764   C767    1.452   .     S
C764   O790    1.298   .     A
C765   H781    1.080   .     S
C765   C775    1.394   .     A
C765   C767    1.385   .     A
C766   C768    1.385   .     A
C766   H782    1.080   .     S
C766   C776    1.394   .     A
C767   C769    1.402   .     A
C768   C770    1.402   .     A
C769   I793    2.146   .     S
C769   C771    1.420   .     A
C770   I794    2.146   .     S
C770   C772    1.420   .     A
C771   C773    1.427   .     A
C771   C777    1.421   .     A
C772   C778    1.421   .     A
C772   C774    1.427   .     A
C773   C775    1.418   .     A
C773   C162    1.411   1_556 S
C774   C776    1.418   .     A
C777   C795    1.447   .     S
C777   C139    1.402   1_556 S
C778   C797    1.447   .     S
Cu779  O785    1.991   .     S
Cu779  O787    1.984   .     S
Cu779  Cu780   2.697   .     S
Cu779  O791    1.962   .     S
Cu779  N783    2.027   .     S
Cu779  O789    1.964   .     S
Cu780  O786    1.991   .     S
Cu780  O788    1.984   .     S
Cu780  O792    1.962   .     S
Cu780  N784    2.027   .     S
Cu780  O790    1.964   .     S
C795   N796    1.158   .     T
C797   N798    1.158   .     T
C801   N802    1.157   .     T
C803   N804    1.157   .     T
C805   N806    1.156   .     T
C807   N808    1.156   .     T
C809   N810    1.158   .     T
C811   N812    1.158   .     T
C813   N814    1.158   .     T
C815   N816    1.158   .     T
C817   O853    1.300   .     A
C817   O856    1.302   .     A
C817   C826    1.475   .     S
C818   C825    1.475   .     S
C818   O854    1.300   .     A
C818   O855    1.302   .     A
C819   I867    2.158   .     S
C819   C844    1.409   .     A
C820   I868    2.158   .     S
C820   C843    1.409   .     A
C820   C234    1.402   1_556 S
C821   C826    1.414   .     A
C821   C869    1.455   .     S
C821   C959    1.393   1_455 S
C822   C871    1.455   .     S
C822   C825    1.414   .     A
C822   C892    1.393   .     S
C823   C825    1.415   .     A
C823   C873    1.450   .     S
C823   C889    1.393   .     S
C824   C875    1.450   .     S
C824   C826    1.415   .     A
C824   C958    1.393   1_455 S
C827   C877    1.445   .     S
C827   N852    1.372   .     A
C828   N851    1.372   .     A
C828   C879    1.445   .     S
C828   C1033   1.426   .     S
C829   C881    1.444   .     S
C829   N852    1.373   .     A
C830   C883    1.444   .     S
C830   N851    1.373   .     A
C830   C1031   1.426   .     S
C831   C836    1.452   .     S
C831   O860    1.295   .     A
C831   O857    1.298   .     A
C832   O859    1.295   .     A
C832   C835    1.452   .     S
C832   O858    1.298   .     A
C833   H849    1.080   .     S
C833   C843    1.394   .     A
C833   C835    1.385   .     A
C834   C836    1.385   .     A
C834   H850    1.080   .     S
C834   C844    1.394   .     A
C835   C837    1.402   .     A
C836   C838    1.402   .     A
C837   I861    2.146   .     S
C837   C839    1.420   .     A
C838   I862    2.146   .     S
C838   C840    1.420   .     A
C839   C841    1.427   .     A
C839   C845    1.421   .     A
C840   C846    1.421   .     A
C840   C842    1.427   .     A
C841   C843    1.418   .     A
C841   C230    1.411   1_556 S
C842   C844    1.418   .     A
C845   C863    1.447   .     S
C845   C207    1.402   1_556 S
C846   C865    1.447   .     S
Cu847  O853    1.991   .     S
Cu847  O855    1.984   .     S
Cu847  Cu848   2.697   .     S
Cu847  O859    1.962   .     S
Cu847  N851    2.027   .     S
Cu847  O857    1.964   .     S
Cu848  O854    1.991   .     S
Cu848  O856    1.984   .     S
Cu848  O860    1.962   .     S
Cu848  N852    2.027   .     S
Cu848  O858    1.964   .     S
C863   N864    1.158   .     T
C865   N866    1.158   .     T
C869   N870    1.157   .     T
C871   N872    1.157   .     T
C873   N874    1.156   .     T
C875   N876    1.156   .     T
C877   N878    1.158   .     T
C879   N880    1.158   .     T
C881   N882    1.158   .     T
C883   N884    1.158   .     T
C885   O921    1.300   .     A
C885   O924    1.302   .     A
C885   C894    1.475   .     S
C886   C893    1.475   .     S
C886   O922    1.300   .     A
C886   O923    1.302   .     A
C887   I935    2.158   .     S
C887   C912    1.409   .     A
C888   I936    2.158   .     S
C888   C911    1.409   .     A
C888   C302    1.402   1_556 S
C889   C894    1.414   .     A
C889   C937    1.455   .     S
C890   C939    1.455   .     S
C890   C893    1.414   .     A
C890   C960    1.393   .     S
C891   C893    1.415   .     A
C891   C941    1.450   .     S
C891   C957    1.393   .     S
C892   C943    1.450   .     S
C892   C894    1.415   .     A
C895   C945    1.445   .     S
C895   N920    1.372   .     A
C896   N919    1.372   .     A
C896   C947    1.445   .     S
C896   C1101   1.426   .     S
C897   C949    1.444   .     S
C897   N920    1.373   .     A
C898   C951    1.444   .     S
C898   N919    1.373   .     A
C898   C1099   1.426   .     S
C899   C904    1.452   .     S
C899   O928    1.295   .     A
C899   O925    1.298   .     A
C900   O927    1.295   .     A
C900   C903    1.452   .     S
C900   O926    1.298   .     A
C901   H917    1.080   .     S
C901   C911    1.394   .     A
C901   C903    1.385   .     A
C902   C904    1.385   .     A
C902   H918    1.080   .     S
C902   C912    1.394   .     A
C903   C905    1.402   .     A
C904   C906    1.402   .     A
C905   I929    2.146   .     S
C905   C907    1.420   .     A
C906   I930    2.146   .     S
C906   C908    1.420   .     A
C907   C909    1.427   .     A
C907   C913    1.421   .     A
C908   C914    1.421   .     A
C908   C910    1.427   .     A
C909   C911    1.418   .     A
C909   C298    1.411   1_556 S
C910   C912    1.418   .     A
C913   C931    1.447   .     S
C913   C275    1.402   1_556 S
C914   C933    1.447   .     S
Cu915  O921    1.991   .     S
Cu915  O923    1.984   .     S
Cu915  Cu916   2.697   .     S
Cu915  O927    1.962   .     S
Cu915  N919    2.027   .     S
Cu915  O925    1.964   .     S
Cu916  O922    1.991   .     S
Cu916  O924    1.984   .     S
Cu916  O928    1.962   .     S
Cu916  N920    2.027   .     S
Cu916  O926    1.964   .     S
C931   N932    1.158   .     T
C933   N934    1.158   .     T
C937   N938    1.157   .     T
C939   N940    1.157   .     T
C941   N942    1.156   .     T
C943   N944    1.156   .     T
C945   N946    1.158   .     T
C947   N948    1.158   .     T
C949   N950    1.158   .     T
C951   N952    1.158   .     T
C953   O989    1.300   .     A
C953   O992    1.302   .     A
C953   C962    1.475   .     S
C954   C961    1.475   .     S
C954   O990    1.300   .     A
C954   O991    1.302   .     A
C955   I1003   2.158   .     S
C955   C980    1.409   .     A
C956   I1004   2.158   .     S
C956   C979    1.409   .     A
C956   C370    1.402   1_556 S
C957   C962    1.414   .     A
C957   C1005   1.455   .     S
C958   C1007   1.455   .     S
C958   C961    1.414   .     A
C958   C824    1.393   1_655 S
C959   C961    1.415   .     A
C959   C1009   1.450   .     S
C959   C821    1.393   1_655 S
C960   C1011   1.450   .     S
C960   C962    1.415   .     A
C963   C1013   1.445   .     S
C963   N988    1.372   .     A
C964   N987    1.372   .     A
C964   C1015   1.445   .     S
C964   C1169   1.426   .     S
C965   C1017   1.444   .     S
C965   N988    1.373   .     A
C966   C1019   1.444   .     S
C966   N987    1.373   .     A
C966   C1167   1.426   .     S
C967   C972    1.452   .     S
C967   O996    1.295   .     A
C967   O993    1.298   .     A
C968   O995    1.295   .     A
C968   C971    1.452   .     S
C968   O994    1.298   .     A
C969   H985    1.080   .     S
C969   C979    1.394   .     A
C969   C971    1.385   .     A
C970   C972    1.385   .     A
C970   H986    1.080   .     S
C970   C980    1.394   .     A
C971   C973    1.402   .     A
C972   C974    1.402   .     A
C973   I997    2.146   .     S
C973   C975    1.420   .     A
C974   I998    2.146   .     S
C974   C976    1.420   .     A
C975   C977    1.427   .     A
C975   C981    1.421   .     A
C976   C982    1.421   .     A
C976   C978    1.427   .     A
C977   C979    1.418   .     A
C977   C366    1.411   1_556 S
C978   C980    1.418   .     A
C981   C999    1.447   .     S
C981   C343    1.402   1_556 S
C982   C1001   1.447   .     S
Cu983  O989    1.991   .     S
Cu983  O991    1.984   .     S
Cu983  Cu984   2.697   .     S
Cu983  O995    1.962   .     S
Cu983  N987    2.027   .     S
Cu983  O993    1.964   .     S
Cu984  O990    1.991   .     S
Cu984  O992    1.984   .     S
Cu984  O996    1.962   .     S
Cu984  N988    2.027   .     S
Cu984  O994    1.964   .     S
C999   N1000   1.158   .     T
C1001  N1002   1.158   .     T
C1005  N1006   1.157   .     T
C1007  N1008   1.157   .     T
C1009  N1010   1.156   .     T
C1011  N1012   1.156   .     T
C1013  N1014   1.158   .     T
C1015  N1016   1.158   .     T
C1017  N1018   1.158   .     T
C1019  N1020   1.158   .     T
C1021  O1057   1.300   .     A
C1021  O1060   1.302   .     A
C1021  C1030   1.475   .     S
C1022  C1029   1.475   .     S
C1022  O1058   1.300   .     A
C1022  O1059   1.302   .     A
C1023  I1071   2.158   .     S
C1023  C1048   1.409   .     A
C1024  I1072   2.158   .     S
C1024  C1047   1.409   .     A
C1024  C438    1.402   1_556 S
C1025  C1030   1.414   .     A
C1025  C1073   1.455   .     S
C1025  C1163   1.393   1_455 S
C1026  C1075   1.455   .     S
C1026  C1029   1.414   .     A
C1026  C1096   1.393   .     S
C1027  C1029   1.415   .     A
C1027  C1077   1.450   .     S
C1027  C1093   1.393   .     S
C1028  C1079   1.450   .     S
C1028  C1030   1.415   .     A
C1028  C1162   1.393   1_455 S
C1031  C1081   1.445   .     S
C1031  N1056   1.372   .     A
C1032  N1055   1.372   .     A
C1032  C1083   1.445   .     S
C1032  C625    1.426   1_565 S
C1033  C1085   1.444   .     S
C1033  N1056   1.373   .     A
C1034  C1087   1.444   .     S
C1034  N1055   1.373   .     A
C1034  C623    1.426   1_565 S
C1035  C1040   1.452   .     S
C1035  O1064   1.295   .     A
C1035  O1061   1.298   .     A
C1036  O1063   1.295   .     A
C1036  C1039   1.452   .     S
C1036  O1062   1.298   .     A
C1037  H1053   1.080   .     S
C1037  C1047   1.394   .     A
C1037  C1039   1.385   .     A
C1038  C1040   1.385   .     A
C1038  H1054   1.080   .     S
C1038  C1048   1.394   .     A
C1039  C1041   1.402   .     A
C1040  C1042   1.402   .     A
C1041  I1065   2.146   .     S
C1041  C1043   1.420   .     A
C1042  I1066   2.146   .     S
C1042  C1044   1.420   .     A
C1043  C1045   1.427   .     A
C1043  C1049   1.421   .     A
C1044  C1050   1.421   .     A
C1044  C1046   1.427   .     A
C1045  C1047   1.418   .     A
C1045  C434    1.411   1_556 S
C1046  C1048   1.418   .     A
C1049  C1067   1.447   .     S
C1049  C411    1.402   1_556 S
C1050  C1069   1.447   .     S
Cu1051 O1057   1.991   .     S
Cu1051 O1059   1.984   .     S
Cu1051 Cu1052  2.697   .     S
Cu1051 O1063   1.962   .     S
Cu1051 N1055   2.027   .     S
Cu1051 O1061   1.964   .     S
Cu1052 O1058   1.991   .     S
Cu1052 O1060   1.984   .     S
Cu1052 O1064   1.962   .     S
Cu1052 N1056   2.027   .     S
Cu1052 O1062   1.964   .     S
C1067  N1068   1.158   .     T
C1069  N1070   1.158   .     T
C1073  N1074   1.157   .     T
C1075  N1076   1.157   .     T
C1077  N1078   1.156   .     T
C1079  N1080   1.156   .     T
C1081  N1082   1.158   .     T
C1083  N1084   1.158   .     T
C1085  N1086   1.158   .     T
C1087  N1088   1.158   .     T
C1089  O1125   1.300   .     A
C1089  O1128   1.302   .     A
C1089  C1098   1.475   .     S
C1090  C1097   1.475   .     S
C1090  O1126   1.300   .     A
C1090  O1127   1.302   .     A
C1091  I1139   2.158   .     S
C1091  C1116   1.409   .     A
C1092  I1140   2.158   .     S
C1092  C1115   1.409   .     A
C1092  C506    1.402   1_556 S
C1093  C1098   1.414   .     A
C1093  C1141   1.455   .     S
C1094  C1143   1.455   .     S
C1094  C1097   1.414   .     A
C1094  C1164   1.393   .     S
C1095  C1097   1.415   .     A
C1095  C1145   1.450   .     S
C1095  C1161   1.393   .     S
C1096  C1147   1.450   .     S
C1096  C1098   1.415   .     A
C1099  C1149   1.445   .     S
C1099  N1124   1.372   .     A
C1100  N1123   1.372   .     A
C1100  C1151   1.445   .     S
C1100  C693    1.426   1_565 S
C1101  C1153   1.444   .     S
C1101  N1124   1.373   .     A
C1102  C1155   1.444   .     S
C1102  N1123   1.373   .     A
C1102  C691    1.426   1_565 S
C1103  C1108   1.452   .     S
C1103  O1132   1.295   .     A
C1103  O1129   1.298   .     A
C1104  O1131   1.295   .     A
C1104  C1107   1.452   .     S
C1104  O1130   1.298   .     A
C1105  H1121   1.080   .     S
C1105  C1115   1.394   .     A
C1105  C1107   1.385   .     A
C1106  C1108   1.385   .     A
C1106  H1122   1.080   .     S
C1106  C1116   1.394   .     A
C1107  C1109   1.402   .     A
C1108  C1110   1.402   .     A
C1109  I1133   2.146   .     S
C1109  C1111   1.420   .     A
C1110  I1134   2.146   .     S
C1110  C1112   1.420   .     A
C1111  C1113   1.427   .     A
C1111  C1117   1.421   .     A
C1112  C1118   1.421   .     A
C1112  C1114   1.427   .     A
C1113  C1115   1.418   .     A
C1113  C502    1.411   1_556 S
C1114  C1116   1.418   .     A
C1117  C1135   1.447   .     S
C1117  C479    1.402   1_556 S
C1118  C1137   1.447   .     S
Cu1119 O1125   1.991   .     S
Cu1119 O1127   1.984   .     S
Cu1119 Cu1120  2.697   .     S
Cu1119 O1131   1.962   .     S
Cu1119 N1123   2.027   .     S
Cu1119 O1129   1.964   .     S
Cu1120 O1126   1.991   .     S
Cu1120 O1128   1.984   .     S
Cu1120 O1132   1.962   .     S
Cu1120 N1124   2.027   .     S
Cu1120 O1130   1.964   .     S
C1135  N1136   1.158   .     T
C1137  N1138   1.158   .     T
C1141  N1142   1.157   .     T
C1143  N1144   1.157   .     T
C1145  N1146   1.156   .     T
C1147  N1148   1.156   .     T
C1149  N1150   1.158   .     T
C1151  N1152   1.158   .     T
C1153  N1154   1.158   .     T
C1155  N1156   1.158   .     T
C1157  O1193   1.300   .     A
C1157  O1196   1.302   .     A
C1157  C1166   1.475   .     S
C1158  C1165   1.475   .     S
C1158  O1194   1.300   .     A
C1158  O1195   1.302   .     A
C1159  I1207   2.158   .     S
C1159  C1184   1.409   .     A
C1160  I1208   2.158   .     S
C1160  C1183   1.409   .     A
C1160  C574    1.402   1_556 S
C1161  C1166   1.414   .     A
C1161  C1209   1.455   .     S
C1162  C1211   1.455   .     S
C1162  C1165   1.414   .     A
C1162  C1028   1.393   1_655 S
C1163  C1165   1.415   .     A
C1163  C1213   1.450   .     S
C1163  C1025   1.393   1_655 S
C1164  C1215   1.450   .     S
C1164  C1166   1.415   .     A
C1167  C1217   1.445   .     S
C1167  N1192   1.372   .     A
C1168  N1191   1.372   .     A
C1168  C1219   1.445   .     S
C1168  C761    1.426   1_565 S
C1169  C1221   1.444   .     S
C1169  N1192   1.373   .     A
C1170  C1223   1.444   .     S
C1170  N1191   1.373   .     A
C1170  C759    1.426   1_565 S
C1171  C1176   1.452   .     S
C1171  O1200   1.295   .     A
C1171  O1197   1.298   .     A
C1172  O1199   1.295   .     A
C1172  C1175   1.452   .     S
C1172  O1198   1.298   .     A
C1173  H1189   1.080   .     S
C1173  C1183   1.394   .     A
C1173  C1175   1.385   .     A
C1174  C1176   1.385   .     A
C1174  H1190   1.080   .     S
C1174  C1184   1.394   .     A
C1175  C1177   1.402   .     A
C1176  C1178   1.402   .     A
C1177  I1201   2.146   .     S
C1177  C1179   1.420   .     A
C1178  I1202   2.146   .     S
C1178  C1180   1.420   .     A
C1179  C1181   1.427   .     A
C1179  C1185   1.421   .     A
C1180  C1186   1.421   .     A
C1180  C1182   1.427   .     A
C1181  C1183   1.418   .     A
C1181  C570    1.411   1_556 S
C1182  C1184   1.418   .     A
C1185  C1203   1.447   .     S
C1185  C547    1.402   1_556 S
C1186  C1205   1.447   .     S
Cu1187 O1193   1.991   .     S
Cu1187 O1195   1.984   .     S
Cu1187 Cu1188  2.697   .     S
Cu1187 O1199   1.962   .     S
Cu1187 N1191   2.027   .     S
Cu1187 O1197   1.964   .     S
Cu1188 O1194   1.991   .     S
Cu1188 O1196   1.984   .     S
Cu1188 O1200   1.962   .     S
Cu1188 N1192   2.027   .     S
Cu1188 O1198   1.964   .     S
C1203  N1204   1.158   .     T
C1205  N1206   1.158   .     T
C1209  N1210   1.157   .     T
C1211  N1212   1.157   .     T
C1213  N1214   1.156   .     T
C1215  N1216   1.156   .     T
C1217  N1218   1.158   .     T
C1219  N1220   1.158   .     T
C1221  N1222   1.158   .     T
C1223  N1224   1.158   .     T
