data_str_m3_o1_o5_pcu_sym.39
_audit_creation_date              2020-01-03
_audit_creation_method            'Materials Studio'
_symmetry_space_group_name_H-M    'P1'
_symmetry_Int_Tables_number       1
_symmetry_cell_setting            triclinic
loop_
_symmetry_equiv_pos_as_xyz
  x,y,z
_cell_length_a                    32.0142
_cell_length_b                    30.3899
_cell_length_c                    26.6731
_cell_angle_alpha                 90.1931
_cell_angle_beta                  95.4215
_cell_angle_gamma                 90.2697
loop_
_atom_site_label
_atom_site_type_symbol
_atom_site_fract_x
_atom_site_fract_y
_atom_site_fract_z
_atom_site_U_iso_or_equiv
_atom_site_adp_type
_atom_site_occupancy
C1     C     0.08694   0.16658   0.16729   0.00000  Uiso   1.00
C2     C     0.01942   0.20072   0.14411   0.00000  Uiso   1.00
C3     C     0.29053   0.16598   0.16654   0.00000  Uiso   1.00
C4     C     0.04259   0.16643   0.16754   0.00000  Uiso   1.00
C5     C     0.18496   0.02279   0.20605   0.00000  Uiso   1.00
C6     C     0.14158   0.30856   0.13007   0.00000  Uiso   1.00
C7     C     0.14473   0.02331   0.12723   0.00000  Uiso   1.00
C8     C     0.19237   0.31053   0.20012   0.00000  Uiso   1.00
C9     C     0.24635   0.16658   0.16687   0.00000  Uiso   1.00
C10    C     0.16708   0.16664   0.07324   0.00000  Uiso   1.00
C11    C     0.16688   0.16673   0.26015   0.00000  Uiso   1.00
C12    C     0.16708   0.16670   0.02191   0.00000  Uiso   1.00
C13    C     0.16698   0.16682   0.31149   0.00000  Uiso   1.00
C14    C     0.02309   0.13170   0.19053   0.00000  Uiso   1.00
C15    C     0.30990   0.19946   0.14180   0.00000  Uiso   1.00
C16    C     0.31347   0.13178   0.19063   0.00000  Uiso   1.00
H17    H     0.04103   0.10526   0.20913   0.00000  Uiso   1.00
H18    H     0.29195   0.22449   0.12071   0.00000  Uiso   1.00
H19    H     0.29826   0.10556   0.20965   0.00000  Uiso   1.00
H20    H     0.03393   0.22819   0.12702   0.00000  Uiso   1.00
H21    H     0.22532   0.07912   0.32097   0.00000  Uiso   1.00
H22    H     0.07769   0.22191   0.04890   0.00000  Uiso   1.00
H23    H     0.08930   0.10965   0.04816   0.00000  Uiso   1.00
H24    H     0.30070   0.28137   0.19568   0.00000  Uiso   1.00
N25    N     0.16667   0.28573   0.16667   0.00000  Uiso   1.00
N26    N     0.16667   0.04760   0.16667   0.00000  Uiso   1.00
O27    O     0.10559   0.20487   0.16666   0.00000  Uiso   1.00
O28    O     0.19024   0.00147   0.30421   0.00000  Uiso   1.00
O29    O     0.22260   0.07704   0.28375   0.00000  Uiso   1.00
O30    O     0.06560   0.30327   0.07937   0.00000  Uiso   1.00
O31    O     0.12720   0.28622   0.03306   0.00000  Uiso   1.00
O32    O     0.09449   0.22729   0.08151   0.00000  Uiso   1.00
O33    O     0.16292   0.06330   0.04397   0.00000  Uiso   1.00
O34    O     0.09684   0.02709   0.03008   0.00000  Uiso   1.00
O35    O     0.09600   0.09525   0.08122   0.00000  Uiso   1.00
O36    O     0.26393   0.32420   0.26126   0.00000  Uiso   1.00
O37    O     0.23697   0.24895   0.25616   0.00000  Uiso   1.00
O38    O     0.22774   0.12846   0.16667   0.00000  Uiso   1.00
O39    O     0.27148   0.28148   0.17969   0.00000  Uiso   1.00
O40    O     0.22774   0.20487   0.16667   0.00000  Uiso   1.00
O41    O     0.10559   0.12846   0.16666   0.00000  Uiso   1.00
O42    O     0.16667   0.20488   0.09511   0.00000  Uiso   1.00
O43    O     0.16666   0.12845   0.23822   0.00000  Uiso   1.00
O44    O     0.16666   0.20488   0.23822   0.00000  Uiso   1.00
O45    O     0.16667   0.12845   0.09511   0.00000  Uiso   1.00
O46    O     0.14154   0.05903   0.27537   0.00000  Uiso   1.00
S47    S     0.18401   0.04005   0.26912   0.00000  Uiso   1.00
S48    S     0.10737   0.28052   0.08159   0.00000  Uiso   1.00
S49    S     0.12472   0.05109   0.06937   0.00000  Uiso   1.00
S50    S     0.24157   0.29049   0.22696   0.00000  Uiso   1.00
Zn51   Zn    0.16667   0.21771   0.16667   0.00000  Uiso   1.00
Zn52   Zn    0.16667   0.11563   0.16667   0.00000  Uiso   1.00
C53    C     0.42028   0.16658   0.16729   0.00000  Uiso   1.00
C54    C     0.35275   0.20072   0.14411   0.00000  Uiso   1.00
C55    C     0.62387   0.16598   0.16654   0.00000  Uiso   1.00
C56    C     0.37592   0.16643   0.16754   0.00000  Uiso   1.00
C57    C     0.51830   0.02279   0.20605   0.00000  Uiso   1.00
C58    C     0.47492   0.30856   0.13007   0.00000  Uiso   1.00
C59    C     0.47806   0.02331   0.12723   0.00000  Uiso   1.00
C60    C     0.52570   0.31053   0.20012   0.00000  Uiso   1.00
C61    C     0.57969   0.16658   0.16687   0.00000  Uiso   1.00
C62    C     0.50041   0.16664   0.07324   0.00000  Uiso   1.00
C63    C     0.50021   0.16673   0.26015   0.00000  Uiso   1.00
C64    C     0.50041   0.16670   0.02191   0.00000  Uiso   1.00
C65    C     0.50031   0.16682   0.31149   0.00000  Uiso   1.00
C66    C     0.35642   0.13170   0.19053   0.00000  Uiso   1.00
C67    C     0.64323   0.19946   0.14180   0.00000  Uiso   1.00
C68    C     0.64680   0.13178   0.19063   0.00000  Uiso   1.00
H69    H     0.37436   0.10526   0.20913   0.00000  Uiso   1.00
H70    H     0.62528   0.22449   0.12071   0.00000  Uiso   1.00
H71    H     0.63160   0.10556   0.20965   0.00000  Uiso   1.00
H72    H     0.36726   0.22819   0.12702   0.00000  Uiso   1.00
H73    H     0.55866   0.07912   0.32097   0.00000  Uiso   1.00
H74    H     0.41103   0.22191   0.04890   0.00000  Uiso   1.00
H75    H     0.42263   0.10965   0.04816   0.00000  Uiso   1.00
H76    H     0.63403   0.28137   0.19568   0.00000  Uiso   1.00
N77    N     0.50000   0.28573   0.16667   0.00000  Uiso   1.00
N78    N     0.50000   0.04760   0.16667   0.00000  Uiso   1.00
O79    O     0.43892   0.20487   0.16666   0.00000  Uiso   1.00
O80    O     0.52358   0.00147   0.30421   0.00000  Uiso   1.00
O81    O     0.55594   0.07704   0.28375   0.00000  Uiso   1.00
O82    O     0.39894   0.30327   0.07937   0.00000  Uiso   1.00
O83    O     0.46053   0.28622   0.03306   0.00000  Uiso   1.00
O84    O     0.42783   0.22729   0.08151   0.00000  Uiso   1.00
O85    O     0.49625   0.06330   0.04397   0.00000  Uiso   1.00
O86    O     0.43017   0.02709   0.03008   0.00000  Uiso   1.00
O87    O     0.42933   0.09525   0.08122   0.00000  Uiso   1.00
O88    O     0.59726   0.32420   0.26126   0.00000  Uiso   1.00
O89    O     0.57030   0.24895   0.25616   0.00000  Uiso   1.00
O90    O     0.56108   0.12846   0.16667   0.00000  Uiso   1.00
O91    O     0.60481   0.28148   0.17969   0.00000  Uiso   1.00
O92    O     0.56108   0.20487   0.16667   0.00000  Uiso   1.00
O93    O     0.43892   0.12846   0.16666   0.00000  Uiso   1.00
O94    O     0.50000   0.20488   0.09511   0.00000  Uiso   1.00
O95    O     0.50000   0.12845   0.23822   0.00000  Uiso   1.00
O96    O     0.50000   0.20488   0.23822   0.00000  Uiso   1.00
O97    O     0.50000   0.12845   0.09511   0.00000  Uiso   1.00
O98    O     0.47487   0.05903   0.27537   0.00000  Uiso   1.00
S99    S     0.51734   0.04005   0.26912   0.00000  Uiso   1.00
S100   S     0.44070   0.28052   0.08159   0.00000  Uiso   1.00
S101   S     0.45805   0.05109   0.06937   0.00000  Uiso   1.00
S102   S     0.57490   0.29049   0.22696   0.00000  Uiso   1.00
Zn103  Zn    0.50000   0.21771   0.16667   0.00000  Uiso   1.00
Zn104  Zn    0.50000   0.11563   0.16667   0.00000  Uiso   1.00
C105   C     0.75361   0.16658   0.16729   0.00000  Uiso   1.00
C106   C     0.68608   0.20072   0.14411   0.00000  Uiso   1.00
C107   C     0.95720   0.16598   0.16654   0.00000  Uiso   1.00
C108   C     0.70925   0.16643   0.16754   0.00000  Uiso   1.00
C109   C     0.85163   0.02279   0.20605   0.00000  Uiso   1.00
C110   C     0.80825   0.30856   0.13007   0.00000  Uiso   1.00
C111   C     0.81140   0.02331   0.12723   0.00000  Uiso   1.00
C112   C     0.85904   0.31053   0.20012   0.00000  Uiso   1.00
C113   C     0.91302   0.16658   0.16687   0.00000  Uiso   1.00
C114   C     0.83374   0.16664   0.07324   0.00000  Uiso   1.00
C115   C     0.83355   0.16673   0.26015   0.00000  Uiso   1.00
C116   C     0.83374   0.16670   0.02191   0.00000  Uiso   1.00
C117   C     0.83365   0.16682   0.31149   0.00000  Uiso   1.00
C118   C     0.68976   0.13170   0.19053   0.00000  Uiso   1.00
C119   C     0.97657   0.19946   0.14180   0.00000  Uiso   1.00
C120   C     0.98013   0.13178   0.19063   0.00000  Uiso   1.00
H121   H     0.70770   0.10526   0.20913   0.00000  Uiso   1.00
H122   H     0.95862   0.22449   0.12071   0.00000  Uiso   1.00
H123   H     0.96493   0.10556   0.20965   0.00000  Uiso   1.00
H124   H     0.70060   0.22819   0.12702   0.00000  Uiso   1.00
H125   H     0.89199   0.07912   0.32097   0.00000  Uiso   1.00
H126   H     0.74436   0.22191   0.04890   0.00000  Uiso   1.00
H127   H     0.75597   0.10965   0.04816   0.00000  Uiso   1.00
H128   H     0.96737   0.28137   0.19568   0.00000  Uiso   1.00
N129   N     0.83333   0.28573   0.16667   0.00000  Uiso   1.00
N130   N     0.83333   0.04760   0.16667   0.00000  Uiso   1.00
O131   O     0.77226   0.20487   0.16666   0.00000  Uiso   1.00
O132   O     0.85691   0.00147   0.30421   0.00000  Uiso   1.00
O133   O     0.88927   0.07704   0.28375   0.00000  Uiso   1.00
O134   O     0.73227   0.30327   0.07937   0.00000  Uiso   1.00
O135   O     0.79387   0.28622   0.03306   0.00000  Uiso   1.00
O136   O     0.76116   0.22729   0.08151   0.00000  Uiso   1.00
O137   O     0.82959   0.06330   0.04397   0.00000  Uiso   1.00
O138   O     0.76351   0.02709   0.03008   0.00000  Uiso   1.00
O139   O     0.76266   0.09525   0.08122   0.00000  Uiso   1.00
O140   O     0.93060   0.32420   0.26126   0.00000  Uiso   1.00
O141   O     0.90363   0.24895   0.25616   0.00000  Uiso   1.00
O142   O     0.89441   0.12846   0.16667   0.00000  Uiso   1.00
O143   O     0.93815   0.28148   0.17969   0.00000  Uiso   1.00
O144   O     0.89441   0.20487   0.16667   0.00000  Uiso   1.00
O145   O     0.77226   0.12846   0.16666   0.00000  Uiso   1.00
O146   O     0.83334   0.20488   0.09511   0.00000  Uiso   1.00
O147   O     0.83333   0.12845   0.23822   0.00000  Uiso   1.00
O148   O     0.83333   0.20488   0.23822   0.00000  Uiso   1.00
O149   O     0.83334   0.12845   0.09511   0.00000  Uiso   1.00
O150   O     0.80821   0.05903   0.27537   0.00000  Uiso   1.00
S151   S     0.85068   0.04005   0.26912   0.00000  Uiso   1.00
S152   S     0.77404   0.28052   0.08159   0.00000  Uiso   1.00
S153   S     0.79138   0.05109   0.06937   0.00000  Uiso   1.00
S154   S     0.90824   0.29049   0.22696   0.00000  Uiso   1.00
Zn155  Zn    0.83333   0.21771   0.16667   0.00000  Uiso   1.00
Zn156  Zn    0.83333   0.11563   0.16667   0.00000  Uiso   1.00
C157   C     0.08694   0.49992   0.16729   0.00000  Uiso   1.00
C158   C     0.01942   0.53405   0.14411   0.00000  Uiso   1.00
C159   C     0.29053   0.49932   0.16654   0.00000  Uiso   1.00
C160   C     0.04259   0.49976   0.16754   0.00000  Uiso   1.00
C161   C     0.18496   0.35613   0.20605   0.00000  Uiso   1.00
C162   C     0.14158   0.64190   0.13007   0.00000  Uiso   1.00
C163   C     0.14473   0.35664   0.12723   0.00000  Uiso   1.00
C164   C     0.19237   0.64387   0.20012   0.00000  Uiso   1.00
C165   C     0.24635   0.49992   0.16687   0.00000  Uiso   1.00
C166   C     0.16708   0.49998   0.07324   0.00000  Uiso   1.00
C167   C     0.16688   0.50007   0.26015   0.00000  Uiso   1.00
C168   C     0.16708   0.50004   0.02191   0.00000  Uiso   1.00
C169   C     0.16698   0.50016   0.31149   0.00000  Uiso   1.00
C170   C     0.02309   0.46503   0.19053   0.00000  Uiso   1.00
C171   C     0.30990   0.53279   0.14180   0.00000  Uiso   1.00
C172   C     0.31347   0.46512   0.19063   0.00000  Uiso   1.00
H173   H     0.04103   0.43859   0.20913   0.00000  Uiso   1.00
H174   H     0.29195   0.55783   0.12071   0.00000  Uiso   1.00
H175   H     0.29826   0.43889   0.20965   0.00000  Uiso   1.00
H176   H     0.03393   0.56153   0.12702   0.00000  Uiso   1.00
H177   H     0.22532   0.41245   0.32097   0.00000  Uiso   1.00
H178   H     0.07769   0.55525   0.04890   0.00000  Uiso   1.00
H179   H     0.08930   0.44298   0.04816   0.00000  Uiso   1.00
H180   H     0.30070   0.61470   0.19568   0.00000  Uiso   1.00
N181   N     0.16667   0.61907   0.16667   0.00000  Uiso   1.00
N182   N     0.16667   0.38093   0.16667   0.00000  Uiso   1.00
O183   O     0.10559   0.53821   0.16666   0.00000  Uiso   1.00
O184   O     0.19024   0.33481   0.30421   0.00000  Uiso   1.00
O185   O     0.22260   0.41037   0.28375   0.00000  Uiso   1.00
O186   O     0.06560   0.63661   0.07937   0.00000  Uiso   1.00
O187   O     0.12720   0.61955   0.03306   0.00000  Uiso   1.00
O188   O     0.09449   0.56063   0.08151   0.00000  Uiso   1.00
O189   O     0.16292   0.39663   0.04397   0.00000  Uiso   1.00
O190   O     0.09684   0.36042   0.03008   0.00000  Uiso   1.00
O191   O     0.09600   0.42859   0.08122   0.00000  Uiso   1.00
O192   O     0.26393   0.65753   0.26126   0.00000  Uiso   1.00
O193   O     0.23697   0.58228   0.25616   0.00000  Uiso   1.00
O194   O     0.22774   0.46179   0.16667   0.00000  Uiso   1.00
O195   O     0.27148   0.61481   0.17969   0.00000  Uiso   1.00
O196   O     0.22774   0.53821   0.16667   0.00000  Uiso   1.00
O197   O     0.10559   0.46179   0.16666   0.00000  Uiso   1.00
O198   O     0.16667   0.53821   0.09511   0.00000  Uiso   1.00
O199   O     0.16666   0.46179   0.23822   0.00000  Uiso   1.00
O200   O     0.16666   0.53821   0.23822   0.00000  Uiso   1.00
O201   O     0.16667   0.46179   0.09511   0.00000  Uiso   1.00
O202   O     0.14154   0.39236   0.27537   0.00000  Uiso   1.00
S203   S     0.18401   0.37338   0.26912   0.00000  Uiso   1.00
S204   S     0.10737   0.61386   0.08159   0.00000  Uiso   1.00
S205   S     0.12472   0.38442   0.06937   0.00000  Uiso   1.00
S206   S     0.24157   0.62383   0.22696   0.00000  Uiso   1.00
Zn207  Zn    0.16667   0.55104   0.16667   0.00000  Uiso   1.00
Zn208  Zn    0.16667   0.44896   0.16667   0.00000  Uiso   1.00
C209   C     0.42028   0.49992   0.16729   0.00000  Uiso   1.00
C210   C     0.35275   0.53405   0.14411   0.00000  Uiso   1.00
C211   C     0.62387   0.49932   0.16654   0.00000  Uiso   1.00
C212   C     0.37592   0.49976   0.16754   0.00000  Uiso   1.00
C213   C     0.51830   0.35613   0.20605   0.00000  Uiso   1.00
C214   C     0.47492   0.64190   0.13007   0.00000  Uiso   1.00
C215   C     0.47806   0.35664   0.12723   0.00000  Uiso   1.00
C216   C     0.52570   0.64387   0.20012   0.00000  Uiso   1.00
C217   C     0.57969   0.49992   0.16687   0.00000  Uiso   1.00
C218   C     0.50041   0.49998   0.07324   0.00000  Uiso   1.00
C219   C     0.50021   0.50007   0.26015   0.00000  Uiso   1.00
C220   C     0.50041   0.50004   0.02191   0.00000  Uiso   1.00
C221   C     0.50031   0.50016   0.31149   0.00000  Uiso   1.00
C222   C     0.35642   0.46503   0.19053   0.00000  Uiso   1.00
C223   C     0.64323   0.53279   0.14180   0.00000  Uiso   1.00
C224   C     0.64680   0.46512   0.19063   0.00000  Uiso   1.00
H225   H     0.37436   0.43859   0.20913   0.00000  Uiso   1.00
H226   H     0.62528   0.55783   0.12071   0.00000  Uiso   1.00
H227   H     0.63160   0.43889   0.20965   0.00000  Uiso   1.00
H228   H     0.36726   0.56153   0.12702   0.00000  Uiso   1.00
H229   H     0.55866   0.41245   0.32097   0.00000  Uiso   1.00
H230   H     0.41103   0.55525   0.04890   0.00000  Uiso   1.00
H231   H     0.42263   0.44298   0.04816   0.00000  Uiso   1.00
H232   H     0.63403   0.61470   0.19568   0.00000  Uiso   1.00
N233   N     0.50000   0.61907   0.16667   0.00000  Uiso   1.00
N234   N     0.50000   0.38093   0.16667   0.00000  Uiso   1.00
O235   O     0.43892   0.53821   0.16666   0.00000  Uiso   1.00
O236   O     0.52358   0.33481   0.30421   0.00000  Uiso   1.00
O237   O     0.55594   0.41037   0.28375   0.00000  Uiso   1.00
O238   O     0.39894   0.63661   0.07937   0.00000  Uiso   1.00
O239   O     0.46053   0.61955   0.03306   0.00000  Uiso   1.00
O240   O     0.42783   0.56063   0.08151   0.00000  Uiso   1.00
O241   O     0.49625   0.39663   0.04397   0.00000  Uiso   1.00
O242   O     0.43017   0.36042   0.03008   0.00000  Uiso   1.00
O243   O     0.42933   0.42859   0.08122   0.00000  Uiso   1.00
O244   O     0.59726   0.65753   0.26126   0.00000  Uiso   1.00
O245   O     0.57030   0.58228   0.25616   0.00000  Uiso   1.00
O246   O     0.56108   0.46179   0.16667   0.00000  Uiso   1.00
O247   O     0.60481   0.61481   0.17969   0.00000  Uiso   1.00
O248   O     0.56108   0.53821   0.16667   0.00000  Uiso   1.00
O249   O     0.43892   0.46179   0.16666   0.00000  Uiso   1.00
O250   O     0.50000   0.53821   0.09511   0.00000  Uiso   1.00
O251   O     0.50000   0.46179   0.23822   0.00000  Uiso   1.00
O252   O     0.50000   0.53821   0.23822   0.00000  Uiso   1.00
O253   O     0.50000   0.46179   0.09511   0.00000  Uiso   1.00
O254   O     0.47487   0.39236   0.27537   0.00000  Uiso   1.00
S255   S     0.51734   0.37338   0.26912   0.00000  Uiso   1.00
S256   S     0.44070   0.61386   0.08159   0.00000  Uiso   1.00
S257   S     0.45805   0.38442   0.06937   0.00000  Uiso   1.00
S258   S     0.57490   0.62383   0.22696   0.00000  Uiso   1.00
Zn259  Zn    0.50000   0.55104   0.16667   0.00000  Uiso   1.00
Zn260  Zn    0.50000   0.44896   0.16667   0.00000  Uiso   1.00
C261   C     0.75361   0.49992   0.16729   0.00000  Uiso   1.00
C262   C     0.68608   0.53405   0.14411   0.00000  Uiso   1.00
C263   C     0.95720   0.49932   0.16654   0.00000  Uiso   1.00
C264   C     0.70925   0.49976   0.16754   0.00000  Uiso   1.00
C265   C     0.85163   0.35613   0.20605   0.00000  Uiso   1.00
C266   C     0.80825   0.64190   0.13007   0.00000  Uiso   1.00
C267   C     0.81140   0.35664   0.12723   0.00000  Uiso   1.00
C268   C     0.85904   0.64387   0.20012   0.00000  Uiso   1.00
C269   C     0.91302   0.49992   0.16687   0.00000  Uiso   1.00
C270   C     0.83374   0.49998   0.07324   0.00000  Uiso   1.00
C271   C     0.83355   0.50007   0.26015   0.00000  Uiso   1.00
C272   C     0.83374   0.50004   0.02191   0.00000  Uiso   1.00
C273   C     0.83365   0.50016   0.31149   0.00000  Uiso   1.00
C274   C     0.68976   0.46503   0.19053   0.00000  Uiso   1.00
C275   C     0.97657   0.53279   0.14180   0.00000  Uiso   1.00
C276   C     0.98013   0.46512   0.19063   0.00000  Uiso   1.00
H277   H     0.70770   0.43859   0.20913   0.00000  Uiso   1.00
H278   H     0.95862   0.55783   0.12071   0.00000  Uiso   1.00
H279   H     0.96493   0.43889   0.20965   0.00000  Uiso   1.00
H280   H     0.70060   0.56153   0.12702   0.00000  Uiso   1.00
H281   H     0.89199   0.41245   0.32097   0.00000  Uiso   1.00
H282   H     0.74436   0.55525   0.04890   0.00000  Uiso   1.00
H283   H     0.75597   0.44298   0.04816   0.00000  Uiso   1.00
H284   H     0.96737   0.61470   0.19568   0.00000  Uiso   1.00
N285   N     0.83333   0.61907   0.16667   0.00000  Uiso   1.00
N286   N     0.83333   0.38093   0.16667   0.00000  Uiso   1.00
O287   O     0.77226   0.53821   0.16666   0.00000  Uiso   1.00
O288   O     0.85691   0.33481   0.30421   0.00000  Uiso   1.00
O289   O     0.88927   0.41037   0.28375   0.00000  Uiso   1.00
O290   O     0.73227   0.63661   0.07937   0.00000  Uiso   1.00
O291   O     0.79387   0.61955   0.03306   0.00000  Uiso   1.00
O292   O     0.76116   0.56063   0.08151   0.00000  Uiso   1.00
O293   O     0.82959   0.39663   0.04397   0.00000  Uiso   1.00
O294   O     0.76351   0.36042   0.03008   0.00000  Uiso   1.00
O295   O     0.76266   0.42859   0.08122   0.00000  Uiso   1.00
O296   O     0.93060   0.65753   0.26126   0.00000  Uiso   1.00
O297   O     0.90363   0.58228   0.25616   0.00000  Uiso   1.00
O298   O     0.89441   0.46179   0.16667   0.00000  Uiso   1.00
O299   O     0.93815   0.61481   0.17969   0.00000  Uiso   1.00
O300   O     0.89441   0.53821   0.16667   0.00000  Uiso   1.00
O301   O     0.77226   0.46179   0.16666   0.00000  Uiso   1.00
O302   O     0.83334   0.53821   0.09511   0.00000  Uiso   1.00
O303   O     0.83333   0.46179   0.23822   0.00000  Uiso   1.00
O304   O     0.83333   0.53821   0.23822   0.00000  Uiso   1.00
O305   O     0.83334   0.46179   0.09511   0.00000  Uiso   1.00
O306   O     0.80821   0.39236   0.27537   0.00000  Uiso   1.00
S307   S     0.85068   0.37338   0.26912   0.00000  Uiso   1.00
S308   S     0.77404   0.61386   0.08159   0.00000  Uiso   1.00
S309   S     0.79138   0.38442   0.06937   0.00000  Uiso   1.00
S310   S     0.90824   0.62383   0.22696   0.00000  Uiso   1.00
Zn311  Zn    0.83333   0.55104   0.16667   0.00000  Uiso   1.00
Zn312  Zn    0.83333   0.44896   0.16667   0.00000  Uiso   1.00
C313   C     0.08694   0.83325   0.16729   0.00000  Uiso   1.00
C314   C     0.01942   0.86739   0.14411   0.00000  Uiso   1.00
C315   C     0.29053   0.83265   0.16654   0.00000  Uiso   1.00
C316   C     0.04259   0.83309   0.16754   0.00000  Uiso   1.00
C317   C     0.18496   0.68946   0.20605   0.00000  Uiso   1.00
C318   C     0.14158   0.97523   0.13007   0.00000  Uiso   1.00
C319   C     0.14473   0.68998   0.12723   0.00000  Uiso   1.00
C320   C     0.19237   0.97720   0.20012   0.00000  Uiso   1.00
C321   C     0.24635   0.83325   0.16687   0.00000  Uiso   1.00
C322   C     0.16708   0.83331   0.07324   0.00000  Uiso   1.00
C323   C     0.16688   0.83340   0.26015   0.00000  Uiso   1.00
C324   C     0.16708   0.83337   0.02191   0.00000  Uiso   1.00
C325   C     0.16698   0.83349   0.31149   0.00000  Uiso   1.00
C326   C     0.02309   0.79836   0.19053   0.00000  Uiso   1.00
C327   C     0.30990   0.86612   0.14180   0.00000  Uiso   1.00
C328   C     0.31347   0.79845   0.19063   0.00000  Uiso   1.00
H329   H     0.04103   0.77192   0.20913   0.00000  Uiso   1.00
H330   H     0.29195   0.89116   0.12071   0.00000  Uiso   1.00
H331   H     0.29826   0.77223   0.20965   0.00000  Uiso   1.00
H332   H     0.03393   0.89486   0.12702   0.00000  Uiso   1.00
H333   H     0.22532   0.74579   0.32097   0.00000  Uiso   1.00
H334   H     0.07769   0.88858   0.04890   0.00000  Uiso   1.00
H335   H     0.08930   0.77632   0.04816   0.00000  Uiso   1.00
H336   H     0.30070   0.94804   0.19568   0.00000  Uiso   1.00
N337   N     0.16667   0.95240   0.16667   0.00000  Uiso   1.00
N338   N     0.16667   0.71427   0.16667   0.00000  Uiso   1.00
O339   O     0.10559   0.87154   0.16666   0.00000  Uiso   1.00
O340   O     0.19024   0.66814   0.30421   0.00000  Uiso   1.00
O341   O     0.22260   0.74370   0.28375   0.00000  Uiso   1.00
O342   O     0.06560   0.96994   0.07937   0.00000  Uiso   1.00
O343   O     0.12720   0.95289   0.03306   0.00000  Uiso   1.00
O344   O     0.09449   0.89396   0.08151   0.00000  Uiso   1.00
O345   O     0.16292   0.72996   0.04397   0.00000  Uiso   1.00
O346   O     0.09684   0.69376   0.03008   0.00000  Uiso   1.00
O347   O     0.09600   0.76192   0.08122   0.00000  Uiso   1.00
O348   O     0.26393   0.99087   0.26126   0.00000  Uiso   1.00
O349   O     0.23697   0.91561   0.25616   0.00000  Uiso   1.00
O350   O     0.22774   0.79513   0.16667   0.00000  Uiso   1.00
O351   O     0.27148   0.94815   0.17969   0.00000  Uiso   1.00
O352   O     0.22774   0.87154   0.16667   0.00000  Uiso   1.00
O353   O     0.10559   0.79513   0.16666   0.00000  Uiso   1.00
O354   O     0.16667   0.87155   0.09511   0.00000  Uiso   1.00
O355   O     0.16666   0.79512   0.23822   0.00000  Uiso   1.00
O356   O     0.16666   0.87155   0.23822   0.00000  Uiso   1.00
O357   O     0.16667   0.79512   0.09511   0.00000  Uiso   1.00
O358   O     0.14154   0.72570   0.27537   0.00000  Uiso   1.00
S359   S     0.18401   0.70672   0.26912   0.00000  Uiso   1.00
S360   S     0.10737   0.94719   0.08159   0.00000  Uiso   1.00
S361   S     0.12472   0.71776   0.06937   0.00000  Uiso   1.00
S362   S     0.24157   0.95716   0.22696   0.00000  Uiso   1.00
Zn363  Zn    0.16667   0.88437   0.16667   0.00000  Uiso   1.00
Zn364  Zn    0.16667   0.78229   0.16667   0.00000  Uiso   1.00
C365   C     0.42028   0.83325   0.16729   0.00000  Uiso   1.00
C366   C     0.35275   0.86739   0.14411   0.00000  Uiso   1.00
C367   C     0.62387   0.83265   0.16654   0.00000  Uiso   1.00
C368   C     0.37592   0.83309   0.16754   0.00000  Uiso   1.00
C369   C     0.51830   0.68946   0.20605   0.00000  Uiso   1.00
C370   C     0.47492   0.97523   0.13007   0.00000  Uiso   1.00
C371   C     0.47806   0.68998   0.12723   0.00000  Uiso   1.00
C372   C     0.52570   0.97720   0.20012   0.00000  Uiso   1.00
C373   C     0.57969   0.83325   0.16687   0.00000  Uiso   1.00
C374   C     0.50041   0.83331   0.07324   0.00000  Uiso   1.00
C375   C     0.50021   0.83340   0.26015   0.00000  Uiso   1.00
C376   C     0.50041   0.83337   0.02191   0.00000  Uiso   1.00
C377   C     0.50031   0.83349   0.31149   0.00000  Uiso   1.00
C378   C     0.35642   0.79836   0.19053   0.00000  Uiso   1.00
C379   C     0.64323   0.86612   0.14180   0.00000  Uiso   1.00
C380   C     0.64680   0.79845   0.19063   0.00000  Uiso   1.00
H381   H     0.37436   0.77192   0.20913   0.00000  Uiso   1.00
H382   H     0.62528   0.89116   0.12071   0.00000  Uiso   1.00
H383   H     0.63160   0.77223   0.20965   0.00000  Uiso   1.00
H384   H     0.36726   0.89486   0.12702   0.00000  Uiso   1.00
H385   H     0.55866   0.74579   0.32097   0.00000  Uiso   1.00
H386   H     0.41103   0.88858   0.04890   0.00000  Uiso   1.00
H387   H     0.42263   0.77632   0.04816   0.00000  Uiso   1.00
H388   H     0.63403   0.94804   0.19568   0.00000  Uiso   1.00
N389   N     0.50000   0.95240   0.16667   0.00000  Uiso   1.00
N390   N     0.50000   0.71427   0.16667   0.00000  Uiso   1.00
O391   O     0.43892   0.87154   0.16666   0.00000  Uiso   1.00
O392   O     0.52358   0.66814   0.30421   0.00000  Uiso   1.00
O393   O     0.55594   0.74370   0.28375   0.00000  Uiso   1.00
O394   O     0.39894   0.96994   0.07937   0.00000  Uiso   1.00
O395   O     0.46053   0.95289   0.03306   0.00000  Uiso   1.00
O396   O     0.42783   0.89396   0.08151   0.00000  Uiso   1.00
O397   O     0.49625   0.72996   0.04397   0.00000  Uiso   1.00
O398   O     0.43017   0.69376   0.03008   0.00000  Uiso   1.00
O399   O     0.42933   0.76192   0.08122   0.00000  Uiso   1.00
O400   O     0.59726   0.99087   0.26126   0.00000  Uiso   1.00
O401   O     0.57030   0.91561   0.25616   0.00000  Uiso   1.00
O402   O     0.56108   0.79513   0.16667   0.00000  Uiso   1.00
O403   O     0.60481   0.94815   0.17969   0.00000  Uiso   1.00
O404   O     0.56108   0.87154   0.16667   0.00000  Uiso   1.00
O405   O     0.43892   0.79513   0.16666   0.00000  Uiso   1.00
O406   O     0.50000   0.87155   0.09511   0.00000  Uiso   1.00
O407   O     0.50000   0.79512   0.23822   0.00000  Uiso   1.00
O408   O     0.50000   0.87155   0.23822   0.00000  Uiso   1.00
O409   O     0.50000   0.79512   0.09511   0.00000  Uiso   1.00
O410   O     0.47487   0.72570   0.27537   0.00000  Uiso   1.00
S411   S     0.51734   0.70672   0.26912   0.00000  Uiso   1.00
S412   S     0.44070   0.94719   0.08159   0.00000  Uiso   1.00
S413   S     0.45805   0.71776   0.06937   0.00000  Uiso   1.00
S414   S     0.57490   0.95716   0.22696   0.00000  Uiso   1.00
Zn415  Zn    0.50000   0.88437   0.16667   0.00000  Uiso   1.00
Zn416  Zn    0.50000   0.78229   0.16667   0.00000  Uiso   1.00
C417   C     0.75361   0.83325   0.16729   0.00000  Uiso   1.00
C418   C     0.68608   0.86739   0.14411   0.00000  Uiso   1.00
C419   C     0.95720   0.83265   0.16654   0.00000  Uiso   1.00
C420   C     0.70925   0.83309   0.16754   0.00000  Uiso   1.00
C421   C     0.85163   0.68946   0.20605   0.00000  Uiso   1.00
C422   C     0.80825   0.97523   0.13007   0.00000  Uiso   1.00
C423   C     0.81140   0.68998   0.12723   0.00000  Uiso   1.00
C424   C     0.85904   0.97720   0.20012   0.00000  Uiso   1.00
C425   C     0.91302   0.83325   0.16687   0.00000  Uiso   1.00
C426   C     0.83374   0.83331   0.07324   0.00000  Uiso   1.00
C427   C     0.83355   0.83340   0.26015   0.00000  Uiso   1.00
C428   C     0.83374   0.83337   0.02191   0.00000  Uiso   1.00
C429   C     0.83365   0.83349   0.31149   0.00000  Uiso   1.00
C430   C     0.68976   0.79836   0.19053   0.00000  Uiso   1.00
C431   C     0.97657   0.86612   0.14180   0.00000  Uiso   1.00
C432   C     0.98013   0.79845   0.19063   0.00000  Uiso   1.00
H433   H     0.70770   0.77192   0.20913   0.00000  Uiso   1.00
H434   H     0.95862   0.89116   0.12071   0.00000  Uiso   1.00
H435   H     0.96493   0.77223   0.20965   0.00000  Uiso   1.00
H436   H     0.70060   0.89486   0.12702   0.00000  Uiso   1.00
H437   H     0.89199   0.74579   0.32097   0.00000  Uiso   1.00
H438   H     0.74436   0.88858   0.04890   0.00000  Uiso   1.00
H439   H     0.75597   0.77632   0.04816   0.00000  Uiso   1.00
H440   H     0.96737   0.94804   0.19568   0.00000  Uiso   1.00
N441   N     0.83333   0.95240   0.16667   0.00000  Uiso   1.00
N442   N     0.83333   0.71427   0.16667   0.00000  Uiso   1.00
O443   O     0.77226   0.87154   0.16666   0.00000  Uiso   1.00
O444   O     0.85691   0.66814   0.30421   0.00000  Uiso   1.00
O445   O     0.88927   0.74370   0.28375   0.00000  Uiso   1.00
O446   O     0.73227   0.96994   0.07937   0.00000  Uiso   1.00
O447   O     0.79387   0.95289   0.03306   0.00000  Uiso   1.00
O448   O     0.76116   0.89396   0.08151   0.00000  Uiso   1.00
O449   O     0.82959   0.72996   0.04397   0.00000  Uiso   1.00
O450   O     0.76351   0.69376   0.03008   0.00000  Uiso   1.00
O451   O     0.76266   0.76192   0.08122   0.00000  Uiso   1.00
O452   O     0.93060   0.99087   0.26126   0.00000  Uiso   1.00
O453   O     0.90363   0.91561   0.25616   0.00000  Uiso   1.00
O454   O     0.89441   0.79513   0.16667   0.00000  Uiso   1.00
O455   O     0.93815   0.94815   0.17969   0.00000  Uiso   1.00
O456   O     0.89441   0.87154   0.16667   0.00000  Uiso   1.00
O457   O     0.77226   0.79513   0.16666   0.00000  Uiso   1.00
O458   O     0.83334   0.87155   0.09511   0.00000  Uiso   1.00
O459   O     0.83333   0.79512   0.23822   0.00000  Uiso   1.00
O460   O     0.83333   0.87155   0.23822   0.00000  Uiso   1.00
O461   O     0.83334   0.79512   0.09511   0.00000  Uiso   1.00
O462   O     0.80821   0.72570   0.27537   0.00000  Uiso   1.00
S463   S     0.85068   0.70672   0.26912   0.00000  Uiso   1.00
S464   S     0.77404   0.94719   0.08159   0.00000  Uiso   1.00
S465   S     0.79138   0.71776   0.06937   0.00000  Uiso   1.00
S466   S     0.90824   0.95716   0.22696   0.00000  Uiso   1.00
Zn467  Zn    0.83333   0.88437   0.16667   0.00000  Uiso   1.00
Zn468  Zn    0.83333   0.78229   0.16667   0.00000  Uiso   1.00
C469   C     0.08694   0.16658   0.50063   0.00000  Uiso   1.00
C470   C     0.01942   0.20072   0.47744   0.00000  Uiso   1.00
C471   C     0.29053   0.16598   0.49987   0.00000  Uiso   1.00
C472   C     0.04259   0.16643   0.50087   0.00000  Uiso   1.00
C473   C     0.18496   0.02279   0.53938   0.00000  Uiso   1.00
C474   C     0.14158   0.30856   0.46340   0.00000  Uiso   1.00
C475   C     0.14473   0.02331   0.46057   0.00000  Uiso   1.00
C476   C     0.19237   0.31053   0.53345   0.00000  Uiso   1.00
C477   C     0.24635   0.16658   0.50020   0.00000  Uiso   1.00
C478   C     0.16708   0.16664   0.40658   0.00000  Uiso   1.00
C479   C     0.16688   0.16673   0.59348   0.00000  Uiso   1.00
C480   C     0.16708   0.16670   0.35525   0.00000  Uiso   1.00
C481   C     0.16698   0.16682   0.64482   0.00000  Uiso   1.00
C482   C     0.02309   0.13170   0.52387   0.00000  Uiso   1.00
C483   C     0.30990   0.19946   0.47513   0.00000  Uiso   1.00
C484   C     0.31347   0.13178   0.52397   0.00000  Uiso   1.00
H485   H     0.04103   0.10526   0.54247   0.00000  Uiso   1.00
H486   H     0.29195   0.22449   0.45404   0.00000  Uiso   1.00
H487   H     0.29826   0.10556   0.54299   0.00000  Uiso   1.00
H488   H     0.03393   0.22819   0.46036   0.00000  Uiso   1.00
H489   H     0.22532   0.07912   0.65430   0.00000  Uiso   1.00
H490   H     0.07769   0.22191   0.38223   0.00000  Uiso   1.00
H491   H     0.08930   0.10965   0.38149   0.00000  Uiso   1.00
H492   H     0.30070   0.28137   0.52902   0.00000  Uiso   1.00
N493   N     0.16667   0.28573   0.50000   0.00000  Uiso   1.00
N494   N     0.16667   0.04760   0.50000   0.00000  Uiso   1.00
O495   O     0.10559   0.20487   0.50000   0.00000  Uiso   1.00
O496   O     0.19024   0.00147   0.63754   0.00000  Uiso   1.00
O497   O     0.22260   0.07704   0.61708   0.00000  Uiso   1.00
O498   O     0.06560   0.30327   0.41270   0.00000  Uiso   1.00
O499   O     0.12720   0.28622   0.36640   0.00000  Uiso   1.00
O500   O     0.09449   0.22729   0.41484   0.00000  Uiso   1.00
O501   O     0.16292   0.06330   0.37730   0.00000  Uiso   1.00
O502   O     0.09684   0.02709   0.36342   0.00000  Uiso   1.00
O503   O     0.09600   0.09525   0.41455   0.00000  Uiso   1.00
O504   O     0.26393   0.32420   0.59460   0.00000  Uiso   1.00
O505   O     0.23697   0.24895   0.58949   0.00000  Uiso   1.00
O506   O     0.22774   0.12846   0.50000   0.00000  Uiso   1.00
O507   O     0.27148   0.28148   0.51302   0.00000  Uiso   1.00
O508   O     0.22774   0.20487   0.50000   0.00000  Uiso   1.00
O509   O     0.10559   0.12846   0.50000   0.00000  Uiso   1.00
O510   O     0.16667   0.20488   0.42845   0.00000  Uiso   1.00
O511   O     0.16666   0.12845   0.57155   0.00000  Uiso   1.00
O512   O     0.16666   0.20488   0.57155   0.00000  Uiso   1.00
O513   O     0.16667   0.12845   0.42845   0.00000  Uiso   1.00
O514   O     0.14154   0.05903   0.60870   0.00000  Uiso   1.00
S515   S     0.18401   0.04005   0.60246   0.00000  Uiso   1.00
S516   S     0.10737   0.28052   0.41492   0.00000  Uiso   1.00
S517   S     0.12472   0.05109   0.40271   0.00000  Uiso   1.00
S518   S     0.24157   0.29049   0.56030   0.00000  Uiso   1.00
Zn519  Zn    0.16667   0.21771   0.50000   0.00000  Uiso   1.00
Zn520  Zn    0.16667   0.11563   0.50000   0.00000  Uiso   1.00
C521   C     0.42028   0.16658   0.50063   0.00000  Uiso   1.00
C522   C     0.35275   0.20072   0.47744   0.00000  Uiso   1.00
C523   C     0.62387   0.16598   0.49987   0.00000  Uiso   1.00
C524   C     0.37592   0.16643   0.50087   0.00000  Uiso   1.00
C525   C     0.51830   0.02279   0.53938   0.00000  Uiso   1.00
C526   C     0.47492   0.30856   0.46340   0.00000  Uiso   1.00
C527   C     0.47806   0.02331   0.46057   0.00000  Uiso   1.00
C528   C     0.52570   0.31053   0.53345   0.00000  Uiso   1.00
C529   C     0.57969   0.16658   0.50020   0.00000  Uiso   1.00
C530   C     0.50041   0.16664   0.40658   0.00000  Uiso   1.00
C531   C     0.50021   0.16673   0.59348   0.00000  Uiso   1.00
C532   C     0.50041   0.16670   0.35525   0.00000  Uiso   1.00
C533   C     0.50031   0.16682   0.64482   0.00000  Uiso   1.00
C534   C     0.35642   0.13170   0.52387   0.00000  Uiso   1.00
C535   C     0.64323   0.19946   0.47513   0.00000  Uiso   1.00
C536   C     0.64680   0.13178   0.52397   0.00000  Uiso   1.00
H537   H     0.37436   0.10526   0.54247   0.00000  Uiso   1.00
H538   H     0.62528   0.22449   0.45404   0.00000  Uiso   1.00
H539   H     0.63160   0.10556   0.54299   0.00000  Uiso   1.00
H540   H     0.36726   0.22819   0.46036   0.00000  Uiso   1.00
H541   H     0.55866   0.07912   0.65430   0.00000  Uiso   1.00
H542   H     0.41103   0.22191   0.38223   0.00000  Uiso   1.00
H543   H     0.42263   0.10965   0.38149   0.00000  Uiso   1.00
H544   H     0.63403   0.28137   0.52902   0.00000  Uiso   1.00
N545   N     0.50000   0.28573   0.50000   0.00000  Uiso   1.00
N546   N     0.50000   0.04760   0.50000   0.00000  Uiso   1.00
O547   O     0.43892   0.20487   0.50000   0.00000  Uiso   1.00
O548   O     0.52358   0.00147   0.63754   0.00000  Uiso   1.00
O549   O     0.55594   0.07704   0.61708   0.00000  Uiso   1.00
O550   O     0.39894   0.30327   0.41270   0.00000  Uiso   1.00
O551   O     0.46053   0.28622   0.36640   0.00000  Uiso   1.00
O552   O     0.42783   0.22729   0.41484   0.00000  Uiso   1.00
O553   O     0.49625   0.06330   0.37730   0.00000  Uiso   1.00
O554   O     0.43017   0.02709   0.36342   0.00000  Uiso   1.00
O555   O     0.42933   0.09525   0.41455   0.00000  Uiso   1.00
O556   O     0.59726   0.32420   0.59460   0.00000  Uiso   1.00
O557   O     0.57030   0.24895   0.58949   0.00000  Uiso   1.00
O558   O     0.56108   0.12846   0.50000   0.00000  Uiso   1.00
O559   O     0.60481   0.28148   0.51302   0.00000  Uiso   1.00
O560   O     0.56108   0.20487   0.50000   0.00000  Uiso   1.00
O561   O     0.43892   0.12846   0.50000   0.00000  Uiso   1.00
O562   O     0.50000   0.20488   0.42845   0.00000  Uiso   1.00
O563   O     0.50000   0.12845   0.57155   0.00000  Uiso   1.00
O564   O     0.50000   0.20488   0.57155   0.00000  Uiso   1.00
O565   O     0.50000   0.12845   0.42845   0.00000  Uiso   1.00
O566   O     0.47487   0.05903   0.60870   0.00000  Uiso   1.00
S567   S     0.51734   0.04005   0.60246   0.00000  Uiso   1.00
S568   S     0.44070   0.28052   0.41492   0.00000  Uiso   1.00
S569   S     0.45805   0.05109   0.40271   0.00000  Uiso   1.00
S570   S     0.57490   0.29049   0.56030   0.00000  Uiso   1.00
Zn571  Zn    0.50000   0.21771   0.50000   0.00000  Uiso   1.00
Zn572  Zn    0.50000   0.11563   0.50000   0.00000  Uiso   1.00
C573   C     0.75361   0.16658   0.50063   0.00000  Uiso   1.00
C574   C     0.68608   0.20072   0.47744   0.00000  Uiso   1.00
C575   C     0.95720   0.16598   0.49987   0.00000  Uiso   1.00
C576   C     0.70925   0.16643   0.50087   0.00000  Uiso   1.00
C577   C     0.85163   0.02279   0.53938   0.00000  Uiso   1.00
C578   C     0.80825   0.30856   0.46340   0.00000  Uiso   1.00
C579   C     0.81140   0.02331   0.46057   0.00000  Uiso   1.00
C580   C     0.85904   0.31053   0.53345   0.00000  Uiso   1.00
C581   C     0.91302   0.16658   0.50020   0.00000  Uiso   1.00
C582   C     0.83374   0.16664   0.40658   0.00000  Uiso   1.00
C583   C     0.83355   0.16673   0.59348   0.00000  Uiso   1.00
C584   C     0.83374   0.16670   0.35525   0.00000  Uiso   1.00
C585   C     0.83365   0.16682   0.64482   0.00000  Uiso   1.00
C586   C     0.68976   0.13170   0.52387   0.00000  Uiso   1.00
C587   C     0.97657   0.19946   0.47513   0.00000  Uiso   1.00
C588   C     0.98013   0.13178   0.52397   0.00000  Uiso   1.00
H589   H     0.70770   0.10526   0.54247   0.00000  Uiso   1.00
H590   H     0.95862   0.22449   0.45404   0.00000  Uiso   1.00
H591   H     0.96493   0.10556   0.54299   0.00000  Uiso   1.00
H592   H     0.70060   0.22819   0.46036   0.00000  Uiso   1.00
H593   H     0.89199   0.07912   0.65430   0.00000  Uiso   1.00
H594   H     0.74436   0.22191   0.38223   0.00000  Uiso   1.00
H595   H     0.75597   0.10965   0.38149   0.00000  Uiso   1.00
H596   H     0.96737   0.28137   0.52902   0.00000  Uiso   1.00
N597   N     0.83333   0.28573   0.50000   0.00000  Uiso   1.00
N598   N     0.83333   0.04760   0.50000   0.00000  Uiso   1.00
O599   O     0.77226   0.20487   0.50000   0.00000  Uiso   1.00
O600   O     0.85691   0.00147   0.63754   0.00000  Uiso   1.00
O601   O     0.88927   0.07704   0.61708   0.00000  Uiso   1.00
O602   O     0.73227   0.30327   0.41270   0.00000  Uiso   1.00
O603   O     0.79387   0.28622   0.36640   0.00000  Uiso   1.00
O604   O     0.76116   0.22729   0.41484   0.00000  Uiso   1.00
O605   O     0.82959   0.06330   0.37730   0.00000  Uiso   1.00
O606   O     0.76351   0.02709   0.36342   0.00000  Uiso   1.00
O607   O     0.76266   0.09525   0.41455   0.00000  Uiso   1.00
O608   O     0.93060   0.32420   0.59460   0.00000  Uiso   1.00
O609   O     0.90363   0.24895   0.58949   0.00000  Uiso   1.00
O610   O     0.89441   0.12846   0.50000   0.00000  Uiso   1.00
O611   O     0.93815   0.28148   0.51302   0.00000  Uiso   1.00
O612   O     0.89441   0.20487   0.50000   0.00000  Uiso   1.00
O613   O     0.77226   0.12846   0.50000   0.00000  Uiso   1.00
O614   O     0.83334   0.20488   0.42845   0.00000  Uiso   1.00
O615   O     0.83333   0.12845   0.57155   0.00000  Uiso   1.00
O616   O     0.83333   0.20488   0.57155   0.00000  Uiso   1.00
O617   O     0.83334   0.12845   0.42845   0.00000  Uiso   1.00
O618   O     0.80821   0.05903   0.60870   0.00000  Uiso   1.00
S619   S     0.85068   0.04005   0.60246   0.00000  Uiso   1.00
S620   S     0.77404   0.28052   0.41492   0.00000  Uiso   1.00
S621   S     0.79138   0.05109   0.40271   0.00000  Uiso   1.00
S622   S     0.90824   0.29049   0.56030   0.00000  Uiso   1.00
Zn623  Zn    0.83333   0.21771   0.50000   0.00000  Uiso   1.00
Zn624  Zn    0.83333   0.11563   0.50000   0.00000  Uiso   1.00
C625   C     0.08694   0.49992   0.50063   0.00000  Uiso   1.00
C626   C     0.01942   0.53405   0.47744   0.00000  Uiso   1.00
C627   C     0.29053   0.49932   0.49987   0.00000  Uiso   1.00
C628   C     0.04259   0.49976   0.50087   0.00000  Uiso   1.00
C629   C     0.18496   0.35613   0.53938   0.00000  Uiso   1.00
C630   C     0.14158   0.64190   0.46340   0.00000  Uiso   1.00
C631   C     0.14473   0.35664   0.46057   0.00000  Uiso   1.00
C632   C     0.19237   0.64387   0.53345   0.00000  Uiso   1.00
C633   C     0.24635   0.49992   0.50020   0.00000  Uiso   1.00
C634   C     0.16708   0.49998   0.40658   0.00000  Uiso   1.00
C635   C     0.16688   0.50007   0.59348   0.00000  Uiso   1.00
C636   C     0.16708   0.50004   0.35525   0.00000  Uiso   1.00
C637   C     0.16698   0.50016   0.64482   0.00000  Uiso   1.00
C638   C     0.02309   0.46503   0.52387   0.00000  Uiso   1.00
C639   C     0.30990   0.53279   0.47513   0.00000  Uiso   1.00
C640   C     0.31347   0.46512   0.52397   0.00000  Uiso   1.00
H641   H     0.04103   0.43859   0.54247   0.00000  Uiso   1.00
H642   H     0.29195   0.55783   0.45404   0.00000  Uiso   1.00
H643   H     0.29826   0.43889   0.54299   0.00000  Uiso   1.00
H644   H     0.03393   0.56153   0.46036   0.00000  Uiso   1.00
H645   H     0.22532   0.41245   0.65430   0.00000  Uiso   1.00
H646   H     0.07769   0.55525   0.38223   0.00000  Uiso   1.00
H647   H     0.08930   0.44298   0.38149   0.00000  Uiso   1.00
H648   H     0.30070   0.61470   0.52902   0.00000  Uiso   1.00
N649   N     0.16667   0.61907   0.50000   0.00000  Uiso   1.00
N650   N     0.16667   0.38093   0.50000   0.00000  Uiso   1.00
O651   O     0.10559   0.53821   0.50000   0.00000  Uiso   1.00
O652   O     0.19024   0.33481   0.63754   0.00000  Uiso   1.00
O653   O     0.22260   0.41037   0.61708   0.00000  Uiso   1.00
O654   O     0.06560   0.63661   0.41270   0.00000  Uiso   1.00
O655   O     0.12720   0.61955   0.36640   0.00000  Uiso   1.00
O656   O     0.09449   0.56063   0.41484   0.00000  Uiso   1.00
O657   O     0.16292   0.39663   0.37730   0.00000  Uiso   1.00
O658   O     0.09684   0.36042   0.36342   0.00000  Uiso   1.00
O659   O     0.09600   0.42859   0.41455   0.00000  Uiso   1.00
O660   O     0.26393   0.65753   0.59460   0.00000  Uiso   1.00
O661   O     0.23697   0.58228   0.58949   0.00000  Uiso   1.00
O662   O     0.22774   0.46179   0.50000   0.00000  Uiso   1.00
O663   O     0.27148   0.61481   0.51302   0.00000  Uiso   1.00
O664   O     0.22774   0.53821   0.50000   0.00000  Uiso   1.00
O665   O     0.10559   0.46179   0.50000   0.00000  Uiso   1.00
O666   O     0.16667   0.53821   0.42845   0.00000  Uiso   1.00
O667   O     0.16666   0.46179   0.57155   0.00000  Uiso   1.00
O668   O     0.16666   0.53821   0.57155   0.00000  Uiso   1.00
O669   O     0.16667   0.46179   0.42845   0.00000  Uiso   1.00
O670   O     0.14154   0.39236   0.60870   0.00000  Uiso   1.00
S671   S     0.18401   0.37338   0.60246   0.00000  Uiso   1.00
S672   S     0.10737   0.61386   0.41492   0.00000  Uiso   1.00
S673   S     0.12472   0.38442   0.40271   0.00000  Uiso   1.00
S674   S     0.24157   0.62383   0.56030   0.00000  Uiso   1.00
Zn675  Zn    0.16667   0.55104   0.50000   0.00000  Uiso   1.00
Zn676  Zn    0.16667   0.44896   0.50000   0.00000  Uiso   1.00
C677   C     0.42028   0.49992   0.50063   0.00000  Uiso   1.00
C678   C     0.35275   0.53405   0.47744   0.00000  Uiso   1.00
C679   C     0.62387   0.49932   0.49987   0.00000  Uiso   1.00
C680   C     0.37592   0.49976   0.50087   0.00000  Uiso   1.00
C681   C     0.51830   0.35613   0.53938   0.00000  Uiso   1.00
C682   C     0.47492   0.64190   0.46340   0.00000  Uiso   1.00
C683   C     0.47806   0.35664   0.46057   0.00000  Uiso   1.00
C684   C     0.52570   0.64387   0.53345   0.00000  Uiso   1.00
C685   C     0.57969   0.49992   0.50020   0.00000  Uiso   1.00
C686   C     0.50041   0.49998   0.40658   0.00000  Uiso   1.00
C687   C     0.50021   0.50007   0.59348   0.00000  Uiso   1.00
C688   C     0.50041   0.50004   0.35525   0.00000  Uiso   1.00
C689   C     0.50031   0.50016   0.64482   0.00000  Uiso   1.00
C690   C     0.35642   0.46503   0.52387   0.00000  Uiso   1.00
C691   C     0.64323   0.53279   0.47513   0.00000  Uiso   1.00
C692   C     0.64680   0.46512   0.52397   0.00000  Uiso   1.00
H693   H     0.37436   0.43859   0.54247   0.00000  Uiso   1.00
H694   H     0.62528   0.55783   0.45404   0.00000  Uiso   1.00
H695   H     0.63160   0.43889   0.54299   0.00000  Uiso   1.00
H696   H     0.36726   0.56153   0.46036   0.00000  Uiso   1.00
H697   H     0.55866   0.41245   0.65430   0.00000  Uiso   1.00
H698   H     0.41103   0.55525   0.38223   0.00000  Uiso   1.00
H699   H     0.42263   0.44298   0.38149   0.00000  Uiso   1.00
H700   H     0.63403   0.61470   0.52902   0.00000  Uiso   1.00
N701   N     0.50000   0.61907   0.50000   0.00000  Uiso   1.00
N702   N     0.50000   0.38093   0.50000   0.00000  Uiso   1.00
O703   O     0.43892   0.53821   0.50000   0.00000  Uiso   1.00
O704   O     0.52358   0.33481   0.63754   0.00000  Uiso   1.00
O705   O     0.55594   0.41037   0.61708   0.00000  Uiso   1.00
O706   O     0.39894   0.63661   0.41270   0.00000  Uiso   1.00
O707   O     0.46053   0.61955   0.36640   0.00000  Uiso   1.00
O708   O     0.42783   0.56063   0.41484   0.00000  Uiso   1.00
O709   O     0.49625   0.39663   0.37730   0.00000  Uiso   1.00
O710   O     0.43017   0.36042   0.36342   0.00000  Uiso   1.00
O711   O     0.42933   0.42859   0.41455   0.00000  Uiso   1.00
O712   O     0.59726   0.65753   0.59460   0.00000  Uiso   1.00
O713   O     0.57030   0.58228   0.58949   0.00000  Uiso   1.00
O714   O     0.56108   0.46179   0.50000   0.00000  Uiso   1.00
O715   O     0.60481   0.61481   0.51302   0.00000  Uiso   1.00
O716   O     0.56108   0.53821   0.50000   0.00000  Uiso   1.00
O717   O     0.43892   0.46179   0.50000   0.00000  Uiso   1.00
O718   O     0.50000   0.53821   0.42845   0.00000  Uiso   1.00
O719   O     0.50000   0.46179   0.57155   0.00000  Uiso   1.00
O720   O     0.50000   0.53821   0.57155   0.00000  Uiso   1.00
O721   O     0.50000   0.46179   0.42845   0.00000  Uiso   1.00
O722   O     0.47487   0.39236   0.60870   0.00000  Uiso   1.00
S723   S     0.51734   0.37338   0.60246   0.00000  Uiso   1.00
S724   S     0.44070   0.61386   0.41492   0.00000  Uiso   1.00
S725   S     0.45805   0.38442   0.40271   0.00000  Uiso   1.00
S726   S     0.57490   0.62383   0.56030   0.00000  Uiso   1.00
Zn727  Zn    0.50000   0.55104   0.50000   0.00000  Uiso   1.00
Zn728  Zn    0.50000   0.44896   0.50000   0.00000  Uiso   1.00
C729   C     0.75361   0.49992   0.50063   0.00000  Uiso   1.00
C730   C     0.68608   0.53405   0.47744   0.00000  Uiso   1.00
C731   C     0.95720   0.49932   0.49987   0.00000  Uiso   1.00
C732   C     0.70925   0.49976   0.50087   0.00000  Uiso   1.00
C733   C     0.85163   0.35613   0.53938   0.00000  Uiso   1.00
C734   C     0.80825   0.64190   0.46340   0.00000  Uiso   1.00
C735   C     0.81140   0.35664   0.46057   0.00000  Uiso   1.00
C736   C     0.85904   0.64387   0.53345   0.00000  Uiso   1.00
C737   C     0.91302   0.49992   0.50020   0.00000  Uiso   1.00
C738   C     0.83374   0.49998   0.40658   0.00000  Uiso   1.00
C739   C     0.83355   0.50007   0.59348   0.00000  Uiso   1.00
C740   C     0.83374   0.50004   0.35525   0.00000  Uiso   1.00
C741   C     0.83365   0.50016   0.64482   0.00000  Uiso   1.00
C742   C     0.68976   0.46503   0.52387   0.00000  Uiso   1.00
C743   C     0.97657   0.53279   0.47513   0.00000  Uiso   1.00
C744   C     0.98013   0.46512   0.52397   0.00000  Uiso   1.00
H745   H     0.70770   0.43859   0.54247   0.00000  Uiso   1.00
H746   H     0.95862   0.55783   0.45404   0.00000  Uiso   1.00
H747   H     0.96493   0.43889   0.54299   0.00000  Uiso   1.00
H748   H     0.70060   0.56153   0.46036   0.00000  Uiso   1.00
H749   H     0.89199   0.41245   0.65430   0.00000  Uiso   1.00
H750   H     0.74436   0.55525   0.38223   0.00000  Uiso   1.00
H751   H     0.75597   0.44298   0.38149   0.00000  Uiso   1.00
H752   H     0.96737   0.61470   0.52902   0.00000  Uiso   1.00
N753   N     0.83333   0.61907   0.50000   0.00000  Uiso   1.00
N754   N     0.83333   0.38093   0.50000   0.00000  Uiso   1.00
O755   O     0.77226   0.53821   0.50000   0.00000  Uiso   1.00
O756   O     0.85691   0.33481   0.63754   0.00000  Uiso   1.00
O757   O     0.88927   0.41037   0.61708   0.00000  Uiso   1.00
O758   O     0.73227   0.63661   0.41270   0.00000  Uiso   1.00
O759   O     0.79387   0.61955   0.36640   0.00000  Uiso   1.00
O760   O     0.76116   0.56063   0.41484   0.00000  Uiso   1.00
O761   O     0.82959   0.39663   0.37730   0.00000  Uiso   1.00
O762   O     0.76351   0.36042   0.36342   0.00000  Uiso   1.00
O763   O     0.76266   0.42859   0.41455   0.00000  Uiso   1.00
O764   O     0.93060   0.65753   0.59460   0.00000  Uiso   1.00
O765   O     0.90363   0.58228   0.58949   0.00000  Uiso   1.00
O766   O     0.89441   0.46179   0.50000   0.00000  Uiso   1.00
O767   O     0.93815   0.61481   0.51302   0.00000  Uiso   1.00
O768   O     0.89441   0.53821   0.50000   0.00000  Uiso   1.00
O769   O     0.77226   0.46179   0.50000   0.00000  Uiso   1.00
O770   O     0.83334   0.53821   0.42845   0.00000  Uiso   1.00
O771   O     0.83333   0.46179   0.57155   0.00000  Uiso   1.00
O772   O     0.83333   0.53821   0.57155   0.00000  Uiso   1.00
O773   O     0.83334   0.46179   0.42845   0.00000  Uiso   1.00
O774   O     0.80821   0.39236   0.60870   0.00000  Uiso   1.00
S775   S     0.85068   0.37338   0.60246   0.00000  Uiso   1.00
S776   S     0.77404   0.61386   0.41492   0.00000  Uiso   1.00
S777   S     0.79138   0.38442   0.40271   0.00000  Uiso   1.00
S778   S     0.90824   0.62383   0.56030   0.00000  Uiso   1.00
Zn779  Zn    0.83333   0.55104   0.50000   0.00000  Uiso   1.00
Zn780  Zn    0.83333   0.44896   0.50000   0.00000  Uiso   1.00
C781   C     0.08694   0.83325   0.50063   0.00000  Uiso   1.00
C782   C     0.01942   0.86739   0.47744   0.00000  Uiso   1.00
C783   C     0.29053   0.83265   0.49987   0.00000  Uiso   1.00
C784   C     0.04259   0.83309   0.50087   0.00000  Uiso   1.00
C785   C     0.18496   0.68946   0.53938   0.00000  Uiso   1.00
C786   C     0.14158   0.97523   0.46340   0.00000  Uiso   1.00
C787   C     0.14473   0.68998   0.46057   0.00000  Uiso   1.00
C788   C     0.19237   0.97720   0.53345   0.00000  Uiso   1.00
C789   C     0.24635   0.83325   0.50020   0.00000  Uiso   1.00
C790   C     0.16708   0.83331   0.40658   0.00000  Uiso   1.00
C791   C     0.16688   0.83340   0.59348   0.00000  Uiso   1.00
C792   C     0.16708   0.83337   0.35525   0.00000  Uiso   1.00
C793   C     0.16698   0.83349   0.64482   0.00000  Uiso   1.00
C794   C     0.02309   0.79836   0.52387   0.00000  Uiso   1.00
C795   C     0.30990   0.86612   0.47513   0.00000  Uiso   1.00
C796   C     0.31347   0.79845   0.52397   0.00000  Uiso   1.00
H797   H     0.04103   0.77192   0.54247   0.00000  Uiso   1.00
H798   H     0.29195   0.89116   0.45404   0.00000  Uiso   1.00
H799   H     0.29826   0.77223   0.54299   0.00000  Uiso   1.00
H800   H     0.03393   0.89486   0.46036   0.00000  Uiso   1.00
H801   H     0.22532   0.74579   0.65430   0.00000  Uiso   1.00
H802   H     0.07769   0.88858   0.38223   0.00000  Uiso   1.00
H803   H     0.08930   0.77632   0.38149   0.00000  Uiso   1.00
H804   H     0.30070   0.94804   0.52902   0.00000  Uiso   1.00
N805   N     0.16667   0.95240   0.50000   0.00000  Uiso   1.00
N806   N     0.16667   0.71427   0.50000   0.00000  Uiso   1.00
O807   O     0.10559   0.87154   0.50000   0.00000  Uiso   1.00
O808   O     0.19024   0.66814   0.63754   0.00000  Uiso   1.00
O809   O     0.22260   0.74370   0.61708   0.00000  Uiso   1.00
O810   O     0.06560   0.96994   0.41270   0.00000  Uiso   1.00
O811   O     0.12720   0.95289   0.36640   0.00000  Uiso   1.00
O812   O     0.09449   0.89396   0.41484   0.00000  Uiso   1.00
O813   O     0.16292   0.72996   0.37730   0.00000  Uiso   1.00
O814   O     0.09684   0.69376   0.36342   0.00000  Uiso   1.00
O815   O     0.09600   0.76192   0.41455   0.00000  Uiso   1.00
O816   O     0.26393   0.99087   0.59460   0.00000  Uiso   1.00
O817   O     0.23697   0.91561   0.58949   0.00000  Uiso   1.00
O818   O     0.22774   0.79513   0.50000   0.00000  Uiso   1.00
O819   O     0.27148   0.94815   0.51302   0.00000  Uiso   1.00
O820   O     0.22774   0.87154   0.50000   0.00000  Uiso   1.00
O821   O     0.10559   0.79513   0.50000   0.00000  Uiso   1.00
O822   O     0.16667   0.87155   0.42845   0.00000  Uiso   1.00
O823   O     0.16666   0.79512   0.57155   0.00000  Uiso   1.00
O824   O     0.16666   0.87155   0.57155   0.00000  Uiso   1.00
O825   O     0.16667   0.79512   0.42845   0.00000  Uiso   1.00
O826   O     0.14154   0.72570   0.60870   0.00000  Uiso   1.00
S827   S     0.18401   0.70672   0.60246   0.00000  Uiso   1.00
S828   S     0.10737   0.94719   0.41492   0.00000  Uiso   1.00
S829   S     0.12472   0.71776   0.40271   0.00000  Uiso   1.00
S830   S     0.24157   0.95716   0.56030   0.00000  Uiso   1.00
Zn831  Zn    0.16667   0.88437   0.50000   0.00000  Uiso   1.00
Zn832  Zn    0.16667   0.78229   0.50000   0.00000  Uiso   1.00
C833   C     0.42028   0.83325   0.50063   0.00000  Uiso   1.00
C834   C     0.35275   0.86739   0.47744   0.00000  Uiso   1.00
C835   C     0.62387   0.83265   0.49987   0.00000  Uiso   1.00
C836   C     0.37592   0.83309   0.50087   0.00000  Uiso   1.00
C837   C     0.51830   0.68946   0.53938   0.00000  Uiso   1.00
C838   C     0.47492   0.97523   0.46340   0.00000  Uiso   1.00
C839   C     0.47806   0.68998   0.46057   0.00000  Uiso   1.00
C840   C     0.52570   0.97720   0.53345   0.00000  Uiso   1.00
C841   C     0.57969   0.83325   0.50020   0.00000  Uiso   1.00
C842   C     0.50041   0.83331   0.40658   0.00000  Uiso   1.00
C843   C     0.50021   0.83340   0.59348   0.00000  Uiso   1.00
C844   C     0.50041   0.83337   0.35525   0.00000  Uiso   1.00
C845   C     0.50031   0.83349   0.64482   0.00000  Uiso   1.00
C846   C     0.35642   0.79836   0.52387   0.00000  Uiso   1.00
C847   C     0.64323   0.86612   0.47513   0.00000  Uiso   1.00
C848   C     0.64680   0.79845   0.52397   0.00000  Uiso   1.00
H849   H     0.37436   0.77192   0.54247   0.00000  Uiso   1.00
H850   H     0.62528   0.89116   0.45404   0.00000  Uiso   1.00
H851   H     0.63160   0.77223   0.54299   0.00000  Uiso   1.00
H852   H     0.36726   0.89486   0.46036   0.00000  Uiso   1.00
H853   H     0.55866   0.74579   0.65430   0.00000  Uiso   1.00
H854   H     0.41103   0.88858   0.38223   0.00000  Uiso   1.00
H855   H     0.42263   0.77632   0.38149   0.00000  Uiso   1.00
H856   H     0.63403   0.94804   0.52902   0.00000  Uiso   1.00
N857   N     0.50000   0.95240   0.50000   0.00000  Uiso   1.00
N858   N     0.50000   0.71427   0.50000   0.00000  Uiso   1.00
O859   O     0.43892   0.87154   0.50000   0.00000  Uiso   1.00
O860   O     0.52358   0.66814   0.63754   0.00000  Uiso   1.00
O861   O     0.55594   0.74370   0.61708   0.00000  Uiso   1.00
O862   O     0.39894   0.96994   0.41270   0.00000  Uiso   1.00
O863   O     0.46053   0.95289   0.36640   0.00000  Uiso   1.00
O864   O     0.42783   0.89396   0.41484   0.00000  Uiso   1.00
O865   O     0.49625   0.72996   0.37730   0.00000  Uiso   1.00
O866   O     0.43017   0.69376   0.36342   0.00000  Uiso   1.00
O867   O     0.42933   0.76192   0.41455   0.00000  Uiso   1.00
O868   O     0.59726   0.99087   0.59460   0.00000  Uiso   1.00
O869   O     0.57030   0.91561   0.58949   0.00000  Uiso   1.00
O870   O     0.56108   0.79513   0.50000   0.00000  Uiso   1.00
O871   O     0.60481   0.94815   0.51302   0.00000  Uiso   1.00
O872   O     0.56108   0.87154   0.50000   0.00000  Uiso   1.00
O873   O     0.43892   0.79513   0.50000   0.00000  Uiso   1.00
O874   O     0.50000   0.87155   0.42845   0.00000  Uiso   1.00
O875   O     0.50000   0.79512   0.57155   0.00000  Uiso   1.00
O876   O     0.50000   0.87155   0.57155   0.00000  Uiso   1.00
O877   O     0.50000   0.79512   0.42845   0.00000  Uiso   1.00
O878   O     0.47487   0.72570   0.60870   0.00000  Uiso   1.00
S879   S     0.51734   0.70672   0.60246   0.00000  Uiso   1.00
S880   S     0.44070   0.94719   0.41492   0.00000  Uiso   1.00
S881   S     0.45805   0.71776   0.40271   0.00000  Uiso   1.00
S882   S     0.57490   0.95716   0.56030   0.00000  Uiso   1.00
Zn883  Zn    0.50000   0.88437   0.50000   0.00000  Uiso   1.00
Zn884  Zn    0.50000   0.78229   0.50000   0.00000  Uiso   1.00
C885   C     0.75361   0.83325   0.50063   0.00000  Uiso   1.00
C886   C     0.68608   0.86739   0.47744   0.00000  Uiso   1.00
C887   C     0.95720   0.83265   0.49987   0.00000  Uiso   1.00
C888   C     0.70925   0.83309   0.50087   0.00000  Uiso   1.00
C889   C     0.85163   0.68946   0.53938   0.00000  Uiso   1.00
C890   C     0.80825   0.97523   0.46340   0.00000  Uiso   1.00
C891   C     0.81140   0.68998   0.46057   0.00000  Uiso   1.00
C892   C     0.85904   0.97720   0.53345   0.00000  Uiso   1.00
C893   C     0.91302   0.83325   0.50020   0.00000  Uiso   1.00
C894   C     0.83374   0.83331   0.40658   0.00000  Uiso   1.00
C895   C     0.83355   0.83340   0.59348   0.00000  Uiso   1.00
C896   C     0.83374   0.83337   0.35525   0.00000  Uiso   1.00
C897   C     0.83365   0.83349   0.64482   0.00000  Uiso   1.00
C898   C     0.68976   0.79836   0.52387   0.00000  Uiso   1.00
C899   C     0.97657   0.86612   0.47513   0.00000  Uiso   1.00
C900   C     0.98013   0.79845   0.52397   0.00000  Uiso   1.00
H901   H     0.70770   0.77192   0.54247   0.00000  Uiso   1.00
H902   H     0.95862   0.89116   0.45404   0.00000  Uiso   1.00
H903   H     0.96493   0.77223   0.54299   0.00000  Uiso   1.00
H904   H     0.70060   0.89486   0.46036   0.00000  Uiso   1.00
H905   H     0.89199   0.74579   0.65430   0.00000  Uiso   1.00
H906   H     0.74436   0.88858   0.38223   0.00000  Uiso   1.00
H907   H     0.75597   0.77632   0.38149   0.00000  Uiso   1.00
H908   H     0.96737   0.94804   0.52902   0.00000  Uiso   1.00
N909   N     0.83333   0.95240   0.50000   0.00000  Uiso   1.00
N910   N     0.83333   0.71427   0.50000   0.00000  Uiso   1.00
O911   O     0.77226   0.87154   0.50000   0.00000  Uiso   1.00
O912   O     0.85691   0.66814   0.63754   0.00000  Uiso   1.00
O913   O     0.88927   0.74370   0.61708   0.00000  Uiso   1.00
O914   O     0.73227   0.96994   0.41270   0.00000  Uiso   1.00
O915   O     0.79387   0.95289   0.36640   0.00000  Uiso   1.00
O916   O     0.76116   0.89396   0.41484   0.00000  Uiso   1.00
O917   O     0.82959   0.72996   0.37730   0.00000  Uiso   1.00
O918   O     0.76351   0.69376   0.36342   0.00000  Uiso   1.00
O919   O     0.76266   0.76192   0.41455   0.00000  Uiso   1.00
O920   O     0.93060   0.99087   0.59460   0.00000  Uiso   1.00
O921   O     0.90363   0.91561   0.58949   0.00000  Uiso   1.00
O922   O     0.89441   0.79513   0.50000   0.00000  Uiso   1.00
O923   O     0.93815   0.94815   0.51302   0.00000  Uiso   1.00
O924   O     0.89441   0.87154   0.50000   0.00000  Uiso   1.00
O925   O     0.77226   0.79513   0.50000   0.00000  Uiso   1.00
O926   O     0.83334   0.87155   0.42845   0.00000  Uiso   1.00
O927   O     0.83333   0.79512   0.57155   0.00000  Uiso   1.00
O928   O     0.83333   0.87155   0.57155   0.00000  Uiso   1.00
O929   O     0.83334   0.79512   0.42845   0.00000  Uiso   1.00
O930   O     0.80821   0.72570   0.60870   0.00000  Uiso   1.00
S931   S     0.85068   0.70672   0.60246   0.00000  Uiso   1.00
S932   S     0.77404   0.94719   0.41492   0.00000  Uiso   1.00
S933   S     0.79138   0.71776   0.40271   0.00000  Uiso   1.00
S934   S     0.90824   0.95716   0.56030   0.00000  Uiso   1.00
Zn935  Zn    0.83333   0.88437   0.50000   0.00000  Uiso   1.00
Zn936  Zn    0.83333   0.78229   0.50000   0.00000  Uiso   1.00
C937   C     0.08694   0.16658   0.83396   0.00000  Uiso   1.00
C938   C     0.01942   0.20072   0.81078   0.00000  Uiso   1.00
C939   C     0.29053   0.16598   0.83321   0.00000  Uiso   1.00
C940   C     0.04259   0.16643   0.83421   0.00000  Uiso   1.00
C941   C     0.18496   0.02279   0.87272   0.00000  Uiso   1.00
C942   C     0.14158   0.30856   0.79674   0.00000  Uiso   1.00
C943   C     0.14473   0.02331   0.79390   0.00000  Uiso   1.00
C944   C     0.19237   0.31053   0.86678   0.00000  Uiso   1.00
C945   C     0.24635   0.16658   0.83354   0.00000  Uiso   1.00
C946   C     0.16708   0.16664   0.73991   0.00000  Uiso   1.00
C947   C     0.16688   0.16673   0.92682   0.00000  Uiso   1.00
C948   C     0.16708   0.16670   0.68858   0.00000  Uiso   1.00
C949   C     0.16698   0.16682   0.97815   0.00000  Uiso   1.00
C950   C     0.02309   0.13170   0.85720   0.00000  Uiso   1.00
C951   C     0.30990   0.19946   0.80847   0.00000  Uiso   1.00
C952   C     0.31347   0.13178   0.85730   0.00000  Uiso   1.00
H953   H     0.04103   0.10526   0.87580   0.00000  Uiso   1.00
H954   H     0.29195   0.22449   0.78737   0.00000  Uiso   1.00
H955   H     0.29826   0.10556   0.87632   0.00000  Uiso   1.00
H956   H     0.03393   0.22819   0.79369   0.00000  Uiso   1.00
H957   H     0.22532   0.07912   0.98763   0.00000  Uiso   1.00
H958   H     0.07769   0.22191   0.71557   0.00000  Uiso   1.00
H959   H     0.08930   0.10965   0.71483   0.00000  Uiso   1.00
H960   H     0.30070   0.28137   0.86235   0.00000  Uiso   1.00
N961   N     0.16667   0.28573   0.83333   0.00000  Uiso   1.00
N962   N     0.16667   0.04760   0.83333   0.00000  Uiso   1.00
O963   O     0.10559   0.20487   0.83333   0.00000  Uiso   1.00
O964   O     0.19024   0.00147   0.97087   0.00000  Uiso   1.00
O965   O     0.22260   0.07704   0.95042   0.00000  Uiso   1.00
O966   O     0.06560   0.30327   0.74604   0.00000  Uiso   1.00
O967   O     0.12720   0.28622   0.69973   0.00000  Uiso   1.00
O968   O     0.09449   0.22729   0.74818   0.00000  Uiso   1.00
O969   O     0.16292   0.06330   0.71063   0.00000  Uiso   1.00
O970   O     0.09684   0.02709   0.69675   0.00000  Uiso   1.00
O971   O     0.09600   0.09525   0.74788   0.00000  Uiso   1.00
O972   O     0.26393   0.32420   0.92793   0.00000  Uiso   1.00
O973   O     0.23697   0.24895   0.92282   0.00000  Uiso   1.00
O974   O     0.22774   0.12846   0.83334   0.00000  Uiso   1.00
O975   O     0.27148   0.28148   0.84636   0.00000  Uiso   1.00
O976   O     0.22774   0.20487   0.83334   0.00000  Uiso   1.00
O977   O     0.10559   0.12846   0.83333   0.00000  Uiso   1.00
O978   O     0.16667   0.20488   0.76178   0.00000  Uiso   1.00
O979   O     0.16666   0.12845   0.90489   0.00000  Uiso   1.00
O980   O     0.16666   0.20488   0.90489   0.00000  Uiso   1.00
O981   O     0.16667   0.12845   0.76178   0.00000  Uiso   1.00
O982   O     0.14154   0.05903   0.94203   0.00000  Uiso   1.00
S983   S     0.18401   0.04005   0.93579   0.00000  Uiso   1.00
S984   S     0.10737   0.28052   0.74825   0.00000  Uiso   1.00
S985   S     0.12472   0.05109   0.73604   0.00000  Uiso   1.00
S986   S     0.24157   0.29049   0.89363   0.00000  Uiso   1.00
Zn987  Zn    0.16667   0.21771   0.83333   0.00000  Uiso   1.00
Zn988  Zn    0.16667   0.11563   0.83333   0.00000  Uiso   1.00
C989   C     0.42028   0.16658   0.83396   0.00000  Uiso   1.00
C990   C     0.35275   0.20072   0.81078   0.00000  Uiso   1.00
C991   C     0.62387   0.16598   0.83321   0.00000  Uiso   1.00
C992   C     0.37592   0.16643   0.83421   0.00000  Uiso   1.00
C993   C     0.51830   0.02279   0.87272   0.00000  Uiso   1.00
C994   C     0.47492   0.30856   0.79674   0.00000  Uiso   1.00
C995   C     0.47806   0.02331   0.79390   0.00000  Uiso   1.00
C996   C     0.52570   0.31053   0.86678   0.00000  Uiso   1.00
C997   C     0.57969   0.16658   0.83354   0.00000  Uiso   1.00
C998   C     0.50041   0.16664   0.73991   0.00000  Uiso   1.00
C999   C     0.50021   0.16673   0.92682   0.00000  Uiso   1.00
C1000  C     0.50041   0.16670   0.68858   0.00000  Uiso   1.00
C1001  C     0.50031   0.16682   0.97815   0.00000  Uiso   1.00
C1002  C     0.35642   0.13170   0.85720   0.00000  Uiso   1.00
C1003  C     0.64323   0.19946   0.80847   0.00000  Uiso   1.00
C1004  C     0.64680   0.13178   0.85730   0.00000  Uiso   1.00
H1005  H     0.37436   0.10526   0.87580   0.00000  Uiso   1.00
H1006  H     0.62528   0.22449   0.78737   0.00000  Uiso   1.00
H1007  H     0.63160   0.10556   0.87632   0.00000  Uiso   1.00
H1008  H     0.36726   0.22819   0.79369   0.00000  Uiso   1.00
H1009  H     0.55866   0.07912   0.98763   0.00000  Uiso   1.00
H1010  H     0.41103   0.22191   0.71557   0.00000  Uiso   1.00
H1011  H     0.42263   0.10965   0.71483   0.00000  Uiso   1.00
H1012  H     0.63403   0.28137   0.86235   0.00000  Uiso   1.00
N1013  N     0.50000   0.28573   0.83333   0.00000  Uiso   1.00
N1014  N     0.50000   0.04760   0.83333   0.00000  Uiso   1.00
O1015  O     0.43892   0.20487   0.83333   0.00000  Uiso   1.00
O1016  O     0.52358   0.00147   0.97087   0.00000  Uiso   1.00
O1017  O     0.55594   0.07704   0.95042   0.00000  Uiso   1.00
O1018  O     0.39894   0.30327   0.74604   0.00000  Uiso   1.00
O1019  O     0.46053   0.28622   0.69973   0.00000  Uiso   1.00
O1020  O     0.42783   0.22729   0.74818   0.00000  Uiso   1.00
O1021  O     0.49625   0.06330   0.71063   0.00000  Uiso   1.00
O1022  O     0.43017   0.02709   0.69675   0.00000  Uiso   1.00
O1023  O     0.42933   0.09525   0.74788   0.00000  Uiso   1.00
O1024  O     0.59726   0.32420   0.92793   0.00000  Uiso   1.00
O1025  O     0.57030   0.24895   0.92282   0.00000  Uiso   1.00
O1026  O     0.56108   0.12846   0.83334   0.00000  Uiso   1.00
O1027  O     0.60481   0.28148   0.84636   0.00000  Uiso   1.00
O1028  O     0.56108   0.20487   0.83334   0.00000  Uiso   1.00
O1029  O     0.43892   0.12846   0.83333   0.00000  Uiso   1.00
O1030  O     0.50000   0.20488   0.76178   0.00000  Uiso   1.00
O1031  O     0.50000   0.12845   0.90489   0.00000  Uiso   1.00
O1032  O     0.50000   0.20488   0.90489   0.00000  Uiso   1.00
O1033  O     0.50000   0.12845   0.76178   0.00000  Uiso   1.00
O1034  O     0.47487   0.05903   0.94203   0.00000  Uiso   1.00
S1035  S     0.51734   0.04005   0.93579   0.00000  Uiso   1.00
S1036  S     0.44070   0.28052   0.74825   0.00000  Uiso   1.00
S1037  S     0.45805   0.05109   0.73604   0.00000  Uiso   1.00
S1038  S     0.57490   0.29049   0.89363   0.00000  Uiso   1.00
Zn1039 Zn    0.50000   0.21771   0.83333   0.00000  Uiso   1.00
Zn1040 Zn    0.50000   0.11563   0.83333   0.00000  Uiso   1.00
C1041  C     0.75361   0.16658   0.83396   0.00000  Uiso   1.00
C1042  C     0.68608   0.20072   0.81078   0.00000  Uiso   1.00
C1043  C     0.95720   0.16598   0.83321   0.00000  Uiso   1.00
C1044  C     0.70925   0.16643   0.83421   0.00000  Uiso   1.00
C1045  C     0.85163   0.02279   0.87272   0.00000  Uiso   1.00
C1046  C     0.80825   0.30856   0.79674   0.00000  Uiso   1.00
C1047  C     0.81140   0.02331   0.79390   0.00000  Uiso   1.00
C1048  C     0.85904   0.31053   0.86678   0.00000  Uiso   1.00
C1049  C     0.91302   0.16658   0.83354   0.00000  Uiso   1.00
C1050  C     0.83374   0.16664   0.73991   0.00000  Uiso   1.00
C1051  C     0.83355   0.16673   0.92682   0.00000  Uiso   1.00
C1052  C     0.83374   0.16670   0.68858   0.00000  Uiso   1.00
C1053  C     0.83365   0.16682   0.97815   0.00000  Uiso   1.00
C1054  C     0.68976   0.13170   0.85720   0.00000  Uiso   1.00
C1055  C     0.97657   0.19946   0.80847   0.00000  Uiso   1.00
C1056  C     0.98013   0.13178   0.85730   0.00000  Uiso   1.00
H1057  H     0.70770   0.10526   0.87580   0.00000  Uiso   1.00
H1058  H     0.95862   0.22449   0.78737   0.00000  Uiso   1.00
H1059  H     0.96493   0.10556   0.87632   0.00000  Uiso   1.00
H1060  H     0.70060   0.22819   0.79369   0.00000  Uiso   1.00
H1061  H     0.89199   0.07912   0.98763   0.00000  Uiso   1.00
H1062  H     0.74436   0.22191   0.71557   0.00000  Uiso   1.00
H1063  H     0.75597   0.10965   0.71483   0.00000  Uiso   1.00
H1064  H     0.96737   0.28137   0.86235   0.00000  Uiso   1.00
N1065  N     0.83333   0.28573   0.83333   0.00000  Uiso   1.00
N1066  N     0.83333   0.04760   0.83333   0.00000  Uiso   1.00
O1067  O     0.77226   0.20487   0.83333   0.00000  Uiso   1.00
O1068  O     0.85691   0.00147   0.97087   0.00000  Uiso   1.00
O1069  O     0.88927   0.07704   0.95042   0.00000  Uiso   1.00
O1070  O     0.73227   0.30327   0.74604   0.00000  Uiso   1.00
O1071  O     0.79387   0.28622   0.69973   0.00000  Uiso   1.00
O1072  O     0.76116   0.22729   0.74818   0.00000  Uiso   1.00
O1073  O     0.82959   0.06330   0.71063   0.00000  Uiso   1.00
O1074  O     0.76351   0.02709   0.69675   0.00000  Uiso   1.00
O1075  O     0.76266   0.09525   0.74788   0.00000  Uiso   1.00
O1076  O     0.93060   0.32420   0.92793   0.00000  Uiso   1.00
O1077  O     0.90363   0.24895   0.92282   0.00000  Uiso   1.00
O1078  O     0.89441   0.12846   0.83334   0.00000  Uiso   1.00
O1079  O     0.93815   0.28148   0.84636   0.00000  Uiso   1.00
O1080  O     0.89441   0.20487   0.83334   0.00000  Uiso   1.00
O1081  O     0.77226   0.12846   0.83333   0.00000  Uiso   1.00
O1082  O     0.83334   0.20488   0.76178   0.00000  Uiso   1.00
O1083  O     0.83333   0.12845   0.90489   0.00000  Uiso   1.00
O1084  O     0.83333   0.20488   0.90489   0.00000  Uiso   1.00
O1085  O     0.83334   0.12845   0.76178   0.00000  Uiso   1.00
O1086  O     0.80821   0.05903   0.94203   0.00000  Uiso   1.00
S1087  S     0.85068   0.04005   0.93579   0.00000  Uiso   1.00
S1088  S     0.77404   0.28052   0.74825   0.00000  Uiso   1.00
S1089  S     0.79138   0.05109   0.73604   0.00000  Uiso   1.00
S1090  S     0.90824   0.29049   0.89363   0.00000  Uiso   1.00
Zn1091 Zn    0.83333   0.21771   0.83333   0.00000  Uiso   1.00
Zn1092 Zn    0.83333   0.11563   0.83333   0.00000  Uiso   1.00
C1093  C     0.08694   0.49992   0.83396   0.00000  Uiso   1.00
C1094  C     0.01942   0.53405   0.81078   0.00000  Uiso   1.00
C1095  C     0.29053   0.49932   0.83321   0.00000  Uiso   1.00
C1096  C     0.04259   0.49976   0.83421   0.00000  Uiso   1.00
C1097  C     0.18496   0.35613   0.87272   0.00000  Uiso   1.00
C1098  C     0.14158   0.64190   0.79674   0.00000  Uiso   1.00
C1099  C     0.14473   0.35664   0.79390   0.00000  Uiso   1.00
C1100  C     0.19237   0.64387   0.86678   0.00000  Uiso   1.00
C1101  C     0.24635   0.49992   0.83354   0.00000  Uiso   1.00
C1102  C     0.16708   0.49998   0.73991   0.00000  Uiso   1.00
C1103  C     0.16688   0.50007   0.92682   0.00000  Uiso   1.00
C1104  C     0.16708   0.50004   0.68858   0.00000  Uiso   1.00
C1105  C     0.16698   0.50016   0.97815   0.00000  Uiso   1.00
C1106  C     0.02309   0.46503   0.85720   0.00000  Uiso   1.00
C1107  C     0.30990   0.53279   0.80847   0.00000  Uiso   1.00
C1108  C     0.31347   0.46512   0.85730   0.00000  Uiso   1.00
H1109  H     0.04103   0.43859   0.87580   0.00000  Uiso   1.00
H1110  H     0.29195   0.55783   0.78737   0.00000  Uiso   1.00
H1111  H     0.29826   0.43889   0.87632   0.00000  Uiso   1.00
H1112  H     0.03393   0.56153   0.79369   0.00000  Uiso   1.00
H1113  H     0.22532   0.41245   0.98763   0.00000  Uiso   1.00
H1114  H     0.07769   0.55525   0.71557   0.00000  Uiso   1.00
H1115  H     0.08930   0.44298   0.71483   0.00000  Uiso   1.00
H1116  H     0.30070   0.61470   0.86235   0.00000  Uiso   1.00
N1117  N     0.16667   0.61907   0.83333   0.00000  Uiso   1.00
N1118  N     0.16667   0.38093   0.83333   0.00000  Uiso   1.00
O1119  O     0.10559   0.53821   0.83333   0.00000  Uiso   1.00
O1120  O     0.19024   0.33481   0.97087   0.00000  Uiso   1.00
O1121  O     0.22260   0.41037   0.95042   0.00000  Uiso   1.00
O1122  O     0.06560   0.63661   0.74604   0.00000  Uiso   1.00
O1123  O     0.12720   0.61955   0.69973   0.00000  Uiso   1.00
O1124  O     0.09449   0.56063   0.74818   0.00000  Uiso   1.00
O1125  O     0.16292   0.39663   0.71063   0.00000  Uiso   1.00
O1126  O     0.09684   0.36042   0.69675   0.00000  Uiso   1.00
O1127  O     0.09600   0.42859   0.74788   0.00000  Uiso   1.00
O1128  O     0.26393   0.65753   0.92793   0.00000  Uiso   1.00
O1129  O     0.23697   0.58228   0.92282   0.00000  Uiso   1.00
O1130  O     0.22774   0.46179   0.83334   0.00000  Uiso   1.00
O1131  O     0.27148   0.61481   0.84636   0.00000  Uiso   1.00
O1132  O     0.22774   0.53821   0.83334   0.00000  Uiso   1.00
O1133  O     0.10559   0.46179   0.83333   0.00000  Uiso   1.00
O1134  O     0.16667   0.53821   0.76178   0.00000  Uiso   1.00
O1135  O     0.16666   0.46179   0.90489   0.00000  Uiso   1.00
O1136  O     0.16666   0.53821   0.90489   0.00000  Uiso   1.00
O1137  O     0.16667   0.46179   0.76178   0.00000  Uiso   1.00
O1138  O     0.14154   0.39236   0.94203   0.00000  Uiso   1.00
S1139  S     0.18401   0.37338   0.93579   0.00000  Uiso   1.00
S1140  S     0.10737   0.61386   0.74825   0.00000  Uiso   1.00
S1141  S     0.12472   0.38442   0.73604   0.00000  Uiso   1.00
S1142  S     0.24157   0.62383   0.89363   0.00000  Uiso   1.00
Zn1143 Zn    0.16667   0.55104   0.83333   0.00000  Uiso   1.00
Zn1144 Zn    0.16667   0.44896   0.83333   0.00000  Uiso   1.00
C1145  C     0.42028   0.49992   0.83396   0.00000  Uiso   1.00
C1146  C     0.35275   0.53405   0.81078   0.00000  Uiso   1.00
C1147  C     0.62387   0.49932   0.83321   0.00000  Uiso   1.00
C1148  C     0.37592   0.49976   0.83421   0.00000  Uiso   1.00
C1149  C     0.51830   0.35613   0.87272   0.00000  Uiso   1.00
C1150  C     0.47492   0.64190   0.79674   0.00000  Uiso   1.00
C1151  C     0.47806   0.35664   0.79390   0.00000  Uiso   1.00
C1152  C     0.52570   0.64387   0.86678   0.00000  Uiso   1.00
C1153  C     0.57969   0.49992   0.83354   0.00000  Uiso   1.00
C1154  C     0.50041   0.49998   0.73991   0.00000  Uiso   1.00
C1155  C     0.50021   0.50007   0.92682   0.00000  Uiso   1.00
C1156  C     0.50041   0.50004   0.68858   0.00000  Uiso   1.00
C1157  C     0.50031   0.50016   0.97815   0.00000  Uiso   1.00
C1158  C     0.35642   0.46503   0.85720   0.00000  Uiso   1.00
C1159  C     0.64323   0.53279   0.80847   0.00000  Uiso   1.00
C1160  C     0.64680   0.46512   0.85730   0.00000  Uiso   1.00
H1161  H     0.37436   0.43859   0.87580   0.00000  Uiso   1.00
H1162  H     0.62528   0.55783   0.78737   0.00000  Uiso   1.00
H1163  H     0.63160   0.43889   0.87632   0.00000  Uiso   1.00
H1164  H     0.36726   0.56153   0.79369   0.00000  Uiso   1.00
H1165  H     0.55866   0.41245   0.98763   0.00000  Uiso   1.00
H1166  H     0.41103   0.55525   0.71557   0.00000  Uiso   1.00
H1167  H     0.42263   0.44298   0.71483   0.00000  Uiso   1.00
H1168  H     0.63403   0.61470   0.86235   0.00000  Uiso   1.00
N1169  N     0.50000   0.61907   0.83333   0.00000  Uiso   1.00
N1170  N     0.50000   0.38093   0.83333   0.00000  Uiso   1.00
O1171  O     0.43892   0.53821   0.83333   0.00000  Uiso   1.00
O1172  O     0.52358   0.33481   0.97087   0.00000  Uiso   1.00
O1173  O     0.55594   0.41037   0.95042   0.00000  Uiso   1.00
O1174  O     0.39894   0.63661   0.74604   0.00000  Uiso   1.00
O1175  O     0.46053   0.61955   0.69973   0.00000  Uiso   1.00
O1176  O     0.42783   0.56063   0.74818   0.00000  Uiso   1.00
O1177  O     0.49625   0.39663   0.71063   0.00000  Uiso   1.00
O1178  O     0.43017   0.36042   0.69675   0.00000  Uiso   1.00
O1179  O     0.42933   0.42859   0.74788   0.00000  Uiso   1.00
O1180  O     0.59726   0.65753   0.92793   0.00000  Uiso   1.00
O1181  O     0.57030   0.58228   0.92282   0.00000  Uiso   1.00
O1182  O     0.56108   0.46179   0.83334   0.00000  Uiso   1.00
O1183  O     0.60481   0.61481   0.84636   0.00000  Uiso   1.00
O1184  O     0.56108   0.53821   0.83334   0.00000  Uiso   1.00
O1185  O     0.43892   0.46179   0.83333   0.00000  Uiso   1.00
O1186  O     0.50000   0.53821   0.76178   0.00000  Uiso   1.00
O1187  O     0.50000   0.46179   0.90489   0.00000  Uiso   1.00
O1188  O     0.50000   0.53821   0.90489   0.00000  Uiso   1.00
O1189  O     0.50000   0.46179   0.76178   0.00000  Uiso   1.00
O1190  O     0.47487   0.39236   0.94203   0.00000  Uiso   1.00
S1191  S     0.51734   0.37338   0.93579   0.00000  Uiso   1.00
S1192  S     0.44070   0.61386   0.74825   0.00000  Uiso   1.00
S1193  S     0.45805   0.38442   0.73604   0.00000  Uiso   1.00
S1194  S     0.57490   0.62383   0.89363   0.00000  Uiso   1.00
Zn1195 Zn    0.50000   0.55104   0.83333   0.00000  Uiso   1.00
Zn1196 Zn    0.50000   0.44896   0.83333   0.00000  Uiso   1.00
C1197  C     0.75361   0.49992   0.83396   0.00000  Uiso   1.00
C1198  C     0.68608   0.53405   0.81078   0.00000  Uiso   1.00
C1199  C     0.95720   0.49932   0.83321   0.00000  Uiso   1.00
C1200  C     0.70925   0.49976   0.83421   0.00000  Uiso   1.00
C1201  C     0.85163   0.35613   0.87272   0.00000  Uiso   1.00
C1202  C     0.80825   0.64190   0.79674   0.00000  Uiso   1.00
C1203  C     0.81140   0.35664   0.79390   0.00000  Uiso   1.00
C1204  C     0.85904   0.64387   0.86678   0.00000  Uiso   1.00
C1205  C     0.91302   0.49992   0.83354   0.00000  Uiso   1.00
C1206  C     0.83374   0.49998   0.73991   0.00000  Uiso   1.00
C1207  C     0.83355   0.50007   0.92682   0.00000  Uiso   1.00
C1208  C     0.83374   0.50004   0.68858   0.00000  Uiso   1.00
C1209  C     0.83365   0.50016   0.97815   0.00000  Uiso   1.00
C1210  C     0.68976   0.46503   0.85720   0.00000  Uiso   1.00
C1211  C     0.97657   0.53279   0.80847   0.00000  Uiso   1.00
C1212  C     0.98013   0.46512   0.85730   0.00000  Uiso   1.00
H1213  H     0.70770   0.43859   0.87580   0.00000  Uiso   1.00
H1214  H     0.95862   0.55783   0.78737   0.00000  Uiso   1.00
H1215  H     0.96493   0.43889   0.87632   0.00000  Uiso   1.00
H1216  H     0.70060   0.56153   0.79369   0.00000  Uiso   1.00
H1217  H     0.89199   0.41245   0.98763   0.00000  Uiso   1.00
H1218  H     0.74436   0.55525   0.71557   0.00000  Uiso   1.00
H1219  H     0.75597   0.44298   0.71483   0.00000  Uiso   1.00
H1220  H     0.96737   0.61470   0.86235   0.00000  Uiso   1.00
N1221  N     0.83333   0.61907   0.83333   0.00000  Uiso   1.00
N1222  N     0.83333   0.38093   0.83333   0.00000  Uiso   1.00
O1223  O     0.77226   0.53821   0.83333   0.00000  Uiso   1.00
O1224  O     0.85691   0.33481   0.97087   0.00000  Uiso   1.00
O1225  O     0.88927   0.41037   0.95042   0.00000  Uiso   1.00
O1226  O     0.73227   0.63661   0.74604   0.00000  Uiso   1.00
O1227  O     0.79387   0.61955   0.69973   0.00000  Uiso   1.00
O1228  O     0.76116   0.56063   0.74818   0.00000  Uiso   1.00
O1229  O     0.82959   0.39663   0.71063   0.00000  Uiso   1.00
O1230  O     0.76351   0.36042   0.69675   0.00000  Uiso   1.00
O1231  O     0.76266   0.42859   0.74788   0.00000  Uiso   1.00
O1232  O     0.93060   0.65753   0.92793   0.00000  Uiso   1.00
O1233  O     0.90363   0.58228   0.92282   0.00000  Uiso   1.00
O1234  O     0.89441   0.46179   0.83334   0.00000  Uiso   1.00
O1235  O     0.93815   0.61481   0.84636   0.00000  Uiso   1.00
O1236  O     0.89441   0.53821   0.83334   0.00000  Uiso   1.00
O1237  O     0.77226   0.46179   0.83333   0.00000  Uiso   1.00
O1238  O     0.83334   0.53821   0.76178   0.00000  Uiso   1.00
O1239  O     0.83333   0.46179   0.90489   0.00000  Uiso   1.00
O1240  O     0.83333   0.53821   0.90489   0.00000  Uiso   1.00
O1241  O     0.83334   0.46179   0.76178   0.00000  Uiso   1.00
O1242  O     0.80821   0.39236   0.94203   0.00000  Uiso   1.00
S1243  S     0.85068   0.37338   0.93579   0.00000  Uiso   1.00
S1244  S     0.77404   0.61386   0.74825   0.00000  Uiso   1.00
S1245  S     0.79138   0.38442   0.73604   0.00000  Uiso   1.00
S1246  S     0.90824   0.62383   0.89363   0.00000  Uiso   1.00
Zn1247 Zn    0.83333   0.55104   0.83333   0.00000  Uiso   1.00
Zn1248 Zn    0.83333   0.44896   0.83333   0.00000  Uiso   1.00
C1249  C     0.08694   0.83325   0.83396   0.00000  Uiso   1.00
C1250  C     0.01942   0.86739   0.81078   0.00000  Uiso   1.00
C1251  C     0.29053   0.83265   0.83321   0.00000  Uiso   1.00
C1252  C     0.04259   0.83309   0.83421   0.00000  Uiso   1.00
C1253  C     0.18496   0.68946   0.87272   0.00000  Uiso   1.00
C1254  C     0.14158   0.97523   0.79674   0.00000  Uiso   1.00
C1255  C     0.14473   0.68998   0.79390   0.00000  Uiso   1.00
C1256  C     0.19237   0.97720   0.86678   0.00000  Uiso   1.00
C1257  C     0.24635   0.83325   0.83354   0.00000  Uiso   1.00
C1258  C     0.16708   0.83331   0.73991   0.00000  Uiso   1.00
C1259  C     0.16688   0.83340   0.92682   0.00000  Uiso   1.00
C1260  C     0.16708   0.83337   0.68858   0.00000  Uiso   1.00
C1261  C     0.16698   0.83349   0.97815   0.00000  Uiso   1.00
C1262  C     0.02309   0.79836   0.85720   0.00000  Uiso   1.00
C1263  C     0.30990   0.86612   0.80847   0.00000  Uiso   1.00
C1264  C     0.31347   0.79845   0.85730   0.00000  Uiso   1.00
H1265  H     0.04103   0.77192   0.87580   0.00000  Uiso   1.00
H1266  H     0.29195   0.89116   0.78737   0.00000  Uiso   1.00
H1267  H     0.29826   0.77223   0.87632   0.00000  Uiso   1.00
H1268  H     0.03393   0.89486   0.79369   0.00000  Uiso   1.00
H1269  H     0.22532   0.74579   0.98763   0.00000  Uiso   1.00
H1270  H     0.07769   0.88858   0.71557   0.00000  Uiso   1.00
H1271  H     0.08930   0.77632   0.71483   0.00000  Uiso   1.00
H1272  H     0.30070   0.94804   0.86235   0.00000  Uiso   1.00
N1273  N     0.16667   0.95240   0.83333   0.00000  Uiso   1.00
N1274  N     0.16667   0.71427   0.83333   0.00000  Uiso   1.00
O1275  O     0.10559   0.87154   0.83333   0.00000  Uiso   1.00
O1276  O     0.19024   0.66814   0.97087   0.00000  Uiso   1.00
O1277  O     0.22260   0.74370   0.95042   0.00000  Uiso   1.00
O1278  O     0.06560   0.96994   0.74604   0.00000  Uiso   1.00
O1279  O     0.12720   0.95289   0.69973   0.00000  Uiso   1.00
O1280  O     0.09449   0.89396   0.74818   0.00000  Uiso   1.00
O1281  O     0.16292   0.72996   0.71063   0.00000  Uiso   1.00
O1282  O     0.09684   0.69376   0.69675   0.00000  Uiso   1.00
O1283  O     0.09600   0.76192   0.74788   0.00000  Uiso   1.00
O1284  O     0.26393   0.99087   0.92793   0.00000  Uiso   1.00
O1285  O     0.23697   0.91561   0.92282   0.00000  Uiso   1.00
O1286  O     0.22774   0.79513   0.83334   0.00000  Uiso   1.00
O1287  O     0.27148   0.94815   0.84636   0.00000  Uiso   1.00
O1288  O     0.22774   0.87154   0.83334   0.00000  Uiso   1.00
O1289  O     0.10559   0.79513   0.83333   0.00000  Uiso   1.00
O1290  O     0.16667   0.87155   0.76178   0.00000  Uiso   1.00
O1291  O     0.16666   0.79512   0.90489   0.00000  Uiso   1.00
O1292  O     0.16666   0.87155   0.90489   0.00000  Uiso   1.00
O1293  O     0.16667   0.79512   0.76178   0.00000  Uiso   1.00
O1294  O     0.14154   0.72570   0.94203   0.00000  Uiso   1.00
S1295  S     0.18401   0.70672   0.93579   0.00000  Uiso   1.00
S1296  S     0.10737   0.94719   0.74825   0.00000  Uiso   1.00
S1297  S     0.12472   0.71776   0.73604   0.00000  Uiso   1.00
S1298  S     0.24157   0.95716   0.89363   0.00000  Uiso   1.00
Zn1299 Zn    0.16667   0.88437   0.83333   0.00000  Uiso   1.00
Zn1300 Zn    0.16667   0.78229   0.83333   0.00000  Uiso   1.00
C1301  C     0.42028   0.83325   0.83396   0.00000  Uiso   1.00
C1302  C     0.35275   0.86739   0.81078   0.00000  Uiso   1.00
C1303  C     0.62387   0.83265   0.83321   0.00000  Uiso   1.00
C1304  C     0.37592   0.83309   0.83421   0.00000  Uiso   1.00
C1305  C     0.51830   0.68946   0.87272   0.00000  Uiso   1.00
C1306  C     0.47492   0.97523   0.79674   0.00000  Uiso   1.00
C1307  C     0.47806   0.68998   0.79390   0.00000  Uiso   1.00
C1308  C     0.52570   0.97720   0.86678   0.00000  Uiso   1.00
C1309  C     0.57969   0.83325   0.83354   0.00000  Uiso   1.00
C1310  C     0.50041   0.83331   0.73991   0.00000  Uiso   1.00
C1311  C     0.50021   0.83340   0.92682   0.00000  Uiso   1.00
C1312  C     0.50041   0.83337   0.68858   0.00000  Uiso   1.00
C1313  C     0.50031   0.83349   0.97815   0.00000  Uiso   1.00
C1314  C     0.35642   0.79836   0.85720   0.00000  Uiso   1.00
C1315  C     0.64323   0.86612   0.80847   0.00000  Uiso   1.00
C1316  C     0.64680   0.79845   0.85730   0.00000  Uiso   1.00
H1317  H     0.37436   0.77192   0.87580   0.00000  Uiso   1.00
H1318  H     0.62528   0.89116   0.78737   0.00000  Uiso   1.00
H1319  H     0.63160   0.77223   0.87632   0.00000  Uiso   1.00
H1320  H     0.36726   0.89486   0.79369   0.00000  Uiso   1.00
H1321  H     0.55866   0.74579   0.98763   0.00000  Uiso   1.00
H1322  H     0.41103   0.88858   0.71557   0.00000  Uiso   1.00
H1323  H     0.42263   0.77632   0.71483   0.00000  Uiso   1.00
H1324  H     0.63403   0.94804   0.86235   0.00000  Uiso   1.00
N1325  N     0.50000   0.95240   0.83333   0.00000  Uiso   1.00
N1326  N     0.50000   0.71427   0.83333   0.00000  Uiso   1.00
O1327  O     0.43892   0.87154   0.83333   0.00000  Uiso   1.00
O1328  O     0.52358   0.66814   0.97087   0.00000  Uiso   1.00
O1329  O     0.55594   0.74370   0.95042   0.00000  Uiso   1.00
O1330  O     0.39894   0.96994   0.74604   0.00000  Uiso   1.00
O1331  O     0.46053   0.95289   0.69973   0.00000  Uiso   1.00
O1332  O     0.42783   0.89396   0.74818   0.00000  Uiso   1.00
O1333  O     0.49625   0.72996   0.71063   0.00000  Uiso   1.00
O1334  O     0.43017   0.69376   0.69675   0.00000  Uiso   1.00
O1335  O     0.42933   0.76192   0.74788   0.00000  Uiso   1.00
O1336  O     0.59726   0.99087   0.92793   0.00000  Uiso   1.00
O1337  O     0.57030   0.91561   0.92282   0.00000  Uiso   1.00
O1338  O     0.56108   0.79513   0.83334   0.00000  Uiso   1.00
O1339  O     0.60481   0.94815   0.84636   0.00000  Uiso   1.00
O1340  O     0.56108   0.87154   0.83334   0.00000  Uiso   1.00
O1341  O     0.43892   0.79513   0.83333   0.00000  Uiso   1.00
O1342  O     0.50000   0.87155   0.76178   0.00000  Uiso   1.00
O1343  O     0.50000   0.79512   0.90489   0.00000  Uiso   1.00
O1344  O     0.50000   0.87155   0.90489   0.00000  Uiso   1.00
O1345  O     0.50000   0.79512   0.76178   0.00000  Uiso   1.00
O1346  O     0.47487   0.72570   0.94203   0.00000  Uiso   1.00
S1347  S     0.51734   0.70672   0.93579   0.00000  Uiso   1.00
S1348  S     0.44070   0.94719   0.74825   0.00000  Uiso   1.00
S1349  S     0.45805   0.71776   0.73604   0.00000  Uiso   1.00
S1350  S     0.57490   0.95716   0.89363   0.00000  Uiso   1.00
Zn1351 Zn    0.50000   0.88437   0.83333   0.00000  Uiso   1.00
Zn1352 Zn    0.50000   0.78229   0.83333   0.00000  Uiso   1.00
C1353  C     0.75361   0.83325   0.83396   0.00000  Uiso   1.00
C1354  C     0.68608   0.86739   0.81078   0.00000  Uiso   1.00
C1355  C     0.95720   0.83265   0.83321   0.00000  Uiso   1.00
C1356  C     0.70925   0.83309   0.83421   0.00000  Uiso   1.00
C1357  C     0.85163   0.68946   0.87272   0.00000  Uiso   1.00
C1358  C     0.80825   0.97523   0.79674   0.00000  Uiso   1.00
C1359  C     0.81140   0.68998   0.79390   0.00000  Uiso   1.00
C1360  C     0.85904   0.97720   0.86678   0.00000  Uiso   1.00
C1361  C     0.91302   0.83325   0.83354   0.00000  Uiso   1.00
C1362  C     0.83374   0.83331   0.73991   0.00000  Uiso   1.00
C1363  C     0.83355   0.83340   0.92682   0.00000  Uiso   1.00
C1364  C     0.83374   0.83337   0.68858   0.00000  Uiso   1.00
C1365  C     0.83365   0.83349   0.97815   0.00000  Uiso   1.00
C1366  C     0.68976   0.79836   0.85720   0.00000  Uiso   1.00
C1367  C     0.97657   0.86612   0.80847   0.00000  Uiso   1.00
C1368  C     0.98013   0.79845   0.85730   0.00000  Uiso   1.00
H1369  H     0.70770   0.77192   0.87580   0.00000  Uiso   1.00
H1370  H     0.95862   0.89116   0.78737   0.00000  Uiso   1.00
H1371  H     0.96493   0.77223   0.87632   0.00000  Uiso   1.00
H1372  H     0.70060   0.89486   0.79369   0.00000  Uiso   1.00
H1373  H     0.89199   0.74579   0.98763   0.00000  Uiso   1.00
H1374  H     0.74436   0.88858   0.71557   0.00000  Uiso   1.00
H1375  H     0.75597   0.77632   0.71483   0.00000  Uiso   1.00
H1376  H     0.96737   0.94804   0.86235   0.00000  Uiso   1.00
N1377  N     0.83333   0.95240   0.83333   0.00000  Uiso   1.00
N1378  N     0.83333   0.71427   0.83333   0.00000  Uiso   1.00
O1379  O     0.77226   0.87154   0.83333   0.00000  Uiso   1.00
O1380  O     0.85691   0.66814   0.97087   0.00000  Uiso   1.00
O1381  O     0.88927   0.74370   0.95042   0.00000  Uiso   1.00
O1382  O     0.73227   0.96994   0.74604   0.00000  Uiso   1.00
O1383  O     0.79387   0.95289   0.69973   0.00000  Uiso   1.00
O1384  O     0.76116   0.89396   0.74818   0.00000  Uiso   1.00
O1385  O     0.82959   0.72996   0.71063   0.00000  Uiso   1.00
O1386  O     0.76351   0.69376   0.69675   0.00000  Uiso   1.00
O1387  O     0.76266   0.76192   0.74788   0.00000  Uiso   1.00
O1388  O     0.93060   0.99087   0.92793   0.00000  Uiso   1.00
O1389  O     0.90363   0.91561   0.92282   0.00000  Uiso   1.00
O1390  O     0.89441   0.79513   0.83334   0.00000  Uiso   1.00
O1391  O     0.93815   0.94815   0.84636   0.00000  Uiso   1.00
O1392  O     0.89441   0.87154   0.83334   0.00000  Uiso   1.00
O1393  O     0.77226   0.79513   0.83333   0.00000  Uiso   1.00
O1394  O     0.83334   0.87155   0.76178   0.00000  Uiso   1.00
O1395  O     0.83333   0.79512   0.90489   0.00000  Uiso   1.00
O1396  O     0.83333   0.87155   0.90489   0.00000  Uiso   1.00
O1397  O     0.83334   0.79512   0.76178   0.00000  Uiso   1.00
O1398  O     0.80821   0.72570   0.94203   0.00000  Uiso   1.00
S1399  S     0.85068   0.70672   0.93579   0.00000  Uiso   1.00
S1400  S     0.77404   0.94719   0.74825   0.00000  Uiso   1.00
S1401  S     0.79138   0.71776   0.73604   0.00000  Uiso   1.00
S1402  S     0.90824   0.95716   0.89363   0.00000  Uiso   1.00
Zn1403 Zn    0.83333   0.88437   0.83333   0.00000  Uiso   1.00
Zn1404 Zn    0.83333   0.78229   0.83333   0.00000  Uiso   1.00
loop_
_geom_bond_atom_site_label_1
_geom_bond_atom_site_label_2
_geom_bond_distance
_geom_bond_site_symmetry_2
_ccdc_geom_bond_type
C1     C4      1.421   .     S
C1     O41     1.307   .     A
C1     O27     1.306   .     A
C2     C4      1.397   .     A
C2     H20     1.077   .     S
C2     C119    1.368   1_455 S
C3     C9      1.415   .     S
C3     C15     1.389   .     A
C3     C16     1.398   .     A
C4     C14     1.396   .     A
C5     S47     1.764   .     S
C5     N26     1.381   .     A
C5     C320    1.418   1_545 S
C6     S48     1.821   .     S
C6     N25     1.393   .     A
C6     C163    1.467   .     S
C7     N26     1.412   .     A
C7     S49     1.825   .     S
C7     C318    1.467   1_545 S
C8     N25     1.375   .     A
C8     S50     1.779   .     S
C8     C161    1.418   .     S
C9     O38     1.300   .     A
C9     O40     1.310   .     A
C10    O42     1.299   .     A
C10    O45     1.301   .     A
C10    C12     1.369   .     S
C11    O43     1.300   .     A
C11    C13     1.369   .     S
C11    O44     1.300   .     A
C12    C949    1.167   1_554 S
C13    C480    1.167   .     S
C14    H17     1.084   .     S
C14    C120    1.375   1_455 S
C15    H18     1.082   .     S
C15    C54     1.368   .     S
C16    H19     1.084   .     S
C16    C66     1.375   .     S
H21    O29     0.990   .     S
H22    O32     0.991   .     S
H23    O35     0.991   .     S
H24    O39     0.991   .     S
N25    Zn51    2.067   .     S
N26    Zn52    2.067   .     S
O27    Zn51    1.992   .     S
O28    S47     1.505   .     D
O29    S47     1.684   .     S
O30    S48     1.504   .     D
O31    S48     1.505   .     D
O32    S48     1.667   .     S
O33    S49     1.499   .     D
O34    S49     1.496   .     D
O35    S49     1.676   .     S
O36    S50     1.504   .     D
O37    S50     1.500   .     D
O38    Zn52    1.992   .     S
O39    S50     1.676   .     S
O40    Zn51    1.996   .     S
O41    Zn52    1.996   .     S
O42    Zn51    1.947   .     S
O43    Zn52    1.947   .     S
O44    Zn51    1.949   .     S
O45    Zn52    1.949   .     S
O46    S47     1.503   .     D
C53    C56     1.421   .     S
C53    O93     1.307   .     A
C53    O79     1.306   .     A
C54    C56     1.397   .     A
C54    H72     1.077   .     S
C55    C61     1.415   .     S
C55    C67     1.389   .     A
C55    C68     1.398   .     A
C56    C66     1.396   .     A
C57    S99     1.764   .     S
C57    N78     1.381   .     A
C57    C372    1.418   1_545 S
C58    S100    1.821   .     S
C58    N77     1.393   .     A
C58    C215    1.467   .     S
C59    N78     1.412   .     A
C59    S101    1.825   .     S
C59    C370    1.467   1_545 S
C60    N77     1.375   .     A
C60    S102    1.779   .     S
C60    C213    1.418   .     S
C61    O90     1.300   .     A
C61    O92     1.310   .     A
C62    O94     1.299   .     A
C62    O97     1.301   .     A
C62    C64     1.369   .     S
C63    O95     1.300   .     A
C63    C65     1.369   .     S
C63    O96     1.300   .     A
C64    C1001   1.167   1_554 S
C65    C532    1.167   .     S
C66    H69     1.084   .     S
C67    H70     1.082   .     S
C67    C106    1.368   .     S
C68    H71     1.084   .     S
C68    C118    1.375   .     S
H73    O81     0.990   .     S
H74    O84     0.991   .     S
H75    O87     0.991   .     S
H76    O91     0.991   .     S
N77    Zn103   2.067   .     S
N78    Zn104   2.067   .     S
O79    Zn103   1.992   .     S
O80    S99     1.505   .     D
O81    S99     1.684   .     S
O82    S100    1.504   .     D
O83    S100    1.505   .     D
O84    S100    1.667   .     S
O85    S101    1.499   .     D
O86    S101    1.496   .     D
O87    S101    1.676   .     S
O88    S102    1.504   .     D
O89    S102    1.500   .     D
O90    Zn104   1.992   .     S
O91    S102    1.676   .     S
O92    Zn103   1.996   .     S
O93    Zn104   1.996   .     S
O94    Zn103   1.947   .     S
O95    Zn104   1.947   .     S
O96    Zn103   1.949   .     S
O97    Zn104   1.949   .     S
O98    S99     1.503   .     D
C105   C108    1.421   .     S
C105   O145    1.307   .     A
C105   O131    1.306   .     A
C106   C108    1.397   .     A
C106   H124    1.077   .     S
C107   C113    1.415   .     S
C107   C119    1.389   .     A
C107   C120    1.398   .     A
C108   C118    1.396   .     A
C109   S151    1.764   .     S
C109   N130    1.381   .     A
C109   C424    1.418   1_545 S
C110   S152    1.821   .     S
C110   N129    1.393   .     A
C110   C267    1.467   .     S
C111   N130    1.412   .     A
C111   S153    1.825   .     S
C111   C422    1.467   1_545 S
C112   N129    1.375   .     A
C112   S154    1.779   .     S
C112   C265    1.418   .     S
C113   O142    1.300   .     A
C113   O144    1.310   .     A
C114   O146    1.299   .     A
C114   O149    1.301   .     A
C114   C116    1.369   .     S
C115   O147    1.300   .     A
C115   C117    1.369   .     S
C115   O148    1.300   .     A
C116   C1053   1.167   1_554 S
C117   C584    1.167   .     S
C118   H121    1.084   .     S
C119   H122    1.082   .     S
C119   C2      1.368   1_655 S
C120   H123    1.084   .     S
C120   C14     1.375   1_655 S
H125   O133    0.990   .     S
H126   O136    0.991   .     S
H127   O139    0.991   .     S
H128   O143    0.991   .     S
N129   Zn155   2.067   .     S
N130   Zn156   2.067   .     S
O131   Zn155   1.992   .     S
O132   S151    1.505   .     D
O133   S151    1.684   .     S
O134   S152    1.504   .     D
O135   S152    1.505   .     D
O136   S152    1.667   .     S
O137   S153    1.499   .     D
O138   S153    1.496   .     D
O139   S153    1.676   .     S
O140   S154    1.504   .     D
O141   S154    1.500   .     D
O142   Zn156   1.992   .     S
O143   S154    1.676   .     S
O144   Zn155   1.996   .     S
O145   Zn156   1.996   .     S
O146   Zn155   1.947   .     S
O147   Zn156   1.947   .     S
O148   Zn155   1.949   .     S
O149   Zn156   1.949   .     S
O150   S151    1.503   .     D
C157   C160    1.421   .     S
C157   O197    1.307   .     A
C157   O183    1.306   .     A
C158   C160    1.397   .     A
C158   H176    1.077   .     S
C158   C275    1.368   1_455 S
C159   C165    1.415   .     S
C159   C171    1.389   .     A
C159   C172    1.398   .     A
C160   C170    1.396   .     A
C161   S203    1.764   .     S
C161   N182    1.381   .     A
C162   S204    1.821   .     S
C162   N181    1.393   .     A
C162   C319    1.467   .     S
C163   N182    1.412   .     A
C163   S205    1.825   .     S
C164   N181    1.375   .     A
C164   S206    1.779   .     S
C164   C317    1.418   .     S
C165   O194    1.300   .     A
C165   O196    1.310   .     A
C166   O198    1.299   .     A
C166   O201    1.301   .     A
C166   C168    1.369   .     S
C167   O199    1.300   .     A
C167   C169    1.369   .     S
C167   O200    1.300   .     A
C168   C1105   1.167   1_554 S
C169   C636    1.167   .     S
C170   H173    1.084   .     S
C170   C276    1.375   1_455 S
C171   H174    1.082   .     S
C171   C210    1.368   .     S
C172   H175    1.084   .     S
C172   C222    1.375   .     S
H177   O185    0.990   .     S
H178   O188    0.991   .     S
H179   O191    0.991   .     S
H180   O195    0.991   .     S
N181   Zn207   2.067   .     S
N182   Zn208   2.067   .     S
O183   Zn207   1.992   .     S
O184   S203    1.505   .     D
O185   S203    1.684   .     S
O186   S204    1.504   .     D
O187   S204    1.505   .     D
O188   S204    1.667   .     S
O189   S205    1.499   .     D
O190   S205    1.496   .     D
O191   S205    1.676   .     S
O192   S206    1.504   .     D
O193   S206    1.500   .     D
O194   Zn208   1.992   .     S
O195   S206    1.676   .     S
O196   Zn207   1.996   .     S
O197   Zn208   1.996   .     S
O198   Zn207   1.947   .     S
O199   Zn208   1.947   .     S
O200   Zn207   1.949   .     S
O201   Zn208   1.949   .     S
O202   S203    1.503   .     D
C209   C212    1.421   .     S
C209   O249    1.307   .     A
C209   O235    1.306   .     A
C210   C212    1.397   .     A
C210   H228    1.077   .     S
C211   C217    1.415   .     S
C211   C223    1.389   .     A
C211   C224    1.398   .     A
C212   C222    1.396   .     A
C213   S255    1.764   .     S
C213   N234    1.381   .     A
C214   S256    1.821   .     S
C214   N233    1.393   .     A
C214   C371    1.467   .     S
C215   N234    1.412   .     A
C215   S257    1.825   .     S
C216   N233    1.375   .     A
C216   S258    1.779   .     S
C216   C369    1.418   .     S
C217   O246    1.300   .     A
C217   O248    1.310   .     A
C218   O250    1.299   .     A
C218   O253    1.301   .     A
C218   C220    1.369   .     S
C219   O251    1.300   .     A
C219   C221    1.369   .     S
C219   O252    1.300   .     A
C220   C1157   1.167   1_554 S
C221   C688    1.167   .     S
C222   H225    1.084   .     S
C223   H226    1.082   .     S
C223   C262    1.368   .     S
C224   H227    1.084   .     S
C224   C274    1.375   .     S
H229   O237    0.990   .     S
H230   O240    0.991   .     S
H231   O243    0.991   .     S
H232   O247    0.991   .     S
N233   Zn259   2.067   .     S
N234   Zn260   2.067   .     S
O235   Zn259   1.992   .     S
O236   S255    1.505   .     D
O237   S255    1.684   .     S
O238   S256    1.504   .     D
O239   S256    1.505   .     D
O240   S256    1.667   .     S
O241   S257    1.499   .     D
O242   S257    1.496   .     D
O243   S257    1.676   .     S
O244   S258    1.504   .     D
O245   S258    1.500   .     D
O246   Zn260   1.992   .     S
O247   S258    1.676   .     S
O248   Zn259   1.996   .     S
O249   Zn260   1.996   .     S
O250   Zn259   1.947   .     S
O251   Zn260   1.947   .     S
O252   Zn259   1.949   .     S
O253   Zn260   1.949   .     S
O254   S255    1.503   .     D
C261   C264    1.421   .     S
C261   O301    1.307   .     A
C261   O287    1.306   .     A
C262   C264    1.397   .     A
C262   H280    1.077   .     S
C263   C269    1.415   .     S
C263   C275    1.389   .     A
C263   C276    1.398   .     A
C264   C274    1.396   .     A
C265   S307    1.764   .     S
C265   N286    1.381   .     A
C266   S308    1.821   .     S
C266   N285    1.393   .     A
C266   C423    1.467   .     S
C267   N286    1.412   .     A
C267   S309    1.825   .     S
C268   N285    1.375   .     A
C268   S310    1.779   .     S
C268   C421    1.418   .     S
C269   O298    1.300   .     A
C269   O300    1.310   .     A
C270   O302    1.299   .     A
C270   O305    1.301   .     A
C270   C272    1.369   .     S
C271   O303    1.300   .     A
C271   C273    1.369   .     S
C271   O304    1.300   .     A
C272   C1209   1.167   1_554 S
C273   C740    1.167   .     S
C274   H277    1.084   .     S
C275   H278    1.082   .     S
C275   C158    1.368   1_655 S
C276   H279    1.084   .     S
C276   C170    1.375   1_655 S
H281   O289    0.990   .     S
H282   O292    0.991   .     S
H283   O295    0.991   .     S
H284   O299    0.991   .     S
N285   Zn311   2.067   .     S
N286   Zn312   2.067   .     S
O287   Zn311   1.992   .     S
O288   S307    1.505   .     D
O289   S307    1.684   .     S
O290   S308    1.504   .     D
O291   S308    1.505   .     D
O292   S308    1.667   .     S
O293   S309    1.499   .     D
O294   S309    1.496   .     D
O295   S309    1.676   .     S
O296   S310    1.504   .     D
O297   S310    1.500   .     D
O298   Zn312   1.992   .     S
O299   S310    1.676   .     S
O300   Zn311   1.996   .     S
O301   Zn312   1.996   .     S
O302   Zn311   1.947   .     S
O303   Zn312   1.947   .     S
O304   Zn311   1.949   .     S
O305   Zn312   1.949   .     S
O306   S307    1.503   .     D
C313   C316    1.421   .     S
C313   O353    1.307   .     A
C313   O339    1.306   .     A
C314   C316    1.397   .     A
C314   H332    1.077   .     S
C314   C431    1.368   1_455 S
C315   C321    1.415   .     S
C315   C327    1.389   .     A
C315   C328    1.398   .     A
C316   C326    1.396   .     A
C317   S359    1.764   .     S
C317   N338    1.381   .     A
C318   S360    1.821   .     S
C318   N337    1.393   .     A
C318   C7      1.467   1_565 S
C319   N338    1.412   .     A
C319   S361    1.825   .     S
C320   N337    1.375   .     A
C320   S362    1.779   .     S
C320   C5      1.418   1_565 S
C321   O350    1.300   .     A
C321   O352    1.310   .     A
C322   O354    1.299   .     A
C322   O357    1.301   .     A
C322   C324    1.369   .     S
C323   O355    1.300   .     A
C323   C325    1.369   .     S
C323   O356    1.300   .     A
C324   C1261   1.167   1_554 S
C325   C792    1.167   .     S
C326   H329    1.084   .     S
C326   C432    1.375   1_455 S
C327   H330    1.082   .     S
C327   C366    1.368   .     S
C328   H331    1.084   .     S
C328   C378    1.375   .     S
H333   O341    0.990   .     S
H334   O344    0.991   .     S
H335   O347    0.991   .     S
H336   O351    0.991   .     S
N337   Zn363   2.067   .     S
N338   Zn364   2.067   .     S
O339   Zn363   1.992   .     S
O340   S359    1.505   .     D
O341   S359    1.684   .     S
O342   S360    1.504   .     D
O343   S360    1.505   .     D
O344   S360    1.667   .     S
O345   S361    1.499   .     D
O346   S361    1.496   .     D
O347   S361    1.676   .     S
O348   S362    1.504   .     D
O349   S362    1.500   .     D
O350   Zn364   1.992   .     S
O351   S362    1.676   .     S
O352   Zn363   1.996   .     S
O353   Zn364   1.996   .     S
O354   Zn363   1.947   .     S
O355   Zn364   1.947   .     S
O356   Zn363   1.949   .     S
O357   Zn364   1.949   .     S
O358   S359    1.503   .     D
C365   C368    1.421   .     S
C365   O405    1.307   .     A
C365   O391    1.306   .     A
C366   C368    1.397   .     A
C366   H384    1.077   .     S
C367   C373    1.415   .     S
C367   C379    1.389   .     A
C367   C380    1.398   .     A
C368   C378    1.396   .     A
C369   S411    1.764   .     S
C369   N390    1.381   .     A
C370   S412    1.821   .     S
C370   N389    1.393   .     A
C370   C59     1.467   1_565 S
C371   N390    1.412   .     A
C371   S413    1.825   .     S
C372   N389    1.375   .     A
C372   S414    1.779   .     S
C372   C57     1.418   1_565 S
C373   O402    1.300   .     A
C373   O404    1.310   .     A
C374   O406    1.299   .     A
C374   O409    1.301   .     A
C374   C376    1.369   .     S
C375   O407    1.300   .     A
C375   C377    1.369   .     S
C375   O408    1.300   .     A
C376   C1313   1.167   1_554 S
C377   C844    1.167   .     S
C378   H381    1.084   .     S
C379   H382    1.082   .     S
C379   C418    1.368   .     S
C380   H383    1.084   .     S
C380   C430    1.375   .     S
H385   O393    0.990   .     S
H386   O396    0.991   .     S
H387   O399    0.991   .     S
H388   O403    0.991   .     S
N389   Zn415   2.067   .     S
N390   Zn416   2.067   .     S
O391   Zn415   1.992   .     S
O392   S411    1.505   .     D
O393   S411    1.684   .     S
O394   S412    1.504   .     D
O395   S412    1.505   .     D
O396   S412    1.667   .     S
O397   S413    1.499   .     D
O398   S413    1.496   .     D
O399   S413    1.676   .     S
O400   S414    1.504   .     D
O401   S414    1.500   .     D
O402   Zn416   1.992   .     S
O403   S414    1.676   .     S
O404   Zn415   1.996   .     S
O405   Zn416   1.996   .     S
O406   Zn415   1.947   .     S
O407   Zn416   1.947   .     S
O408   Zn415   1.949   .     S
O409   Zn416   1.949   .     S
O410   S411    1.503   .     D
C417   C420    1.421   .     S
C417   O457    1.307   .     A
C417   O443    1.306   .     A
C418   C420    1.397   .     A
C418   H436    1.077   .     S
C419   C425    1.415   .     S
C419   C431    1.389   .     A
C419   C432    1.398   .     A
C420   C430    1.396   .     A
C421   S463    1.764   .     S
C421   N442    1.381   .     A
C422   S464    1.821   .     S
C422   N441    1.393   .     A
C422   C111    1.467   1_565 S
C423   N442    1.412   .     A
C423   S465    1.825   .     S
C424   N441    1.375   .     A
C424   S466    1.779   .     S
C424   C109    1.418   1_565 S
C425   O454    1.300   .     A
C425   O456    1.310   .     A
C426   O458    1.299   .     A
C426   O461    1.301   .     A
C426   C428    1.369   .     S
C427   O459    1.300   .     A
C427   C429    1.369   .     S
C427   O460    1.300   .     A
C428   C1365   1.167   1_554 S
C429   C896    1.167   .     S
C430   H433    1.084   .     S
C431   H434    1.082   .     S
C431   C314    1.368   1_655 S
C432   H435    1.084   .     S
C432   C326    1.375   1_655 S
H437   O445    0.990   .     S
H438   O448    0.991   .     S
H439   O451    0.991   .     S
H440   O455    0.991   .     S
N441   Zn467   2.067   .     S
N442   Zn468   2.067   .     S
O443   Zn467   1.992   .     S
O444   S463    1.505   .     D
O445   S463    1.684   .     S
O446   S464    1.504   .     D
O447   S464    1.505   .     D
O448   S464    1.667   .     S
O449   S465    1.499   .     D
O450   S465    1.496   .     D
O451   S465    1.676   .     S
O452   S466    1.504   .     D
O453   S466    1.500   .     D
O454   Zn468   1.992   .     S
O455   S466    1.676   .     S
O456   Zn467   1.996   .     S
O457   Zn468   1.996   .     S
O458   Zn467   1.947   .     S
O459   Zn468   1.947   .     S
O460   Zn467   1.949   .     S
O461   Zn468   1.949   .     S
O462   S463    1.503   .     D
C469   C472    1.421   .     S
C469   O509    1.307   .     A
C469   O495    1.306   .     A
C470   C472    1.397   .     A
C470   H488    1.077   .     S
C470   C587    1.368   1_455 S
C471   C477    1.415   .     S
C471   C483    1.389   .     A
C471   C484    1.398   .     A
C472   C482    1.396   .     A
C473   S515    1.764   .     S
C473   N494    1.381   .     A
C473   C788    1.418   1_545 S
C474   S516    1.821   .     S
C474   N493    1.393   .     A
C474   C631    1.467   .     S
C475   N494    1.412   .     A
C475   S517    1.825   .     S
C475   C786    1.467   1_545 S
C476   N493    1.375   .     A
C476   S518    1.779   .     S
C476   C629    1.418   .     S
C477   O506    1.300   .     A
C477   O508    1.310   .     A
C478   O510    1.299   .     A
C478   O513    1.301   .     A
C478   C480    1.369   .     S
C479   O511    1.300   .     A
C479   C481    1.369   .     S
C479   O512    1.300   .     A
C481   C948    1.167   .     S
C482   H485    1.084   .     S
C482   C588    1.375   1_455 S
C483   H486    1.082   .     S
C483   C522    1.368   .     S
C484   H487    1.084   .     S
C484   C534    1.375   .     S
H489   O497    0.990   .     S
H490   O500    0.991   .     S
H491   O503    0.991   .     S
H492   O507    0.991   .     S
N493   Zn519   2.067   .     S
N494   Zn520   2.067   .     S
O495   Zn519   1.992   .     S
O496   S515    1.505   .     D
O497   S515    1.684   .     S
O498   S516    1.504   .     D
O499   S516    1.505   .     D
O500   S516    1.667   .     S
O501   S517    1.499   .     D
O502   S517    1.496   .     D
O503   S517    1.676   .     S
O504   S518    1.504   .     D
O505   S518    1.500   .     D
O506   Zn520   1.992   .     S
O507   S518    1.676   .     S
O508   Zn519   1.996   .     S
O509   Zn520   1.996   .     S
O510   Zn519   1.947   .     S
O511   Zn520   1.947   .     S
O512   Zn519   1.949   .     S
O513   Zn520   1.949   .     S
O514   S515    1.503   .     D
C521   C524    1.421   .     S
C521   O561    1.307   .     A
C521   O547    1.306   .     A
C522   C524    1.397   .     A
C522   H540    1.077   .     S
C523   C529    1.415   .     S
C523   C535    1.389   .     A
C523   C536    1.398   .     A
C524   C534    1.396   .     A
C525   S567    1.764   .     S
C525   N546    1.381   .     A
C525   C840    1.418   1_545 S
C526   S568    1.821   .     S
C526   N545    1.393   .     A
C526   C683    1.467   .     S
C527   N546    1.412   .     A
C527   S569    1.825   .     S
C527   C838    1.467   1_545 S
C528   N545    1.375   .     A
C528   S570    1.779   .     S
C528   C681    1.418   .     S
C529   O558    1.300   .     A
C529   O560    1.310   .     A
C530   O562    1.299   .     A
C530   O565    1.301   .     A
C530   C532    1.369   .     S
C531   O563    1.300   .     A
C531   C533    1.369   .     S
C531   O564    1.300   .     A
C533   C1000   1.167   .     S
C534   H537    1.084   .     S
C535   H538    1.082   .     S
C535   C574    1.368   .     S
C536   H539    1.084   .     S
C536   C586    1.375   .     S
H541   O549    0.990   .     S
H542   O552    0.991   .     S
H543   O555    0.991   .     S
H544   O559    0.991   .     S
N545   Zn571   2.067   .     S
N546   Zn572   2.067   .     S
O547   Zn571   1.992   .     S
O548   S567    1.505   .     D
O549   S567    1.684   .     S
O550   S568    1.504   .     D
O551   S568    1.505   .     D
O552   S568    1.667   .     S
O553   S569    1.499   .     D
O554   S569    1.496   .     D
O555   S569    1.676   .     S
O556   S570    1.504   .     D
O557   S570    1.500   .     D
O558   Zn572   1.992   .     S
O559   S570    1.676   .     S
O560   Zn571   1.996   .     S
O561   Zn572   1.996   .     S
O562   Zn571   1.947   .     S
O563   Zn572   1.947   .     S
O564   Zn571   1.949   .     S
O565   Zn572   1.949   .     S
O566   S567    1.503   .     D
C573   C576    1.421   .     S
C573   O613    1.307   .     A
C573   O599    1.306   .     A
C574   C576    1.397   .     A
C574   H592    1.077   .     S
C575   C581    1.415   .     S
C575   C587    1.389   .     A
C575   C588    1.398   .     A
C576   C586    1.396   .     A
C577   S619    1.764   .     S
C577   N598    1.381   .     A
C577   C892    1.418   1_545 S
C578   S620    1.821   .     S
C578   N597    1.393   .     A
C578   C735    1.467   .     S
C579   N598    1.412   .     A
C579   S621    1.825   .     S
C579   C890    1.467   1_545 S
C580   N597    1.375   .     A
C580   S622    1.779   .     S
C580   C733    1.418   .     S
C581   O610    1.300   .     A
C581   O612    1.310   .     A
C582   O614    1.299   .     A
C582   O617    1.301   .     A
C582   C584    1.369   .     S
C583   O615    1.300   .     A
C583   C585    1.369   .     S
C583   O616    1.300   .     A
C585   C1052   1.167   .     S
C586   H589    1.084   .     S
C587   H590    1.082   .     S
C587   C470    1.368   1_655 S
C588   H591    1.084   .     S
C588   C482    1.375   1_655 S
H593   O601    0.990   .     S
H594   O604    0.991   .     S
H595   O607    0.991   .     S
H596   O611    0.991   .     S
N597   Zn623   2.067   .     S
N598   Zn624   2.067   .     S
O599   Zn623   1.992   .     S
O600   S619    1.505   .     D
O601   S619    1.684   .     S
O602   S620    1.504   .     D
O603   S620    1.505   .     D
O604   S620    1.667   .     S
O605   S621    1.499   .     D
O606   S621    1.496   .     D
O607   S621    1.676   .     S
O608   S622    1.504   .     D
O609   S622    1.500   .     D
O610   Zn624   1.992   .     S
O611   S622    1.676   .     S
O612   Zn623   1.996   .     S
O613   Zn624   1.996   .     S
O614   Zn623   1.947   .     S
O615   Zn624   1.947   .     S
O616   Zn623   1.949   .     S
O617   Zn624   1.949   .     S
O618   S619    1.503   .     D
C625   C628    1.421   .     S
C625   O665    1.307   .     A
C625   O651    1.306   .     A
C626   C628    1.397   .     A
C626   H644    1.077   .     S
C626   C743    1.368   1_455 S
C627   C633    1.415   .     S
C627   C639    1.389   .     A
C627   C640    1.398   .     A
C628   C638    1.396   .     A
C629   S671    1.764   .     S
C629   N650    1.381   .     A
C630   S672    1.821   .     S
C630   N649    1.393   .     A
C630   C787    1.467   .     S
C631   N650    1.412   .     A
C631   S673    1.825   .     S
C632   N649    1.375   .     A
C632   S674    1.779   .     S
C632   C785    1.418   .     S
C633   O662    1.300   .     A
C633   O664    1.310   .     A
C634   O666    1.299   .     A
C634   O669    1.301   .     A
C634   C636    1.369   .     S
C635   O667    1.300   .     A
C635   C637    1.369   .     S
C635   O668    1.300   .     A
C637   C1104   1.167   .     S
C638   H641    1.084   .     S
C638   C744    1.375   1_455 S
C639   H642    1.082   .     S
C639   C678    1.368   .     S
C640   H643    1.084   .     S
C640   C690    1.375   .     S
H645   O653    0.990   .     S
H646   O656    0.991   .     S
H647   O659    0.991   .     S
H648   O663    0.991   .     S
N649   Zn675   2.067   .     S
N650   Zn676   2.067   .     S
O651   Zn675   1.992   .     S
O652   S671    1.505   .     D
O653   S671    1.684   .     S
O654   S672    1.504   .     D
O655   S672    1.505   .     D
O656   S672    1.667   .     S
O657   S673    1.499   .     D
O658   S673    1.496   .     D
O659   S673    1.676   .     S
O660   S674    1.504   .     D
O661   S674    1.500   .     D
O662   Zn676   1.992   .     S
O663   S674    1.676   .     S
O664   Zn675   1.996   .     S
O665   Zn676   1.996   .     S
O666   Zn675   1.947   .     S
O667   Zn676   1.947   .     S
O668   Zn675   1.949   .     S
O669   Zn676   1.949   .     S
O670   S671    1.503   .     D
C677   C680    1.421   .     S
C677   O717    1.307   .     A
C677   O703    1.306   .     A
C678   C680    1.397   .     A
C678   H696    1.077   .     S
C679   C685    1.415   .     S
C679   C691    1.389   .     A
C679   C692    1.398   .     A
C680   C690    1.396   .     A
C681   S723    1.764   .     S
C681   N702    1.381   .     A
C682   S724    1.821   .     S
C682   N701    1.393   .     A
C682   C839    1.467   .     S
C683   N702    1.412   .     A
C683   S725    1.825   .     S
C684   N701    1.375   .     A
C684   S726    1.779   .     S
C684   C837    1.418   .     S
C685   O714    1.300   .     A
C685   O716    1.310   .     A
C686   O718    1.299   .     A
C686   O721    1.301   .     A
C686   C688    1.369   .     S
C687   O719    1.300   .     A
C687   C689    1.369   .     S
C687   O720    1.300   .     A
C689   C1156   1.167   .     S
C690   H693    1.084   .     S
C691   H694    1.082   .     S
C691   C730    1.368   .     S
C692   H695    1.084   .     S
C692   C742    1.375   .     S
H697   O705    0.990   .     S
H698   O708    0.991   .     S
H699   O711    0.991   .     S
H700   O715    0.991   .     S
N701   Zn727   2.067   .     S
N702   Zn728   2.067   .     S
O703   Zn727   1.992   .     S
O704   S723    1.505   .     D
O705   S723    1.684   .     S
O706   S724    1.504   .     D
O707   S724    1.505   .     D
O708   S724    1.667   .     S
O709   S725    1.499   .     D
O710   S725    1.496   .     D
O711   S725    1.676   .     S
O712   S726    1.504   .     D
O713   S726    1.500   .     D
O714   Zn728   1.992   .     S
O715   S726    1.676   .     S
O716   Zn727   1.996   .     S
O717   Zn728   1.996   .     S
O718   Zn727   1.947   .     S
O719   Zn728   1.947   .     S
O720   Zn727   1.949   .     S
O721   Zn728   1.949   .     S
O722   S723    1.503   .     D
C729   C732    1.421   .     S
C729   O769    1.307   .     A
C729   O755    1.306   .     A
C730   C732    1.397   .     A
C730   H748    1.077   .     S
C731   C737    1.415   .     S
C731   C743    1.389   .     A
C731   C744    1.398   .     A
C732   C742    1.396   .     A
C733   S775    1.764   .     S
C733   N754    1.381   .     A
C734   S776    1.821   .     S
C734   N753    1.393   .     A
C734   C891    1.467   .     S
C735   N754    1.412   .     A
C735   S777    1.825   .     S
C736   N753    1.375   .     A
C736   S778    1.779   .     S
C736   C889    1.418   .     S
C737   O766    1.300   .     A
C737   O768    1.310   .     A
C738   O770    1.299   .     A
C738   O773    1.301   .     A
C738   C740    1.369   .     S
C739   O771    1.300   .     A
C739   C741    1.369   .     S
C739   O772    1.300   .     A
C741   C1208   1.167   .     S
C742   H745    1.084   .     S
C743   H746    1.082   .     S
C743   C626    1.368   1_655 S
C744   H747    1.084   .     S
C744   C638    1.375   1_655 S
H749   O757    0.990   .     S
H750   O760    0.991   .     S
H751   O763    0.991   .     S
H752   O767    0.991   .     S
N753   Zn779   2.067   .     S
N754   Zn780   2.067   .     S
O755   Zn779   1.992   .     S
O756   S775    1.505   .     D
O757   S775    1.684   .     S
O758   S776    1.504   .     D
O759   S776    1.505   .     D
O760   S776    1.667   .     S
O761   S777    1.499   .     D
O762   S777    1.496   .     D
O763   S777    1.676   .     S
O764   S778    1.504   .     D
O765   S778    1.500   .     D
O766   Zn780   1.992   .     S
O767   S778    1.676   .     S
O768   Zn779   1.996   .     S
O769   Zn780   1.996   .     S
O770   Zn779   1.947   .     S
O771   Zn780   1.947   .     S
O772   Zn779   1.949   .     S
O773   Zn780   1.949   .     S
O774   S775    1.503   .     D
C781   C784    1.421   .     S
C781   O821    1.307   .     A
C781   O807    1.306   .     A
C782   C784    1.397   .     A
C782   H800    1.077   .     S
C782   C899    1.368   1_455 S
C783   C789    1.415   .     S
C783   C795    1.389   .     A
C783   C796    1.398   .     A
C784   C794    1.396   .     A
C785   S827    1.764   .     S
C785   N806    1.381   .     A
C786   S828    1.821   .     S
C786   N805    1.393   .     A
C786   C475    1.467   1_565 S
C787   N806    1.412   .     A
C787   S829    1.825   .     S
C788   N805    1.375   .     A
C788   S830    1.779   .     S
C788   C473    1.418   1_565 S
C789   O818    1.300   .     A
C789   O820    1.310   .     A
C790   O822    1.299   .     A
C790   O825    1.301   .     A
C790   C792    1.369   .     S
C791   O823    1.300   .     A
C791   C793    1.369   .     S
C791   O824    1.300   .     A
C793   C1260   1.167   .     S
C794   H797    1.084   .     S
C794   C900    1.375   1_455 S
C795   H798    1.082   .     S
C795   C834    1.368   .     S
C796   H799    1.084   .     S
C796   C846    1.375   .     S
H801   O809    0.990   .     S
H802   O812    0.991   .     S
H803   O815    0.991   .     S
H804   O819    0.991   .     S
N805   Zn831   2.067   .     S
N806   Zn832   2.067   .     S
O807   Zn831   1.992   .     S
O808   S827    1.505   .     D
O809   S827    1.684   .     S
O810   S828    1.504   .     D
O811   S828    1.505   .     D
O812   S828    1.667   .     S
O813   S829    1.499   .     D
O814   S829    1.496   .     D
O815   S829    1.676   .     S
O816   S830    1.504   .     D
O817   S830    1.500   .     D
O818   Zn832   1.992   .     S
O819   S830    1.676   .     S
O820   Zn831   1.996   .     S
O821   Zn832   1.996   .     S
O822   Zn831   1.947   .     S
O823   Zn832   1.947   .     S
O824   Zn831   1.949   .     S
O825   Zn832   1.949   .     S
O826   S827    1.503   .     D
C833   C836    1.421   .     S
C833   O873    1.307   .     A
C833   O859    1.306   .     A
C834   C836    1.397   .     A
C834   H852    1.077   .     S
C835   C841    1.415   .     S
C835   C847    1.389   .     A
C835   C848    1.398   .     A
C836   C846    1.396   .     A
C837   S879    1.764   .     S
C837   N858    1.381   .     A
C838   S880    1.821   .     S
C838   N857    1.393   .     A
C838   C527    1.467   1_565 S
C839   N858    1.412   .     A
C839   S881    1.825   .     S
C840   N857    1.375   .     A
C840   S882    1.779   .     S
C840   C525    1.418   1_565 S
C841   O870    1.300   .     A
C841   O872    1.310   .     A
C842   O874    1.299   .     A
C842   O877    1.301   .     A
C842   C844    1.369   .     S
C843   O875    1.300   .     A
C843   C845    1.369   .     S
C843   O876    1.300   .     A
C845   C1312   1.167   .     S
C846   H849    1.084   .     S
C847   H850    1.082   .     S
C847   C886    1.368   .     S
C848   H851    1.084   .     S
C848   C898    1.375   .     S
H853   O861    0.990   .     S
H854   O864    0.991   .     S
H855   O867    0.991   .     S
H856   O871    0.991   .     S
N857   Zn883   2.067   .     S
N858   Zn884   2.067   .     S
O859   Zn883   1.992   .     S
O860   S879    1.505   .     D
O861   S879    1.684   .     S
O862   S880    1.504   .     D
O863   S880    1.505   .     D
O864   S880    1.667   .     S
O865   S881    1.499   .     D
O866   S881    1.496   .     D
O867   S881    1.676   .     S
O868   S882    1.504   .     D
O869   S882    1.500   .     D
O870   Zn884   1.992   .     S
O871   S882    1.676   .     S
O872   Zn883   1.996   .     S
O873   Zn884   1.996   .     S
O874   Zn883   1.947   .     S
O875   Zn884   1.947   .     S
O876   Zn883   1.949   .     S
O877   Zn884   1.949   .     S
O878   S879    1.503   .     D
C885   C888    1.421   .     S
C885   O925    1.307   .     A
C885   O911    1.306   .     A
C886   C888    1.397   .     A
C886   H904    1.077   .     S
C887   C893    1.415   .     S
C887   C899    1.389   .     A
C887   C900    1.398   .     A
C888   C898    1.396   .     A
C889   S931    1.764   .     S
C889   N910    1.381   .     A
C890   S932    1.821   .     S
C890   N909    1.393   .     A
C890   C579    1.467   1_565 S
C891   N910    1.412   .     A
C891   S933    1.825   .     S
C892   N909    1.375   .     A
C892   S934    1.779   .     S
C892   C577    1.418   1_565 S
C893   O922    1.300   .     A
C893   O924    1.310   .     A
C894   O926    1.299   .     A
C894   O929    1.301   .     A
C894   C896    1.369   .     S
C895   O927    1.300   .     A
C895   C897    1.369   .     S
C895   O928    1.300   .     A
C897   C1364   1.167   .     S
C898   H901    1.084   .     S
C899   H902    1.082   .     S
C899   C782    1.368   1_655 S
C900   H903    1.084   .     S
C900   C794    1.375   1_655 S
H905   O913    0.990   .     S
H906   O916    0.991   .     S
H907   O919    0.991   .     S
H908   O923    0.991   .     S
N909   Zn935   2.067   .     S
N910   Zn936   2.067   .     S
O911   Zn935   1.992   .     S
O912   S931    1.505   .     D
O913   S931    1.684   .     S
O914   S932    1.504   .     D
O915   S932    1.505   .     D
O916   S932    1.667   .     S
O917   S933    1.499   .     D
O918   S933    1.496   .     D
O919   S933    1.676   .     S
O920   S934    1.504   .     D
O921   S934    1.500   .     D
O922   Zn936   1.992   .     S
O923   S934    1.676   .     S
O924   Zn935   1.996   .     S
O925   Zn936   1.996   .     S
O926   Zn935   1.947   .     S
O927   Zn936   1.947   .     S
O928   Zn935   1.949   .     S
O929   Zn936   1.949   .     S
O930   S931    1.503   .     D
C937   C940    1.421   .     S
C937   O977    1.307   .     A
C937   O963    1.306   .     A
C938   C940    1.397   .     A
C938   H956    1.077   .     S
C938   C1055   1.368   1_455 S
C939   C945    1.415   .     S
C939   C951    1.389   .     A
C939   C952    1.398   .     A
C940   C950    1.396   .     A
C941   S983    1.764   .     S
C941   N962    1.381   .     A
C941   C1256   1.418   1_545 S
C942   S984    1.821   .     S
C942   N961    1.393   .     A
C942   C1099   1.467   .     S
C943   N962    1.412   .     A
C943   S985    1.825   .     S
C943   C1254   1.467   1_545 S
C944   N961    1.375   .     A
C944   S986    1.779   .     S
C944   C1097   1.418   .     S
C945   O974    1.300   .     A
C945   O976    1.310   .     A
C946   O978    1.299   .     A
C946   O981    1.301   .     A
C946   C948    1.369   .     S
C947   O979    1.300   .     A
C947   C949    1.369   .     S
C947   O980    1.300   .     A
C949   C12     1.167   1_556 S
C950   H953    1.084   .     S
C950   C1056   1.375   1_455 S
C951   H954    1.082   .     S
C951   C990    1.368   .     S
C952   H955    1.084   .     S
C952   C1002   1.375   .     S
H957   O965    0.990   .     S
H958   O968    0.991   .     S
H959   O971    0.991   .     S
H960   O975    0.991   .     S
N961   Zn987   2.067   .     S
N962   Zn988   2.067   .     S
O963   Zn987   1.992   .     S
O964   S983    1.505   .     D
O965   S983    1.684   .     S
O966   S984    1.504   .     D
O967   S984    1.505   .     D
O968   S984    1.667   .     S
O969   S985    1.499   .     D
O970   S985    1.496   .     D
O971   S985    1.676   .     S
O972   S986    1.504   .     D
O973   S986    1.500   .     D
O974   Zn988   1.992   .     S
O975   S986    1.676   .     S
O976   Zn987   1.996   .     S
O977   Zn988   1.996   .     S
O978   Zn987   1.947   .     S
O979   Zn988   1.947   .     S
O980   Zn987   1.949   .     S
O981   Zn988   1.949   .     S
O982   S983    1.503   .     D
C989   C992    1.421   .     S
C989   O1029   1.307   .     A
C989   O1015   1.306   .     A
C990   C992    1.397   .     A
C990   H1008   1.077   .     S
C991   C997    1.415   .     S
C991   C1003   1.389   .     A
C991   C1004   1.398   .     A
C992   C1002   1.396   .     A
C993   S1035   1.764   .     S
C993   N1014   1.381   .     A
C993   C1308   1.418   1_545 S
C994   S1036   1.821   .     S
C994   N1013   1.393   .     A
C994   C1151   1.467   .     S
C995   N1014   1.412   .     A
C995   S1037   1.825   .     S
C995   C1306   1.467   1_545 S
C996   N1013   1.375   .     A
C996   S1038   1.779   .     S
C996   C1149   1.418   .     S
C997   O1026   1.300   .     A
C997   O1028   1.310   .     A
C998   O1030   1.299   .     A
C998   O1033   1.301   .     A
C998   C1000   1.369   .     S
C999   O1031   1.300   .     A
C999   C1001   1.369   .     S
C999   O1032   1.300   .     A
C1001  C64     1.167   1_556 S
C1002  H1005   1.084   .     S
C1003  H1006   1.082   .     S
C1003  C1042   1.368   .     S
C1004  H1007   1.084   .     S
C1004  C1054   1.375   .     S
H1009  O1017   0.990   .     S
H1010  O1020   0.991   .     S
H1011  O1023   0.991   .     S
H1012  O1027   0.991   .     S
N1013  Zn1039  2.067   .     S
N1014  Zn1040  2.067   .     S
O1015  Zn1039  1.992   .     S
O1016  S1035   1.505   .     D
O1017  S1035   1.684   .     S
O1018  S1036   1.504   .     D
O1019  S1036   1.505   .     D
O1020  S1036   1.667   .     S
O1021  S1037   1.499   .     D
O1022  S1037   1.496   .     D
O1023  S1037   1.676   .     S
O1024  S1038   1.504   .     D
O1025  S1038   1.500   .     D
O1026  Zn1040  1.992   .     S
O1027  S1038   1.676   .     S
O1028  Zn1039  1.996   .     S
O1029  Zn1040  1.996   .     S
O1030  Zn1039  1.947   .     S
O1031  Zn1040  1.947   .     S
O1032  Zn1039  1.949   .     S
O1033  Zn1040  1.949   .     S
O1034  S1035   1.503   .     D
C1041  C1044   1.421   .     S
C1041  O1081   1.307   .     A
C1041  O1067   1.306   .     A
C1042  C1044   1.397   .     A
C1042  H1060   1.077   .     S
C1043  C1049   1.415   .     S
C1043  C1055   1.389   .     A
C1043  C1056   1.398   .     A
C1044  C1054   1.396   .     A
C1045  S1087   1.764   .     S
C1045  N1066   1.381   .     A
C1045  C1360   1.418   1_545 S
C1046  S1088   1.821   .     S
C1046  N1065   1.393   .     A
C1046  C1203   1.467   .     S
C1047  N1066   1.412   .     A
C1047  S1089   1.825   .     S
C1047  C1358   1.467   1_545 S
C1048  N1065   1.375   .     A
C1048  S1090   1.779   .     S
C1048  C1201   1.418   .     S
C1049  O1078   1.300   .     A
C1049  O1080   1.310   .     A
C1050  O1082   1.299   .     A
C1050  O1085   1.301   .     A
C1050  C1052   1.369   .     S
C1051  O1083   1.300   .     A
C1051  C1053   1.369   .     S
C1051  O1084   1.300   .     A
C1053  C116    1.167   1_556 S
C1054  H1057   1.084   .     S
C1055  H1058   1.082   .     S
C1055  C938    1.368   1_655 S
C1056  H1059   1.084   .     S
C1056  C950    1.375   1_655 S
H1061  O1069   0.990   .     S
H1062  O1072   0.991   .     S
H1063  O1075   0.991   .     S
H1064  O1079   0.991   .     S
N1065  Zn1091  2.067   .     S
N1066  Zn1092  2.067   .     S
O1067  Zn1091  1.992   .     S
O1068  S1087   1.505   .     D
O1069  S1087   1.684   .     S
O1070  S1088   1.504   .     D
O1071  S1088   1.505   .     D
O1072  S1088   1.667   .     S
O1073  S1089   1.499   .     D
O1074  S1089   1.496   .     D
O1075  S1089   1.676   .     S
O1076  S1090   1.504   .     D
O1077  S1090   1.500   .     D
O1078  Zn1092  1.992   .     S
O1079  S1090   1.676   .     S
O1080  Zn1091  1.996   .     S
O1081  Zn1092  1.996   .     S
O1082  Zn1091  1.947   .     S
O1083  Zn1092  1.947   .     S
O1084  Zn1091  1.949   .     S
O1085  Zn1092  1.949   .     S
O1086  S1087   1.503   .     D
C1093  C1096   1.421   .     S
C1093  O1133   1.307   .     A
C1093  O1119   1.306   .     A
C1094  C1096   1.397   .     A
C1094  H1112   1.077   .     S
C1094  C1211   1.368   1_455 S
C1095  C1101   1.415   .     S
C1095  C1107   1.389   .     A
C1095  C1108   1.398   .     A
C1096  C1106   1.396   .     A
C1097  S1139   1.764   .     S
C1097  N1118   1.381   .     A
C1098  S1140   1.821   .     S
C1098  N1117   1.393   .     A
C1098  C1255   1.467   .     S
C1099  N1118   1.412   .     A
C1099  S1141   1.825   .     S
C1100  N1117   1.375   .     A
C1100  S1142   1.779   .     S
C1100  C1253   1.418   .     S
C1101  O1130   1.300   .     A
C1101  O1132   1.310   .     A
C1102  O1134   1.299   .     A
C1102  O1137   1.301   .     A
C1102  C1104   1.369   .     S
C1103  O1135   1.300   .     A
C1103  C1105   1.369   .     S
C1103  O1136   1.300   .     A
C1105  C168    1.167   1_556 S
C1106  H1109   1.084   .     S
C1106  C1212   1.375   1_455 S
C1107  H1110   1.082   .     S
C1107  C1146   1.368   .     S
C1108  H1111   1.084   .     S
C1108  C1158   1.375   .     S
H1113  O1121   0.990   .     S
H1114  O1124   0.991   .     S
H1115  O1127   0.991   .     S
H1116  O1131   0.991   .     S
N1117  Zn1143  2.067   .     S
N1118  Zn1144  2.067   .     S
O1119  Zn1143  1.992   .     S
O1120  S1139   1.505   .     D
O1121  S1139   1.684   .     S
O1122  S1140   1.504   .     D
O1123  S1140   1.505   .     D
O1124  S1140   1.667   .     S
O1125  S1141   1.499   .     D
O1126  S1141   1.496   .     D
O1127  S1141   1.676   .     S
O1128  S1142   1.504   .     D
O1129  S1142   1.500   .     D
O1130  Zn1144  1.992   .     S
O1131  S1142   1.676   .     S
O1132  Zn1143  1.996   .     S
O1133  Zn1144  1.996   .     S
O1134  Zn1143  1.947   .     S
O1135  Zn1144  1.947   .     S
O1136  Zn1143  1.949   .     S
O1137  Zn1144  1.949   .     S
O1138  S1139   1.503   .     D
C1145  C1148   1.421   .     S
C1145  O1185   1.307   .     A
C1145  O1171   1.306   .     A
C1146  C1148   1.397   .     A
C1146  H1164   1.077   .     S
C1147  C1153   1.415   .     S
C1147  C1159   1.389   .     A
C1147  C1160   1.398   .     A
C1148  C1158   1.396   .     A
C1149  S1191   1.764   .     S
C1149  N1170   1.381   .     A
C1150  S1192   1.821   .     S
C1150  N1169   1.393   .     A
C1150  C1307   1.467   .     S
C1151  N1170   1.412   .     A
C1151  S1193   1.825   .     S
C1152  N1169   1.375   .     A
C1152  S1194   1.779   .     S
C1152  C1305   1.418   .     S
C1153  O1182   1.300   .     A
C1153  O1184   1.310   .     A
C1154  O1186   1.299   .     A
C1154  O1189   1.301   .     A
C1154  C1156   1.369   .     S
C1155  O1187   1.300   .     A
C1155  C1157   1.369   .     S
C1155  O1188   1.300   .     A
C1157  C220    1.167   1_556 S
C1158  H1161   1.084   .     S
C1159  H1162   1.082   .     S
C1159  C1198   1.368   .     S
C1160  H1163   1.084   .     S
C1160  C1210   1.375   .     S
H1165  O1173   0.990   .     S
H1166  O1176   0.991   .     S
H1167  O1179   0.991   .     S
H1168  O1183   0.991   .     S
N1169  Zn1195  2.067   .     S
N1170  Zn1196  2.067   .     S
O1171  Zn1195  1.992   .     S
O1172  S1191   1.505   .     D
O1173  S1191   1.684   .     S
O1174  S1192   1.504   .     D
O1175  S1192   1.505   .     D
O1176  S1192   1.667   .     S
O1177  S1193   1.499   .     D
O1178  S1193   1.496   .     D
O1179  S1193   1.676   .     S
O1180  S1194   1.504   .     D
O1181  S1194   1.500   .     D
O1182  Zn1196  1.992   .     S
O1183  S1194   1.676   .     S
O1184  Zn1195  1.996   .     S
O1185  Zn1196  1.996   .     S
O1186  Zn1195  1.947   .     S
O1187  Zn1196  1.947   .     S
O1188  Zn1195  1.949   .     S
O1189  Zn1196  1.949   .     S
O1190  S1191   1.503   .     D
C1197  C1200   1.421   .     S
C1197  O1237   1.307   .     A
C1197  O1223   1.306   .     A
C1198  C1200   1.397   .     A
C1198  H1216   1.077   .     S
C1199  C1205   1.415   .     S
C1199  C1211   1.389   .     A
C1199  C1212   1.398   .     A
C1200  C1210   1.396   .     A
C1201  S1243   1.764   .     S
C1201  N1222   1.381   .     A
C1202  S1244   1.821   .     S
C1202  N1221   1.393   .     A
C1202  C1359   1.467   .     S
C1203  N1222   1.412   .     A
C1203  S1245   1.825   .     S
C1204  N1221   1.375   .     A
C1204  S1246   1.779   .     S
C1204  C1357   1.418   .     S
C1205  O1234   1.300   .     A
C1205  O1236   1.310   .     A
C1206  O1238   1.299   .     A
C1206  O1241   1.301   .     A
C1206  C1208   1.369   .     S
C1207  O1239   1.300   .     A
C1207  C1209   1.369   .     S
C1207  O1240   1.300   .     A
C1209  C272    1.167   1_556 S
C1210  H1213   1.084   .     S
C1211  H1214   1.082   .     S
C1211  C1094   1.368   1_655 S
C1212  H1215   1.084   .     S
C1212  C1106   1.375   1_655 S
H1217  O1225   0.990   .     S
H1218  O1228   0.991   .     S
H1219  O1231   0.991   .     S
H1220  O1235   0.991   .     S
N1221  Zn1247  2.067   .     S
N1222  Zn1248  2.067   .     S
O1223  Zn1247  1.992   .     S
O1224  S1243   1.505   .     D
O1225  S1243   1.684   .     S
O1226  S1244   1.504   .     D
O1227  S1244   1.505   .     D
O1228  S1244   1.667   .     S
O1229  S1245   1.499   .     D
O1230  S1245   1.496   .     D
O1231  S1245   1.676   .     S
O1232  S1246   1.504   .     D
O1233  S1246   1.500   .     D
O1234  Zn1248  1.992   .     S
O1235  S1246   1.676   .     S
O1236  Zn1247  1.996   .     S
O1237  Zn1248  1.996   .     S
O1238  Zn1247  1.947   .     S
O1239  Zn1248  1.947   .     S
O1240  Zn1247  1.949   .     S
O1241  Zn1248  1.949   .     S
O1242  S1243   1.503   .     D
C1249  C1252   1.421   .     S
C1249  O1289   1.307   .     A
C1249  O1275   1.306   .     A
C1250  C1252   1.397   .     A
C1250  H1268   1.077   .     S
C1250  C1367   1.368   1_455 S
C1251  C1257   1.415   .     S
C1251  C1263   1.389   .     A
C1251  C1264   1.398   .     A
C1252  C1262   1.396   .     A
C1253  S1295   1.764   .     S
C1253  N1274   1.381   .     A
C1254  S1296   1.821   .     S
C1254  N1273   1.393   .     A
C1254  C943    1.467   1_565 S
C1255  N1274   1.412   .     A
C1255  S1297   1.825   .     S
C1256  N1273   1.375   .     A
C1256  S1298   1.779   .     S
C1256  C941    1.418   1_565 S
C1257  O1286   1.300   .     A
C1257  O1288   1.310   .     A
C1258  O1290   1.299   .     A
C1258  O1293   1.301   .     A
C1258  C1260   1.369   .     S
C1259  O1291   1.300   .     A
C1259  C1261   1.369   .     S
C1259  O1292   1.300   .     A
C1261  C324    1.167   1_556 S
C1262  H1265   1.084   .     S
C1262  C1368   1.375   1_455 S
C1263  H1266   1.082   .     S
C1263  C1302   1.368   .     S
C1264  H1267   1.084   .     S
C1264  C1314   1.375   .     S
H1269  O1277   0.990   .     S
H1270  O1280   0.991   .     S
H1271  O1283   0.991   .     S
H1272  O1287   0.991   .     S
N1273  Zn1299  2.067   .     S
N1274  Zn1300  2.067   .     S
O1275  Zn1299  1.992   .     S
O1276  S1295   1.505   .     D
O1277  S1295   1.684   .     S
O1278  S1296   1.504   .     D
O1279  S1296   1.505   .     D
O1280  S1296   1.667   .     S
O1281  S1297   1.499   .     D
O1282  S1297   1.496   .     D
O1283  S1297   1.676   .     S
O1284  S1298   1.504   .     D
O1285  S1298   1.500   .     D
O1286  Zn1300  1.992   .     S
O1287  S1298   1.676   .     S
O1288  Zn1299  1.996   .     S
O1289  Zn1300  1.996   .     S
O1290  Zn1299  1.947   .     S
O1291  Zn1300  1.947   .     S
O1292  Zn1299  1.949   .     S
O1293  Zn1300  1.949   .     S
O1294  S1295   1.503   .     D
C1301  C1304   1.421   .     S
C1301  O1341   1.307   .     A
C1301  O1327   1.306   .     A
C1302  C1304   1.397   .     A
C1302  H1320   1.077   .     S
C1303  C1309   1.415   .     S
C1303  C1315   1.389   .     A
C1303  C1316   1.398   .     A
C1304  C1314   1.396   .     A
C1305  S1347   1.764   .     S
C1305  N1326   1.381   .     A
C1306  S1348   1.821   .     S
C1306  N1325   1.393   .     A
C1306  C995    1.467   1_565 S
C1307  N1326   1.412   .     A
C1307  S1349   1.825   .     S
C1308  N1325   1.375   .     A
C1308  S1350   1.779   .     S
C1308  C993    1.418   1_565 S
C1309  O1338   1.300   .     A
C1309  O1340   1.310   .     A
C1310  O1342   1.299   .     A
C1310  O1345   1.301   .     A
C1310  C1312   1.369   .     S
C1311  O1343   1.300   .     A
C1311  C1313   1.369   .     S
C1311  O1344   1.300   .     A
C1313  C376    1.167   1_556 S
C1314  H1317   1.084   .     S
C1315  H1318   1.082   .     S
C1315  C1354   1.368   .     S
C1316  H1319   1.084   .     S
C1316  C1366   1.375   .     S
H1321  O1329   0.990   .     S
H1322  O1332   0.991   .     S
H1323  O1335   0.991   .     S
H1324  O1339   0.991   .     S
N1325  Zn1351  2.067   .     S
N1326  Zn1352  2.067   .     S
O1327  Zn1351  1.992   .     S
O1328  S1347   1.505   .     D
O1329  S1347   1.684   .     S
O1330  S1348   1.504   .     D
O1331  S1348   1.505   .     D
O1332  S1348   1.667   .     S
O1333  S1349   1.499   .     D
O1334  S1349   1.496   .     D
O1335  S1349   1.676   .     S
O1336  S1350   1.504   .     D
O1337  S1350   1.500   .     D
O1338  Zn1352  1.992   .     S
O1339  S1350   1.676   .     S
O1340  Zn1351  1.996   .     S
O1341  Zn1352  1.996   .     S
O1342  Zn1351  1.947   .     S
O1343  Zn1352  1.947   .     S
O1344  Zn1351  1.949   .     S
O1345  Zn1352  1.949   .     S
O1346  S1347   1.503   .     D
C1353  C1356   1.421   .     S
C1353  O1393   1.307   .     A
C1353  O1379   1.306   .     A
C1354  C1356   1.397   .     A
C1354  H1372   1.077   .     S
C1355  C1361   1.415   .     S
C1355  C1367   1.389   .     A
C1355  C1368   1.398   .     A
C1356  C1366   1.396   .     A
C1357  S1399   1.764   .     S
C1357  N1378   1.381   .     A
C1358  S1400   1.821   .     S
C1358  N1377   1.393   .     A
C1358  C1047   1.467   1_565 S
C1359  N1378   1.412   .     A
C1359  S1401   1.825   .     S
C1360  N1377   1.375   .     A
C1360  S1402   1.779   .     S
C1360  C1045   1.418   1_565 S
C1361  O1390   1.300   .     A
C1361  O1392   1.310   .     A
C1362  O1394   1.299   .     A
C1362  O1397   1.301   .     A
C1362  C1364   1.369   .     S
C1363  O1395   1.300   .     A
C1363  C1365   1.369   .     S
C1363  O1396   1.300   .     A
C1365  C428    1.167   1_556 S
C1366  H1369   1.084   .     S
C1367  H1370   1.082   .     S
C1367  C1250   1.368   1_655 S
C1368  H1371   1.084   .     S
C1368  C1262   1.375   1_655 S
H1373  O1381   0.990   .     S
H1374  O1384   0.991   .     S
H1375  O1387   0.991   .     S
H1376  O1391   0.991   .     S
N1377  Zn1403  2.067   .     S
N1378  Zn1404  2.067   .     S
O1379  Zn1403  1.992   .     S
O1380  S1399   1.505   .     D
O1381  S1399   1.684   .     S
O1382  S1400   1.504   .     D
O1383  S1400   1.505   .     D
O1384  S1400   1.667   .     S
O1385  S1401   1.499   .     D
O1386  S1401   1.496   .     D
O1387  S1401   1.676   .     S
O1388  S1402   1.504   .     D
O1389  S1402   1.500   .     D
O1390  Zn1404  1.992   .     S
O1391  S1402   1.676   .     S
O1392  Zn1403  1.996   .     S
O1393  Zn1404  1.996   .     S
O1394  Zn1403  1.947   .     S
O1395  Zn1404  1.947   .     S
O1396  Zn1403  1.949   .     S
O1397  Zn1404  1.949   .     S
O1398  S1399   1.503   .     D
