data_str_m2_o2_o5_pcu_sym.91
_audit_creation_date              2020-01-03
_audit_creation_method            'Materials Studio'
_symmetry_space_group_name_H-M    'P1'
_symmetry_Int_Tables_number       1
_symmetry_cell_setting            triclinic
loop_
_symmetry_equiv_pos_as_xyz
  x,y,z
_cell_length_a                    30.2782
_cell_length_b                    27.9832
_cell_length_c                    27.2246
_cell_angle_alpha                 90.0000
_cell_angle_beta                  91.6784
_cell_angle_gamma                 90.0000
loop_
_atom_site_label
_atom_site_type_symbol
_atom_site_fract_x
_atom_site_fract_y
_atom_site_fract_z
_atom_site_U_iso_or_equiv
_atom_site_adp_type
_atom_site_occupancy
C1     C     0.16504   0.25001   0.16661   0.00000  Uiso   1.00
C2     C     0.27990   0.44591   0.19634   0.00000  Uiso   1.00
C3     C     0.24994   0.25000   0.07360   0.00000  Uiso   1.00
C4     C     0.25006   0.25000   0.25973   0.00000  Uiso   1.00
C5     C     0.25000   0.02730   0.16667   0.00000  Uiso   1.00
C6     C     0.25000   0.47266   0.16667   0.00000  Uiso   1.00
C7     C     0.24998   0.25000   0.02186   0.00000  Uiso   1.00
C8     C     0.25002   0.25000   0.31147   0.00000  Uiso   1.00
C9     C     0.04810   0.29122   0.18125   0.00000  Uiso   1.00
C10    C     0.45282   0.20937   0.18143   0.00000  Uiso   1.00
C11    C     0.45190   0.29122   0.15208   0.00000  Uiso   1.00
C12    C     0.33496   0.25001   0.16672   0.00000  Uiso   1.00
C13    C     0.04718   0.20937   0.15191   0.00000  Uiso   1.00
C14    C     0.09401   0.29123   0.18088   0.00000  Uiso   1.00
C15    C     0.40691   0.20913   0.18101   0.00000  Uiso   1.00
C16    C     0.40599   0.29123   0.15245   0.00000  Uiso   1.00
C17    C     0.09309   0.20913   0.15232   0.00000  Uiso   1.00
C18    C     0.11677   0.25011   0.16661   0.00000  Uiso   1.00
C19    C     0.38323   0.25011   0.16672   0.00000  Uiso   1.00
C20    C     0.02429   0.25033   0.16660   0.00000  Uiso   1.00
C21    C     0.47571   0.25033   0.16673   0.00000  Uiso   1.00
C22    C     0.27649   0.10429   0.19937   0.00000  Uiso   1.00
C23    C     0.22095   0.39568   0.13677   0.00000  Uiso   1.00
C24    C     0.22351   0.10429   0.13397   0.00000  Uiso   1.00
C25    C     0.27905   0.39568   0.19657   0.00000  Uiso   1.00
C26    C     0.27626   0.05406   0.20031   0.00000  Uiso   1.00
C27    C     0.22010   0.44591   0.13700   0.00000  Uiso   1.00
C28    C     0.22374   0.05406   0.13303   0.00000  Uiso   1.00
Cl29   Cl    0.31237   0.13314   0.24165   0.00000  Uiso   1.00
Cl30   Cl    0.18348   0.36673   0.09626   0.00000  Uiso   1.00
Cl31   Cl    0.18763   0.13314   0.09168   0.00000  Uiso   1.00
Cl32   Cl    0.31652   0.36673   0.23707   0.00000  Uiso   1.00
Cu33   Cu    0.25000   0.29822   0.16667   0.00000  Uiso   1.00
Cu34   Cu    0.25000   0.20179   0.16667   0.00000  Uiso   1.00
H35    H     0.11167   0.32316   0.19244   0.00000  Uiso   1.00
H36    H     0.47037   0.17766   0.19377   0.00000  Uiso   1.00
H37    H     0.46870   0.32300   0.13974   0.00000  Uiso   1.00
H38    H     0.02963   0.17765   0.13956   0.00000  Uiso   1.00
H39    H     0.39004   0.17709   0.19247   0.00000  Uiso   1.00
H40    H     0.38833   0.32316   0.14089   0.00000  Uiso   1.00
H41    H     0.10996   0.17709   0.14086   0.00000  Uiso   1.00
H42    H     0.29696   0.03701   0.22798   0.00000  Uiso   1.00
H43    H     0.19551   0.46295   0.11359   0.00000  Uiso   1.00
H44    H     0.20304   0.03701   0.10536   0.00000  Uiso   1.00
H45    H     0.30449   0.46295   0.21974   0.00000  Uiso   1.00
H46    H     0.03130   0.32300   0.19359   0.00000  Uiso   1.00
N47    N     0.25000   0.12935   0.16667   0.00000  Uiso   1.00
N48    N     0.25000   0.37066   0.16667   0.00000  Uiso   1.00
O49    O     0.18573   0.29072   0.16667   0.00000  Uiso   1.00
O50    O     0.31427   0.20929   0.16666   0.00000  Uiso   1.00
O51    O     0.31427   0.29072   0.16666   0.00000  Uiso   1.00
O52    O     0.18573   0.20929   0.16667   0.00000  Uiso   1.00
O53    O     0.25000   0.29071   0.09613   0.00000  Uiso   1.00
O54    O     0.25000   0.20929   0.23720   0.00000  Uiso   1.00
O55    O     0.25000   0.29071   0.23720   0.00000  Uiso   1.00
O56    O     0.25000   0.20929   0.09613   0.00000  Uiso   1.00
C57    C     0.66504   0.25001   0.16661   0.00000  Uiso   1.00
C58    C     0.77990   0.44591   0.19634   0.00000  Uiso   1.00
C59    C     0.74994   0.25000   0.07360   0.00000  Uiso   1.00
C60    C     0.75006   0.25000   0.25973   0.00000  Uiso   1.00
C61    C     0.75000   0.02730   0.16667   0.00000  Uiso   1.00
C62    C     0.75000   0.47266   0.16667   0.00000  Uiso   1.00
C63    C     0.74998   0.25000   0.02186   0.00000  Uiso   1.00
C64    C     0.75002   0.25000   0.31147   0.00000  Uiso   1.00
C65    C     0.54810   0.29122   0.18125   0.00000  Uiso   1.00
C66    C     0.95282   0.20937   0.18143   0.00000  Uiso   1.00
C67    C     0.95190   0.29122   0.15208   0.00000  Uiso   1.00
C68    C     0.83496   0.25001   0.16672   0.00000  Uiso   1.00
C69    C     0.54718   0.20937   0.15191   0.00000  Uiso   1.00
C70    C     0.59401   0.29123   0.18088   0.00000  Uiso   1.00
C71    C     0.90691   0.20913   0.18101   0.00000  Uiso   1.00
C72    C     0.90599   0.29123   0.15245   0.00000  Uiso   1.00
C73    C     0.59309   0.20913   0.15232   0.00000  Uiso   1.00
C74    C     0.61677   0.25011   0.16661   0.00000  Uiso   1.00
C75    C     0.88323   0.25011   0.16672   0.00000  Uiso   1.00
C76    C     0.52429   0.25033   0.16660   0.00000  Uiso   1.00
C77    C     0.97571   0.25033   0.16673   0.00000  Uiso   1.00
C78    C     0.77649   0.10429   0.19937   0.00000  Uiso   1.00
C79    C     0.72095   0.39568   0.13677   0.00000  Uiso   1.00
C80    C     0.72351   0.10429   0.13397   0.00000  Uiso   1.00
C81    C     0.77905   0.39568   0.19657   0.00000  Uiso   1.00
C82    C     0.77626   0.05406   0.20031   0.00000  Uiso   1.00
C83    C     0.72010   0.44591   0.13700   0.00000  Uiso   1.00
C84    C     0.72374   0.05406   0.13303   0.00000  Uiso   1.00
Cl85   Cl    0.81237   0.13314   0.24165   0.00000  Uiso   1.00
Cl86   Cl    0.68348   0.36673   0.09626   0.00000  Uiso   1.00
Cl87   Cl    0.68763   0.13314   0.09168   0.00000  Uiso   1.00
Cl88   Cl    0.81652   0.36673   0.23707   0.00000  Uiso   1.00
Cu89   Cu    0.75000   0.29822   0.16667   0.00000  Uiso   1.00
Cu90   Cu    0.75000   0.20179   0.16667   0.00000  Uiso   1.00
H91    H     0.61167   0.32316   0.19244   0.00000  Uiso   1.00
H92    H     0.97037   0.17766   0.19377   0.00000  Uiso   1.00
H93    H     0.96870   0.32300   0.13974   0.00000  Uiso   1.00
H94    H     0.52963   0.17765   0.13956   0.00000  Uiso   1.00
H95    H     0.89004   0.17709   0.19247   0.00000  Uiso   1.00
H96    H     0.88833   0.32316   0.14089   0.00000  Uiso   1.00
H97    H     0.60996   0.17709   0.14086   0.00000  Uiso   1.00
H98    H     0.79696   0.03701   0.22798   0.00000  Uiso   1.00
H99    H     0.69551   0.46295   0.11359   0.00000  Uiso   1.00
H100   H     0.70304   0.03701   0.10536   0.00000  Uiso   1.00
H101   H     0.80449   0.46295   0.21974   0.00000  Uiso   1.00
H102   H     0.53130   0.32300   0.19359   0.00000  Uiso   1.00
N103   N     0.75000   0.12935   0.16667   0.00000  Uiso   1.00
N104   N     0.75000   0.37066   0.16667   0.00000  Uiso   1.00
O105   O     0.68573   0.29072   0.16667   0.00000  Uiso   1.00
O106   O     0.81427   0.20929   0.16666   0.00000  Uiso   1.00
O107   O     0.81427   0.29072   0.16666   0.00000  Uiso   1.00
O108   O     0.68573   0.20929   0.16667   0.00000  Uiso   1.00
O109   O     0.75000   0.29071   0.09613   0.00000  Uiso   1.00
O110   O     0.75000   0.20929   0.23720   0.00000  Uiso   1.00
O111   O     0.75000   0.29071   0.23720   0.00000  Uiso   1.00
O112   O     0.75000   0.20929   0.09613   0.00000  Uiso   1.00
C113   C     0.16504   0.75001   0.16661   0.00000  Uiso   1.00
C114   C     0.27990   0.94591   0.19634   0.00000  Uiso   1.00
C115   C     0.24994   0.75000   0.07360   0.00000  Uiso   1.00
C116   C     0.25006   0.75000   0.25973   0.00000  Uiso   1.00
C117   C     0.25000   0.52730   0.16667   0.00000  Uiso   1.00
C118   C     0.25000   0.97266   0.16667   0.00000  Uiso   1.00
C119   C     0.24998   0.75000   0.02186   0.00000  Uiso   1.00
C120   C     0.25002   0.75000   0.31147   0.00000  Uiso   1.00
C121   C     0.04810   0.79122   0.18125   0.00000  Uiso   1.00
C122   C     0.45282   0.70937   0.18143   0.00000  Uiso   1.00
C123   C     0.45190   0.79122   0.15208   0.00000  Uiso   1.00
C124   C     0.33496   0.75001   0.16672   0.00000  Uiso   1.00
C125   C     0.04718   0.70937   0.15191   0.00000  Uiso   1.00
C126   C     0.09401   0.79123   0.18088   0.00000  Uiso   1.00
C127   C     0.40691   0.70913   0.18101   0.00000  Uiso   1.00
C128   C     0.40599   0.79123   0.15245   0.00000  Uiso   1.00
C129   C     0.09309   0.70913   0.15232   0.00000  Uiso   1.00
C130   C     0.11677   0.75011   0.16661   0.00000  Uiso   1.00
C131   C     0.38323   0.75011   0.16672   0.00000  Uiso   1.00
C132   C     0.02429   0.75033   0.16660   0.00000  Uiso   1.00
C133   C     0.47571   0.75033   0.16673   0.00000  Uiso   1.00
C134   C     0.27649   0.60429   0.19937   0.00000  Uiso   1.00
C135   C     0.22095   0.89568   0.13677   0.00000  Uiso   1.00
C136   C     0.22351   0.60429   0.13397   0.00000  Uiso   1.00
C137   C     0.27905   0.89568   0.19657   0.00000  Uiso   1.00
C138   C     0.27626   0.55406   0.20031   0.00000  Uiso   1.00
C139   C     0.22010   0.94591   0.13700   0.00000  Uiso   1.00
C140   C     0.22374   0.55406   0.13303   0.00000  Uiso   1.00
Cl141  Cl    0.31237   0.63314   0.24165   0.00000  Uiso   1.00
Cl142  Cl    0.18348   0.86673   0.09626   0.00000  Uiso   1.00
Cl143  Cl    0.18763   0.63314   0.09168   0.00000  Uiso   1.00
Cl144  Cl    0.31652   0.86673   0.23707   0.00000  Uiso   1.00
Cu145  Cu    0.25000   0.79822   0.16667   0.00000  Uiso   1.00
Cu146  Cu    0.25000   0.70179   0.16667   0.00000  Uiso   1.00
H147   H     0.11167   0.82316   0.19244   0.00000  Uiso   1.00
H148   H     0.47037   0.67766   0.19377   0.00000  Uiso   1.00
H149   H     0.46870   0.82300   0.13974   0.00000  Uiso   1.00
H150   H     0.02963   0.67765   0.13956   0.00000  Uiso   1.00
H151   H     0.39004   0.67709   0.19247   0.00000  Uiso   1.00
H152   H     0.38833   0.82316   0.14089   0.00000  Uiso   1.00
H153   H     0.10996   0.67709   0.14086   0.00000  Uiso   1.00
H154   H     0.29696   0.53701   0.22798   0.00000  Uiso   1.00
H155   H     0.19551   0.96295   0.11359   0.00000  Uiso   1.00
H156   H     0.20304   0.53701   0.10536   0.00000  Uiso   1.00
H157   H     0.30449   0.96295   0.21974   0.00000  Uiso   1.00
H158   H     0.03130   0.82300   0.19359   0.00000  Uiso   1.00
N159   N     0.25000   0.62935   0.16667   0.00000  Uiso   1.00
N160   N     0.25000   0.87066   0.16667   0.00000  Uiso   1.00
O161   O     0.18573   0.79072   0.16667   0.00000  Uiso   1.00
O162   O     0.31427   0.70929   0.16666   0.00000  Uiso   1.00
O163   O     0.31427   0.79072   0.16666   0.00000  Uiso   1.00
O164   O     0.18573   0.70929   0.16667   0.00000  Uiso   1.00
O165   O     0.25000   0.79071   0.09613   0.00000  Uiso   1.00
O166   O     0.25000   0.70929   0.23720   0.00000  Uiso   1.00
O167   O     0.25000   0.79071   0.23720   0.00000  Uiso   1.00
O168   O     0.25000   0.70929   0.09613   0.00000  Uiso   1.00
C169   C     0.66504   0.75001   0.16661   0.00000  Uiso   1.00
C170   C     0.77990   0.94591   0.19634   0.00000  Uiso   1.00
C171   C     0.74994   0.75000   0.07360   0.00000  Uiso   1.00
C172   C     0.75006   0.75000   0.25973   0.00000  Uiso   1.00
C173   C     0.75000   0.52730   0.16667   0.00000  Uiso   1.00
C174   C     0.75000   0.97266   0.16667   0.00000  Uiso   1.00
C175   C     0.74998   0.75000   0.02186   0.00000  Uiso   1.00
C176   C     0.75002   0.75000   0.31147   0.00000  Uiso   1.00
C177   C     0.54810   0.79122   0.18125   0.00000  Uiso   1.00
C178   C     0.95282   0.70937   0.18143   0.00000  Uiso   1.00
C179   C     0.95190   0.79122   0.15208   0.00000  Uiso   1.00
C180   C     0.83496   0.75001   0.16672   0.00000  Uiso   1.00
C181   C     0.54718   0.70937   0.15191   0.00000  Uiso   1.00
C182   C     0.59401   0.79123   0.18088   0.00000  Uiso   1.00
C183   C     0.90691   0.70913   0.18101   0.00000  Uiso   1.00
C184   C     0.90599   0.79123   0.15245   0.00000  Uiso   1.00
C185   C     0.59309   0.70913   0.15232   0.00000  Uiso   1.00
C186   C     0.61677   0.75011   0.16661   0.00000  Uiso   1.00
C187   C     0.88323   0.75011   0.16672   0.00000  Uiso   1.00
C188   C     0.52429   0.75033   0.16660   0.00000  Uiso   1.00
C189   C     0.97571   0.75033   0.16673   0.00000  Uiso   1.00
C190   C     0.77649   0.60429   0.19937   0.00000  Uiso   1.00
C191   C     0.72095   0.89568   0.13677   0.00000  Uiso   1.00
C192   C     0.72351   0.60429   0.13397   0.00000  Uiso   1.00
C193   C     0.77905   0.89568   0.19657   0.00000  Uiso   1.00
C194   C     0.77626   0.55406   0.20031   0.00000  Uiso   1.00
C195   C     0.72010   0.94591   0.13700   0.00000  Uiso   1.00
C196   C     0.72374   0.55406   0.13303   0.00000  Uiso   1.00
Cl197  Cl    0.81237   0.63314   0.24165   0.00000  Uiso   1.00
Cl198  Cl    0.68348   0.86673   0.09626   0.00000  Uiso   1.00
Cl199  Cl    0.68763   0.63314   0.09168   0.00000  Uiso   1.00
Cl200  Cl    0.81652   0.86673   0.23707   0.00000  Uiso   1.00
Cu201  Cu    0.75000   0.79822   0.16667   0.00000  Uiso   1.00
Cu202  Cu    0.75000   0.70179   0.16667   0.00000  Uiso   1.00
H203   H     0.61167   0.82316   0.19244   0.00000  Uiso   1.00
H204   H     0.97037   0.67766   0.19377   0.00000  Uiso   1.00
H205   H     0.96870   0.82300   0.13974   0.00000  Uiso   1.00
H206   H     0.52963   0.67765   0.13956   0.00000  Uiso   1.00
H207   H     0.89004   0.67709   0.19247   0.00000  Uiso   1.00
H208   H     0.88833   0.82316   0.14089   0.00000  Uiso   1.00
H209   H     0.60996   0.67709   0.14086   0.00000  Uiso   1.00
H210   H     0.79696   0.53701   0.22798   0.00000  Uiso   1.00
H211   H     0.69551   0.96295   0.11359   0.00000  Uiso   1.00
H212   H     0.70304   0.53701   0.10536   0.00000  Uiso   1.00
H213   H     0.80449   0.96295   0.21974   0.00000  Uiso   1.00
H214   H     0.53130   0.82300   0.19359   0.00000  Uiso   1.00
N215   N     0.75000   0.62935   0.16667   0.00000  Uiso   1.00
N216   N     0.75000   0.87066   0.16667   0.00000  Uiso   1.00
O217   O     0.68573   0.79072   0.16667   0.00000  Uiso   1.00
O218   O     0.81427   0.70929   0.16666   0.00000  Uiso   1.00
O219   O     0.81427   0.79072   0.16666   0.00000  Uiso   1.00
O220   O     0.68573   0.70929   0.16667   0.00000  Uiso   1.00
O221   O     0.75000   0.79071   0.09613   0.00000  Uiso   1.00
O222   O     0.75000   0.70929   0.23720   0.00000  Uiso   1.00
O223   O     0.75000   0.79071   0.23720   0.00000  Uiso   1.00
O224   O     0.75000   0.70929   0.09613   0.00000  Uiso   1.00
C225   C     0.16504   0.25001   0.49994   0.00000  Uiso   1.00
C226   C     0.27990   0.44591   0.52967   0.00000  Uiso   1.00
C227   C     0.24994   0.25000   0.40694   0.00000  Uiso   1.00
C228   C     0.25006   0.25000   0.59306   0.00000  Uiso   1.00
C229   C     0.25000   0.02730   0.50000   0.00000  Uiso   1.00
C230   C     0.25000   0.47266   0.50000   0.00000  Uiso   1.00
C231   C     0.24998   0.25000   0.35519   0.00000  Uiso   1.00
C232   C     0.25002   0.25000   0.64481   0.00000  Uiso   1.00
C233   C     0.04810   0.29122   0.51458   0.00000  Uiso   1.00
C234   C     0.45282   0.20937   0.51476   0.00000  Uiso   1.00
C235   C     0.45190   0.29122   0.48542   0.00000  Uiso   1.00
C236   C     0.33496   0.25001   0.50006   0.00000  Uiso   1.00
C237   C     0.04718   0.20937   0.48524   0.00000  Uiso   1.00
C238   C     0.09401   0.29123   0.51421   0.00000  Uiso   1.00
C239   C     0.40691   0.20913   0.51434   0.00000  Uiso   1.00
C240   C     0.40599   0.29123   0.48578   0.00000  Uiso   1.00
C241   C     0.09309   0.20913   0.48566   0.00000  Uiso   1.00
C242   C     0.11677   0.25011   0.49994   0.00000  Uiso   1.00
C243   C     0.38323   0.25011   0.50006   0.00000  Uiso   1.00
C244   C     0.02429   0.25033   0.49993   0.00000  Uiso   1.00
C245   C     0.47571   0.25033   0.50006   0.00000  Uiso   1.00
C246   C     0.27649   0.10429   0.53270   0.00000  Uiso   1.00
C247   C     0.22095   0.39568   0.47010   0.00000  Uiso   1.00
C248   C     0.22351   0.10429   0.46730   0.00000  Uiso   1.00
C249   C     0.27905   0.39568   0.52990   0.00000  Uiso   1.00
C250   C     0.27626   0.05406   0.53364   0.00000  Uiso   1.00
C251   C     0.22010   0.44591   0.47033   0.00000  Uiso   1.00
C252   C     0.22374   0.05406   0.46636   0.00000  Uiso   1.00
Cl253  Cl    0.31237   0.13314   0.57498   0.00000  Uiso   1.00
Cl254  Cl    0.18348   0.36673   0.42959   0.00000  Uiso   1.00
Cl255  Cl    0.18763   0.13314   0.42502   0.00000  Uiso   1.00
Cl256  Cl    0.31652   0.36673   0.57041   0.00000  Uiso   1.00
Cu257  Cu    0.25000   0.29822   0.50000   0.00000  Uiso   1.00
Cu258  Cu    0.25000   0.20179   0.50000   0.00000  Uiso   1.00
H259   H     0.11167   0.32316   0.52577   0.00000  Uiso   1.00
H260   H     0.47037   0.17766   0.52711   0.00000  Uiso   1.00
H261   H     0.46870   0.32300   0.47307   0.00000  Uiso   1.00
H262   H     0.02963   0.17765   0.47290   0.00000  Uiso   1.00
H263   H     0.39004   0.17709   0.52581   0.00000  Uiso   1.00
H264   H     0.38833   0.32316   0.47423   0.00000  Uiso   1.00
H265   H     0.10996   0.17709   0.47420   0.00000  Uiso   1.00
H266   H     0.29696   0.03701   0.56131   0.00000  Uiso   1.00
H267   H     0.19551   0.46295   0.44693   0.00000  Uiso   1.00
H268   H     0.20304   0.03701   0.43869   0.00000  Uiso   1.00
H269   H     0.30449   0.46295   0.55307   0.00000  Uiso   1.00
H270   H     0.03130   0.32300   0.52692   0.00000  Uiso   1.00
N271   N     0.25000   0.12935   0.50000   0.00000  Uiso   1.00
N272   N     0.25000   0.37066   0.50000   0.00000  Uiso   1.00
O273   O     0.18573   0.29072   0.50000   0.00000  Uiso   1.00
O274   O     0.31427   0.20929   0.50000   0.00000  Uiso   1.00
O275   O     0.31427   0.29072   0.50000   0.00000  Uiso   1.00
O276   O     0.18573   0.20929   0.50000   0.00000  Uiso   1.00
O277   O     0.25000   0.29071   0.42946   0.00000  Uiso   1.00
O278   O     0.25000   0.20929   0.57054   0.00000  Uiso   1.00
O279   O     0.25000   0.29071   0.57054   0.00000  Uiso   1.00
O280   O     0.25000   0.20929   0.42946   0.00000  Uiso   1.00
C281   C     0.66504   0.25001   0.49994   0.00000  Uiso   1.00
C282   C     0.77990   0.44591   0.52967   0.00000  Uiso   1.00
C283   C     0.74994   0.25000   0.40694   0.00000  Uiso   1.00
C284   C     0.75006   0.25000   0.59306   0.00000  Uiso   1.00
C285   C     0.75000   0.02730   0.50000   0.00000  Uiso   1.00
C286   C     0.75000   0.47266   0.50000   0.00000  Uiso   1.00
C287   C     0.74998   0.25000   0.35519   0.00000  Uiso   1.00
C288   C     0.75002   0.25000   0.64481   0.00000  Uiso   1.00
C289   C     0.54810   0.29122   0.51458   0.00000  Uiso   1.00
C290   C     0.95282   0.20937   0.51476   0.00000  Uiso   1.00
C291   C     0.95190   0.29122   0.48542   0.00000  Uiso   1.00
C292   C     0.83496   0.25001   0.50006   0.00000  Uiso   1.00
C293   C     0.54718   0.20937   0.48524   0.00000  Uiso   1.00
C294   C     0.59401   0.29123   0.51421   0.00000  Uiso   1.00
C295   C     0.90691   0.20913   0.51434   0.00000  Uiso   1.00
C296   C     0.90599   0.29123   0.48578   0.00000  Uiso   1.00
C297   C     0.59309   0.20913   0.48566   0.00000  Uiso   1.00
C298   C     0.61677   0.25011   0.49994   0.00000  Uiso   1.00
C299   C     0.88323   0.25011   0.50006   0.00000  Uiso   1.00
C300   C     0.52429   0.25033   0.49993   0.00000  Uiso   1.00
C301   C     0.97571   0.25033   0.50006   0.00000  Uiso   1.00
C302   C     0.77649   0.10429   0.53270   0.00000  Uiso   1.00
C303   C     0.72095   0.39568   0.47010   0.00000  Uiso   1.00
C304   C     0.72351   0.10429   0.46730   0.00000  Uiso   1.00
C305   C     0.77905   0.39568   0.52990   0.00000  Uiso   1.00
C306   C     0.77626   0.05406   0.53364   0.00000  Uiso   1.00
C307   C     0.72010   0.44591   0.47033   0.00000  Uiso   1.00
C308   C     0.72374   0.05406   0.46636   0.00000  Uiso   1.00
Cl309  Cl    0.81237   0.13314   0.57498   0.00000  Uiso   1.00
Cl310  Cl    0.68348   0.36673   0.42959   0.00000  Uiso   1.00
Cl311  Cl    0.68763   0.13314   0.42502   0.00000  Uiso   1.00
Cl312  Cl    0.81652   0.36673   0.57041   0.00000  Uiso   1.00
Cu313  Cu    0.75000   0.29822   0.50000   0.00000  Uiso   1.00
Cu314  Cu    0.75000   0.20179   0.50000   0.00000  Uiso   1.00
H315   H     0.61167   0.32316   0.52577   0.00000  Uiso   1.00
H316   H     0.97037   0.17766   0.52711   0.00000  Uiso   1.00
H317   H     0.96870   0.32300   0.47307   0.00000  Uiso   1.00
H318   H     0.52963   0.17765   0.47290   0.00000  Uiso   1.00
H319   H     0.89004   0.17709   0.52581   0.00000  Uiso   1.00
H320   H     0.88833   0.32316   0.47423   0.00000  Uiso   1.00
H321   H     0.60996   0.17709   0.47420   0.00000  Uiso   1.00
H322   H     0.79696   0.03701   0.56131   0.00000  Uiso   1.00
H323   H     0.69551   0.46295   0.44693   0.00000  Uiso   1.00
H324   H     0.70304   0.03701   0.43869   0.00000  Uiso   1.00
H325   H     0.80449   0.46295   0.55307   0.00000  Uiso   1.00
H326   H     0.53130   0.32300   0.52692   0.00000  Uiso   1.00
N327   N     0.75000   0.12935   0.50000   0.00000  Uiso   1.00
N328   N     0.75000   0.37066   0.50000   0.00000  Uiso   1.00
O329   O     0.68573   0.29072   0.50000   0.00000  Uiso   1.00
O330   O     0.81427   0.20929   0.50000   0.00000  Uiso   1.00
O331   O     0.81427   0.29072   0.50000   0.00000  Uiso   1.00
O332   O     0.68573   0.20929   0.50000   0.00000  Uiso   1.00
O333   O     0.75000   0.29071   0.42946   0.00000  Uiso   1.00
O334   O     0.75000   0.20929   0.57054   0.00000  Uiso   1.00
O335   O     0.75000   0.29071   0.57054   0.00000  Uiso   1.00
O336   O     0.75000   0.20929   0.42946   0.00000  Uiso   1.00
C337   C     0.16504   0.75001   0.49994   0.00000  Uiso   1.00
C338   C     0.27990   0.94591   0.52967   0.00000  Uiso   1.00
C339   C     0.24994   0.75000   0.40694   0.00000  Uiso   1.00
C340   C     0.25006   0.75000   0.59306   0.00000  Uiso   1.00
C341   C     0.25000   0.52730   0.50000   0.00000  Uiso   1.00
C342   C     0.25000   0.97266   0.50000   0.00000  Uiso   1.00
C343   C     0.24998   0.75000   0.35519   0.00000  Uiso   1.00
C344   C     0.25002   0.75000   0.64481   0.00000  Uiso   1.00
C345   C     0.04810   0.79122   0.51458   0.00000  Uiso   1.00
C346   C     0.45282   0.70937   0.51476   0.00000  Uiso   1.00
C347   C     0.45190   0.79122   0.48542   0.00000  Uiso   1.00
C348   C     0.33496   0.75001   0.50006   0.00000  Uiso   1.00
C349   C     0.04718   0.70937   0.48524   0.00000  Uiso   1.00
C350   C     0.09401   0.79123   0.51421   0.00000  Uiso   1.00
C351   C     0.40691   0.70913   0.51434   0.00000  Uiso   1.00
C352   C     0.40599   0.79123   0.48578   0.00000  Uiso   1.00
C353   C     0.09309   0.70913   0.48566   0.00000  Uiso   1.00
C354   C     0.11677   0.75011   0.49994   0.00000  Uiso   1.00
C355   C     0.38323   0.75011   0.50006   0.00000  Uiso   1.00
C356   C     0.02429   0.75033   0.49993   0.00000  Uiso   1.00
C357   C     0.47571   0.75033   0.50006   0.00000  Uiso   1.00
C358   C     0.27649   0.60429   0.53270   0.00000  Uiso   1.00
C359   C     0.22095   0.89568   0.47010   0.00000  Uiso   1.00
C360   C     0.22351   0.60429   0.46730   0.00000  Uiso   1.00
C361   C     0.27905   0.89568   0.52990   0.00000  Uiso   1.00
C362   C     0.27626   0.55406   0.53364   0.00000  Uiso   1.00
C363   C     0.22010   0.94591   0.47033   0.00000  Uiso   1.00
C364   C     0.22374   0.55406   0.46636   0.00000  Uiso   1.00
Cl365  Cl    0.31237   0.63314   0.57498   0.00000  Uiso   1.00
Cl366  Cl    0.18348   0.86673   0.42959   0.00000  Uiso   1.00
Cl367  Cl    0.18763   0.63314   0.42502   0.00000  Uiso   1.00
Cl368  Cl    0.31652   0.86673   0.57041   0.00000  Uiso   1.00
Cu369  Cu    0.25000   0.79822   0.50000   0.00000  Uiso   1.00
Cu370  Cu    0.25000   0.70179   0.50000   0.00000  Uiso   1.00
H371   H     0.11167   0.82316   0.52577   0.00000  Uiso   1.00
H372   H     0.47037   0.67766   0.52711   0.00000  Uiso   1.00
H373   H     0.46870   0.82300   0.47307   0.00000  Uiso   1.00
H374   H     0.02963   0.67765   0.47290   0.00000  Uiso   1.00
H375   H     0.39004   0.67709   0.52581   0.00000  Uiso   1.00
H376   H     0.38833   0.82316   0.47423   0.00000  Uiso   1.00
H377   H     0.10996   0.67709   0.47420   0.00000  Uiso   1.00
H378   H     0.29696   0.53701   0.56131   0.00000  Uiso   1.00
H379   H     0.19551   0.96295   0.44693   0.00000  Uiso   1.00
H380   H     0.20304   0.53701   0.43869   0.00000  Uiso   1.00
H381   H     0.30449   0.96295   0.55307   0.00000  Uiso   1.00
H382   H     0.03130   0.82300   0.52692   0.00000  Uiso   1.00
N383   N     0.25000   0.62935   0.50000   0.00000  Uiso   1.00
N384   N     0.25000   0.87066   0.50000   0.00000  Uiso   1.00
O385   O     0.18573   0.79072   0.50000   0.00000  Uiso   1.00
O386   O     0.31427   0.70929   0.50000   0.00000  Uiso   1.00
O387   O     0.31427   0.79072   0.50000   0.00000  Uiso   1.00
O388   O     0.18573   0.70929   0.50000   0.00000  Uiso   1.00
O389   O     0.25000   0.79071   0.42946   0.00000  Uiso   1.00
O390   O     0.25000   0.70929   0.57054   0.00000  Uiso   1.00
O391   O     0.25000   0.79071   0.57054   0.00000  Uiso   1.00
O392   O     0.25000   0.70929   0.42946   0.00000  Uiso   1.00
C393   C     0.66504   0.75001   0.49994   0.00000  Uiso   1.00
C394   C     0.77990   0.94591   0.52967   0.00000  Uiso   1.00
C395   C     0.74994   0.75000   0.40694   0.00000  Uiso   1.00
C396   C     0.75006   0.75000   0.59306   0.00000  Uiso   1.00
C397   C     0.75000   0.52730   0.50000   0.00000  Uiso   1.00
C398   C     0.75000   0.97266   0.50000   0.00000  Uiso   1.00
C399   C     0.74998   0.75000   0.35519   0.00000  Uiso   1.00
C400   C     0.75002   0.75000   0.64481   0.00000  Uiso   1.00
C401   C     0.54810   0.79122   0.51458   0.00000  Uiso   1.00
C402   C     0.95282   0.70937   0.51476   0.00000  Uiso   1.00
C403   C     0.95190   0.79122   0.48542   0.00000  Uiso   1.00
C404   C     0.83496   0.75001   0.50006   0.00000  Uiso   1.00
C405   C     0.54718   0.70937   0.48524   0.00000  Uiso   1.00
C406   C     0.59401   0.79123   0.51421   0.00000  Uiso   1.00
C407   C     0.90691   0.70913   0.51434   0.00000  Uiso   1.00
C408   C     0.90599   0.79123   0.48578   0.00000  Uiso   1.00
C409   C     0.59309   0.70913   0.48566   0.00000  Uiso   1.00
C410   C     0.61677   0.75011   0.49994   0.00000  Uiso   1.00
C411   C     0.88323   0.75011   0.50006   0.00000  Uiso   1.00
C412   C     0.52429   0.75033   0.49993   0.00000  Uiso   1.00
C413   C     0.97571   0.75033   0.50006   0.00000  Uiso   1.00
C414   C     0.77649   0.60429   0.53270   0.00000  Uiso   1.00
C415   C     0.72095   0.89568   0.47010   0.00000  Uiso   1.00
C416   C     0.72351   0.60429   0.46730   0.00000  Uiso   1.00
C417   C     0.77905   0.89568   0.52990   0.00000  Uiso   1.00
C418   C     0.77626   0.55406   0.53364   0.00000  Uiso   1.00
C419   C     0.72010   0.94591   0.47033   0.00000  Uiso   1.00
C420   C     0.72374   0.55406   0.46636   0.00000  Uiso   1.00
Cl421  Cl    0.81237   0.63314   0.57498   0.00000  Uiso   1.00
Cl422  Cl    0.68348   0.86673   0.42959   0.00000  Uiso   1.00
Cl423  Cl    0.68763   0.63314   0.42502   0.00000  Uiso   1.00
Cl424  Cl    0.81652   0.86673   0.57041   0.00000  Uiso   1.00
Cu425  Cu    0.75000   0.79822   0.50000   0.00000  Uiso   1.00
Cu426  Cu    0.75000   0.70179   0.50000   0.00000  Uiso   1.00
H427   H     0.61167   0.82316   0.52577   0.00000  Uiso   1.00
H428   H     0.97037   0.67766   0.52711   0.00000  Uiso   1.00
H429   H     0.96870   0.82300   0.47307   0.00000  Uiso   1.00
H430   H     0.52963   0.67765   0.47290   0.00000  Uiso   1.00
H431   H     0.89004   0.67709   0.52581   0.00000  Uiso   1.00
H432   H     0.88833   0.82316   0.47423   0.00000  Uiso   1.00
H433   H     0.60996   0.67709   0.47420   0.00000  Uiso   1.00
H434   H     0.79696   0.53701   0.56131   0.00000  Uiso   1.00
H435   H     0.69551   0.96295   0.44693   0.00000  Uiso   1.00
H436   H     0.70304   0.53701   0.43869   0.00000  Uiso   1.00
H437   H     0.80449   0.96295   0.55307   0.00000  Uiso   1.00
H438   H     0.53130   0.82300   0.52692   0.00000  Uiso   1.00
N439   N     0.75000   0.62935   0.50000   0.00000  Uiso   1.00
N440   N     0.75000   0.87066   0.50000   0.00000  Uiso   1.00
O441   O     0.68573   0.79072   0.50000   0.00000  Uiso   1.00
O442   O     0.81427   0.70929   0.50000   0.00000  Uiso   1.00
O443   O     0.81427   0.79072   0.50000   0.00000  Uiso   1.00
O444   O     0.68573   0.70929   0.50000   0.00000  Uiso   1.00
O445   O     0.75000   0.79071   0.42946   0.00000  Uiso   1.00
O446   O     0.75000   0.70929   0.57054   0.00000  Uiso   1.00
O447   O     0.75000   0.79071   0.57054   0.00000  Uiso   1.00
O448   O     0.75000   0.70929   0.42946   0.00000  Uiso   1.00
C449   C     0.16504   0.25001   0.83328   0.00000  Uiso   1.00
C450   C     0.27990   0.44591   0.86300   0.00000  Uiso   1.00
C451   C     0.24994   0.25000   0.74027   0.00000  Uiso   1.00
C452   C     0.25006   0.25000   0.92640   0.00000  Uiso   1.00
C453   C     0.25000   0.02730   0.83333   0.00000  Uiso   1.00
C454   C     0.25000   0.47266   0.83333   0.00000  Uiso   1.00
C455   C     0.24998   0.25000   0.68853   0.00000  Uiso   1.00
C456   C     0.25002   0.25000   0.97814   0.00000  Uiso   1.00
C457   C     0.04810   0.29122   0.84791   0.00000  Uiso   1.00
C458   C     0.45282   0.20937   0.84809   0.00000  Uiso   1.00
C459   C     0.45190   0.29122   0.81875   0.00000  Uiso   1.00
C460   C     0.33496   0.25001   0.83339   0.00000  Uiso   1.00
C461   C     0.04718   0.20937   0.81857   0.00000  Uiso   1.00
C462   C     0.09401   0.29123   0.84754   0.00000  Uiso   1.00
C463   C     0.40691   0.20913   0.84768   0.00000  Uiso   1.00
C464   C     0.40599   0.29123   0.81912   0.00000  Uiso   1.00
C465   C     0.09309   0.20913   0.81899   0.00000  Uiso   1.00
C466   C     0.11677   0.25011   0.83328   0.00000  Uiso   1.00
C467   C     0.38323   0.25011   0.83339   0.00000  Uiso   1.00
C468   C     0.02429   0.25033   0.83327   0.00000  Uiso   1.00
C469   C     0.47571   0.25033   0.83340   0.00000  Uiso   1.00
C470   C     0.27649   0.10429   0.86603   0.00000  Uiso   1.00
C471   C     0.22095   0.39568   0.80343   0.00000  Uiso   1.00
C472   C     0.22351   0.10429   0.80063   0.00000  Uiso   1.00
C473   C     0.27905   0.39568   0.86323   0.00000  Uiso   1.00
C474   C     0.27626   0.05406   0.86697   0.00000  Uiso   1.00
C475   C     0.22010   0.44591   0.80367   0.00000  Uiso   1.00
C476   C     0.22374   0.05406   0.79969   0.00000  Uiso   1.00
Cl477  Cl    0.31237   0.13314   0.90832   0.00000  Uiso   1.00
Cl478  Cl    0.18348   0.36673   0.76293   0.00000  Uiso   1.00
Cl479  Cl    0.18763   0.13314   0.75835   0.00000  Uiso   1.00
Cl480  Cl    0.31652   0.36673   0.90374   0.00000  Uiso   1.00
Cu481  Cu    0.25000   0.29822   0.83333   0.00000  Uiso   1.00
Cu482  Cu    0.25000   0.20179   0.83333   0.00000  Uiso   1.00
H483   H     0.11167   0.32316   0.85910   0.00000  Uiso   1.00
H484   H     0.47037   0.17766   0.86044   0.00000  Uiso   1.00
H485   H     0.46870   0.32300   0.80641   0.00000  Uiso   1.00
H486   H     0.02963   0.17765   0.80623   0.00000  Uiso   1.00
H487   H     0.39004   0.17709   0.85914   0.00000  Uiso   1.00
H488   H     0.38833   0.32316   0.80756   0.00000  Uiso   1.00
H489   H     0.10996   0.17709   0.80753   0.00000  Uiso   1.00
H490   H     0.29696   0.03701   0.89464   0.00000  Uiso   1.00
H491   H     0.19551   0.46295   0.78026   0.00000  Uiso   1.00
H492   H     0.20304   0.03701   0.77202   0.00000  Uiso   1.00
H493   H     0.30449   0.46295   0.88641   0.00000  Uiso   1.00
H494   H     0.03130   0.32300   0.86025   0.00000  Uiso   1.00
N495   N     0.25000   0.12935   0.83333   0.00000  Uiso   1.00
N496   N     0.25000   0.37066   0.83333   0.00000  Uiso   1.00
O497   O     0.18573   0.29072   0.83334   0.00000  Uiso   1.00
O498   O     0.31427   0.20929   0.83333   0.00000  Uiso   1.00
O499   O     0.31427   0.29072   0.83333   0.00000  Uiso   1.00
O500   O     0.18573   0.20929   0.83334   0.00000  Uiso   1.00
O501   O     0.25000   0.29071   0.76280   0.00000  Uiso   1.00
O502   O     0.25000   0.20929   0.90387   0.00000  Uiso   1.00
O503   O     0.25000   0.29071   0.90387   0.00000  Uiso   1.00
O504   O     0.25000   0.20929   0.76280   0.00000  Uiso   1.00
C505   C     0.66504   0.25001   0.83328   0.00000  Uiso   1.00
C506   C     0.77990   0.44591   0.86300   0.00000  Uiso   1.00
C507   C     0.74994   0.25000   0.74027   0.00000  Uiso   1.00
C508   C     0.75006   0.25000   0.92640   0.00000  Uiso   1.00
C509   C     0.75000   0.02730   0.83333   0.00000  Uiso   1.00
C510   C     0.75000   0.47266   0.83333   0.00000  Uiso   1.00
C511   C     0.74998   0.25000   0.68853   0.00000  Uiso   1.00
C512   C     0.75002   0.25000   0.97814   0.00000  Uiso   1.00
C513   C     0.54810   0.29122   0.84791   0.00000  Uiso   1.00
C514   C     0.95282   0.20937   0.84809   0.00000  Uiso   1.00
C515   C     0.95190   0.29122   0.81875   0.00000  Uiso   1.00
C516   C     0.83496   0.25001   0.83339   0.00000  Uiso   1.00
C517   C     0.54718   0.20937   0.81857   0.00000  Uiso   1.00
C518   C     0.59401   0.29123   0.84754   0.00000  Uiso   1.00
C519   C     0.90691   0.20913   0.84768   0.00000  Uiso   1.00
C520   C     0.90599   0.29123   0.81912   0.00000  Uiso   1.00
C521   C     0.59309   0.20913   0.81899   0.00000  Uiso   1.00
C522   C     0.61677   0.25011   0.83328   0.00000  Uiso   1.00
C523   C     0.88323   0.25011   0.83339   0.00000  Uiso   1.00
C524   C     0.52429   0.25033   0.83327   0.00000  Uiso   1.00
C525   C     0.97571   0.25033   0.83340   0.00000  Uiso   1.00
C526   C     0.77649   0.10429   0.86603   0.00000  Uiso   1.00
C527   C     0.72095   0.39568   0.80343   0.00000  Uiso   1.00
C528   C     0.72351   0.10429   0.80063   0.00000  Uiso   1.00
C529   C     0.77905   0.39568   0.86323   0.00000  Uiso   1.00
C530   C     0.77626   0.05406   0.86697   0.00000  Uiso   1.00
C531   C     0.72010   0.44591   0.80367   0.00000  Uiso   1.00
C532   C     0.72374   0.05406   0.79969   0.00000  Uiso   1.00
Cl533  Cl    0.81237   0.13314   0.90832   0.00000  Uiso   1.00
Cl534  Cl    0.68348   0.36673   0.76293   0.00000  Uiso   1.00
Cl535  Cl    0.68763   0.13314   0.75835   0.00000  Uiso   1.00
Cl536  Cl    0.81652   0.36673   0.90374   0.00000  Uiso   1.00
Cu537  Cu    0.75000   0.29822   0.83333   0.00000  Uiso   1.00
Cu538  Cu    0.75000   0.20179   0.83333   0.00000  Uiso   1.00
H539   H     0.61167   0.32316   0.85910   0.00000  Uiso   1.00
H540   H     0.97037   0.17766   0.86044   0.00000  Uiso   1.00
H541   H     0.96870   0.32300   0.80641   0.00000  Uiso   1.00
H542   H     0.52963   0.17765   0.80623   0.00000  Uiso   1.00
H543   H     0.89004   0.17709   0.85914   0.00000  Uiso   1.00
H544   H     0.88833   0.32316   0.80756   0.00000  Uiso   1.00
H545   H     0.60996   0.17709   0.80753   0.00000  Uiso   1.00
H546   H     0.79696   0.03701   0.89464   0.00000  Uiso   1.00
H547   H     0.69551   0.46295   0.78026   0.00000  Uiso   1.00
H548   H     0.70304   0.03701   0.77202   0.00000  Uiso   1.00
H549   H     0.80449   0.46295   0.88641   0.00000  Uiso   1.00
H550   H     0.53130   0.32300   0.86025   0.00000  Uiso   1.00
N551   N     0.75000   0.12935   0.83333   0.00000  Uiso   1.00
N552   N     0.75000   0.37066   0.83333   0.00000  Uiso   1.00
O553   O     0.68573   0.29072   0.83334   0.00000  Uiso   1.00
O554   O     0.81427   0.20929   0.83333   0.00000  Uiso   1.00
O555   O     0.81427   0.29072   0.83333   0.00000  Uiso   1.00
O556   O     0.68573   0.20929   0.83334   0.00000  Uiso   1.00
O557   O     0.75000   0.29071   0.76280   0.00000  Uiso   1.00
O558   O     0.75000   0.20929   0.90387   0.00000  Uiso   1.00
O559   O     0.75000   0.29071   0.90387   0.00000  Uiso   1.00
O560   O     0.75000   0.20929   0.76280   0.00000  Uiso   1.00
C561   C     0.16504   0.75001   0.83328   0.00000  Uiso   1.00
C562   C     0.27990   0.94591   0.86300   0.00000  Uiso   1.00
C563   C     0.24994   0.75000   0.74027   0.00000  Uiso   1.00
C564   C     0.25006   0.75000   0.92640   0.00000  Uiso   1.00
C565   C     0.25000   0.52730   0.83333   0.00000  Uiso   1.00
C566   C     0.25000   0.97266   0.83333   0.00000  Uiso   1.00
C567   C     0.24998   0.75000   0.68853   0.00000  Uiso   1.00
C568   C     0.25002   0.75000   0.97814   0.00000  Uiso   1.00
C569   C     0.04810   0.79122   0.84791   0.00000  Uiso   1.00
C570   C     0.45282   0.70937   0.84809   0.00000  Uiso   1.00
C571   C     0.45190   0.79122   0.81875   0.00000  Uiso   1.00
C572   C     0.33496   0.75001   0.83339   0.00000  Uiso   1.00
C573   C     0.04718   0.70937   0.81857   0.00000  Uiso   1.00
C574   C     0.09401   0.79123   0.84754   0.00000  Uiso   1.00
C575   C     0.40691   0.70913   0.84768   0.00000  Uiso   1.00
C576   C     0.40599   0.79123   0.81912   0.00000  Uiso   1.00
C577   C     0.09309   0.70913   0.81899   0.00000  Uiso   1.00
C578   C     0.11677   0.75011   0.83328   0.00000  Uiso   1.00
C579   C     0.38323   0.75011   0.83339   0.00000  Uiso   1.00
C580   C     0.02429   0.75033   0.83327   0.00000  Uiso   1.00
C581   C     0.47571   0.75033   0.83340   0.00000  Uiso   1.00
C582   C     0.27649   0.60429   0.86603   0.00000  Uiso   1.00
C583   C     0.22095   0.89568   0.80343   0.00000  Uiso   1.00
C584   C     0.22351   0.60429   0.80063   0.00000  Uiso   1.00
C585   C     0.27905   0.89568   0.86323   0.00000  Uiso   1.00
C586   C     0.27626   0.55406   0.86697   0.00000  Uiso   1.00
C587   C     0.22010   0.94591   0.80367   0.00000  Uiso   1.00
C588   C     0.22374   0.55406   0.79969   0.00000  Uiso   1.00
Cl589  Cl    0.31237   0.63314   0.90832   0.00000  Uiso   1.00
Cl590  Cl    0.18348   0.86673   0.76293   0.00000  Uiso   1.00
Cl591  Cl    0.18763   0.63314   0.75835   0.00000  Uiso   1.00
Cl592  Cl    0.31652   0.86673   0.90374   0.00000  Uiso   1.00
Cu593  Cu    0.25000   0.79822   0.83333   0.00000  Uiso   1.00
Cu594  Cu    0.25000   0.70179   0.83333   0.00000  Uiso   1.00
H595   H     0.11167   0.82316   0.85910   0.00000  Uiso   1.00
H596   H     0.47037   0.67766   0.86044   0.00000  Uiso   1.00
H597   H     0.46870   0.82300   0.80641   0.00000  Uiso   1.00
H598   H     0.02963   0.67765   0.80623   0.00000  Uiso   1.00
H599   H     0.39004   0.67709   0.85914   0.00000  Uiso   1.00
H600   H     0.38833   0.82316   0.80756   0.00000  Uiso   1.00
H601   H     0.10996   0.67709   0.80753   0.00000  Uiso   1.00
H602   H     0.29696   0.53701   0.89464   0.00000  Uiso   1.00
H603   H     0.19551   0.96295   0.78026   0.00000  Uiso   1.00
H604   H     0.20304   0.53701   0.77202   0.00000  Uiso   1.00
H605   H     0.30449   0.96295   0.88641   0.00000  Uiso   1.00
H606   H     0.03130   0.82300   0.86025   0.00000  Uiso   1.00
N607   N     0.25000   0.62935   0.83333   0.00000  Uiso   1.00
N608   N     0.25000   0.87066   0.83333   0.00000  Uiso   1.00
O609   O     0.18573   0.79072   0.83334   0.00000  Uiso   1.00
O610   O     0.31427   0.70929   0.83333   0.00000  Uiso   1.00
O611   O     0.31427   0.79072   0.83333   0.00000  Uiso   1.00
O612   O     0.18573   0.70929   0.83334   0.00000  Uiso   1.00
O613   O     0.25000   0.79071   0.76280   0.00000  Uiso   1.00
O614   O     0.25000   0.70929   0.90387   0.00000  Uiso   1.00
O615   O     0.25000   0.79071   0.90387   0.00000  Uiso   1.00
O616   O     0.25000   0.70929   0.76280   0.00000  Uiso   1.00
C617   C     0.66504   0.75001   0.83328   0.00000  Uiso   1.00
C618   C     0.77990   0.94591   0.86300   0.00000  Uiso   1.00
C619   C     0.74994   0.75000   0.74027   0.00000  Uiso   1.00
C620   C     0.75006   0.75000   0.92640   0.00000  Uiso   1.00
C621   C     0.75000   0.52730   0.83333   0.00000  Uiso   1.00
C622   C     0.75000   0.97266   0.83333   0.00000  Uiso   1.00
C623   C     0.74998   0.75000   0.68853   0.00000  Uiso   1.00
C624   C     0.75002   0.75000   0.97814   0.00000  Uiso   1.00
C625   C     0.54810   0.79122   0.84791   0.00000  Uiso   1.00
C626   C     0.95282   0.70937   0.84809   0.00000  Uiso   1.00
C627   C     0.95190   0.79122   0.81875   0.00000  Uiso   1.00
C628   C     0.83496   0.75001   0.83339   0.00000  Uiso   1.00
C629   C     0.54718   0.70937   0.81857   0.00000  Uiso   1.00
C630   C     0.59401   0.79123   0.84754   0.00000  Uiso   1.00
C631   C     0.90691   0.70913   0.84768   0.00000  Uiso   1.00
C632   C     0.90599   0.79123   0.81912   0.00000  Uiso   1.00
C633   C     0.59309   0.70913   0.81899   0.00000  Uiso   1.00
C634   C     0.61677   0.75011   0.83328   0.00000  Uiso   1.00
C635   C     0.88323   0.75011   0.83339   0.00000  Uiso   1.00
C636   C     0.52429   0.75033   0.83327   0.00000  Uiso   1.00
C637   C     0.97571   0.75033   0.83340   0.00000  Uiso   1.00
C638   C     0.77649   0.60429   0.86603   0.00000  Uiso   1.00
C639   C     0.72095   0.89568   0.80343   0.00000  Uiso   1.00
C640   C     0.72351   0.60429   0.80063   0.00000  Uiso   1.00
C641   C     0.77905   0.89568   0.86323   0.00000  Uiso   1.00
C642   C     0.77626   0.55406   0.86697   0.00000  Uiso   1.00
C643   C     0.72010   0.94591   0.80367   0.00000  Uiso   1.00
C644   C     0.72374   0.55406   0.79969   0.00000  Uiso   1.00
Cl645  Cl    0.81237   0.63314   0.90832   0.00000  Uiso   1.00
Cl646  Cl    0.68348   0.86673   0.76293   0.00000  Uiso   1.00
Cl647  Cl    0.68763   0.63314   0.75835   0.00000  Uiso   1.00
Cl648  Cl    0.81652   0.86673   0.90374   0.00000  Uiso   1.00
Cu649  Cu    0.75000   0.79822   0.83333   0.00000  Uiso   1.00
Cu650  Cu    0.75000   0.70179   0.83333   0.00000  Uiso   1.00
H651   H     0.61167   0.82316   0.85910   0.00000  Uiso   1.00
H652   H     0.97037   0.67766   0.86044   0.00000  Uiso   1.00
H653   H     0.96870   0.82300   0.80641   0.00000  Uiso   1.00
H654   H     0.52963   0.67765   0.80623   0.00000  Uiso   1.00
H655   H     0.89004   0.67709   0.85914   0.00000  Uiso   1.00
H656   H     0.88833   0.82316   0.80756   0.00000  Uiso   1.00
H657   H     0.60996   0.67709   0.80753   0.00000  Uiso   1.00
H658   H     0.79696   0.53701   0.89464   0.00000  Uiso   1.00
H659   H     0.69551   0.96295   0.78026   0.00000  Uiso   1.00
H660   H     0.70304   0.53701   0.77202   0.00000  Uiso   1.00
H661   H     0.80449   0.96295   0.88641   0.00000  Uiso   1.00
H662   H     0.53130   0.82300   0.86025   0.00000  Uiso   1.00
N663   N     0.75000   0.62935   0.83333   0.00000  Uiso   1.00
N664   N     0.75000   0.87066   0.83333   0.00000  Uiso   1.00
O665   O     0.68573   0.79072   0.83334   0.00000  Uiso   1.00
O666   O     0.81427   0.70929   0.83333   0.00000  Uiso   1.00
O667   O     0.81427   0.79072   0.83333   0.00000  Uiso   1.00
O668   O     0.68573   0.70929   0.83334   0.00000  Uiso   1.00
O669   O     0.75000   0.79071   0.76280   0.00000  Uiso   1.00
O670   O     0.75000   0.70929   0.90387   0.00000  Uiso   1.00
O671   O     0.75000   0.79071   0.90387   0.00000  Uiso   1.00
O672   O     0.75000   0.70929   0.76280   0.00000  Uiso   1.00
loop_
_geom_bond_atom_site_label_1
_geom_bond_atom_site_label_2
_geom_bond_distance
_geom_bond_site_symmetry_2
_ccdc_geom_bond_type
C1     C18     1.461   .     S
C1     O52     1.301   .     A
C1     O49     1.300   .     A
C2     C6      1.411   .     A
C2     C25     1.406   .     A
C2     H45     1.077   .     S
C3     O56     1.294   .     A
C3     O53     1.294   .     A
C3     C7      1.409   .     S
C4     C8      1.409   .     S
C4     O55     1.294   .     A
C4     O54     1.294   .     A
C5     C28     1.410   .     A
C5     C26     1.410   .     A
C5     C118    1.529   1_545 S
C6     C27     1.411   .     A
C6     C117    1.529   .     S
C7     C456    1.190   1_554 S
C8     C231    1.190   .     S
C9     C14     1.390   .     A
C9     C20     1.404   .     A
C9     H46     1.083   .     S
C10    H36     1.083   .     S
C10    C15     1.390   .     A
C10    C21     1.404   .     A
C11    C21     1.404   .     A
C11    C16     1.390   .     A
C11    H37     1.083   .     S
C12    O50     1.301   .     A
C12    C19     1.461   .     S
C12    O51     1.300   .     A
C13    C17     1.390   .     A
C13    H38     1.083   .     S
C13    C20     1.404   .     A
C14    C18     1.402   .     A
C14    H35     1.083   .     S
C15    C19     1.402   .     A
C15    H39     1.082   .     S
C16    H40     1.083   .     S
C16    C19     1.402   .     A
C17    C18     1.402   .     A
C17    H41     1.082   .     S
C20    C77     1.471   1_455 S
C21    C76     1.471   .     S
C22    Cl29    1.756   .     S
C22    C26     1.406   .     A
C22    N47     1.373   .     A
C23    C27     1.406   .     A
C23    Cl30    1.757   .     S
C23    N48     1.373   .     A
C24    Cl31    1.756   .     S
C24    N47     1.373   .     A
C24    C28     1.406   .     A
C25    Cl32    1.757   .     S
C25    N48     1.373   .     A
C26    H42     1.077   .     S
C27    H43     1.077   .     S
C28    H44     1.077   .     S
Cu33   O55     1.932   .     S
Cu33   O51     1.957   .     S
Cu33   Cu34    2.698   .     S
Cu33   O53     1.932   .     S
Cu33   O49     1.957   .     S
Cu33   N48     2.027   .     S
Cu34   O56     1.932   .     S
Cu34   N47     2.027   .     S
Cu34   O52     1.957   .     S
Cu34   O50     1.957   .     S
Cu34   O54     1.932   .     S
C57    C74     1.461   .     S
C57    O108    1.301   .     A
C57    O105    1.300   .     A
C58    C62     1.411   .     A
C58    C81     1.406   .     A
C58    H101    1.077   .     S
C59    O112    1.294   .     A
C59    O109    1.294   .     A
C59    C63     1.409   .     S
C60    C64     1.409   .     S
C60    O111    1.294   .     A
C60    O110    1.294   .     A
C61    C84     1.410   .     A
C61    C82     1.410   .     A
C61    C174    1.529   1_545 S
C62    C83     1.411   .     A
C62    C173    1.529   .     S
C63    C512    1.190   1_554 S
C64    C287    1.190   .     S
C65    C70     1.390   .     A
C65    C76     1.404   .     A
C65    H102    1.083   .     S
C66    H92     1.083   .     S
C66    C71     1.390   .     A
C66    C77     1.404   .     A
C67    C77     1.404   .     A
C67    C72     1.390   .     A
C67    H93     1.083   .     S
C68    O106    1.301   .     A
C68    C75     1.461   .     S
C68    O107    1.300   .     A
C69    C73     1.390   .     A
C69    H94     1.083   .     S
C69    C76     1.404   .     A
C70    C74     1.402   .     A
C70    H91     1.083   .     S
C71    C75     1.402   .     A
C71    H95     1.082   .     S
C72    H96     1.083   .     S
C72    C75     1.402   .     A
C73    C74     1.402   .     A
C73    H97     1.082   .     S
C77    C20     1.471   1_655 S
C78    Cl85    1.756   .     S
C78    C82     1.406   .     A
C78    N103    1.373   .     A
C79    C83     1.406   .     A
C79    Cl86    1.757   .     S
C79    N104    1.373   .     A
C80    Cl87    1.756   .     S
C80    N103    1.373   .     A
C80    C84     1.406   .     A
C81    Cl88    1.757   .     S
C81    N104    1.373   .     A
C82    H98     1.077   .     S
C83    H99     1.077   .     S
C84    H100    1.077   .     S
Cu89   O111    1.932   .     S
Cu89   O107    1.957   .     S
Cu89   Cu90    2.698   .     S
Cu89   O109    1.932   .     S
Cu89   O105    1.957   .     S
Cu89   N104    2.027   .     S
Cu90   O112    1.932   .     S
Cu90   N103    2.027   .     S
Cu90   O108    1.957   .     S
Cu90   O106    1.957   .     S
Cu90   O110    1.932   .     S
C113   C130    1.461   .     S
C113   O164    1.301   .     A
C113   O161    1.300   .     A
C114   C118    1.411   .     A
C114   C137    1.406   .     A
C114   H157    1.077   .     S
C115   O168    1.294   .     A
C115   O165    1.294   .     A
C115   C119    1.409   .     S
C116   C120    1.409   .     S
C116   O167    1.294   .     A
C116   O166    1.294   .     A
C117   C140    1.410   .     A
C117   C138    1.410   .     A
C118   C139    1.411   .     A
C118   C5      1.529   1_565 S
C119   C568    1.190   1_554 S
C120   C343    1.190   .     S
C121   C126    1.390   .     A
C121   C132    1.404   .     A
C121   H158    1.083   .     S
C122   H148    1.083   .     S
C122   C127    1.390   .     A
C122   C133    1.404   .     A
C123   C133    1.404   .     A
C123   C128    1.390   .     A
C123   H149    1.083   .     S
C124   O162    1.301   .     A
C124   C131    1.461   .     S
C124   O163    1.300   .     A
C125   C129    1.390   .     A
C125   H150    1.083   .     S
C125   C132    1.404   .     A
C126   C130    1.402   .     A
C126   H147    1.083   .     S
C127   C131    1.402   .     A
C127   H151    1.082   .     S
C128   H152    1.083   .     S
C128   C131    1.402   .     A
C129   C130    1.402   .     A
C129   H153    1.082   .     S
C132   C189    1.471   1_455 S
C133   C188    1.471   .     S
C134   Cl141   1.756   .     S
C134   C138    1.406   .     A
C134   N159    1.373   .     A
C135   C139    1.406   .     A
C135   Cl142   1.757   .     S
C135   N160    1.373   .     A
C136   Cl143   1.756   .     S
C136   N159    1.373   .     A
C136   C140    1.406   .     A
C137   Cl144   1.757   .     S
C137   N160    1.373   .     A
C138   H154    1.077   .     S
C139   H155    1.077   .     S
C140   H156    1.077   .     S
Cu145  O167    1.932   .     S
Cu145  O163    1.957   .     S
Cu145  Cu146   2.698   .     S
Cu145  O165    1.932   .     S
Cu145  O161    1.957   .     S
Cu145  N160    2.027   .     S
Cu146  O168    1.932   .     S
Cu146  N159    2.027   .     S
Cu146  O164    1.957   .     S
Cu146  O162    1.957   .     S
Cu146  O166    1.932   .     S
C169   C186    1.461   .     S
C169   O220    1.301   .     A
C169   O217    1.300   .     A
C170   C174    1.411   .     A
C170   C193    1.406   .     A
C170   H213    1.077   .     S
C171   O224    1.294   .     A
C171   O221    1.294   .     A
C171   C175    1.409   .     S
C172   C176    1.409   .     S
C172   O223    1.294   .     A
C172   O222    1.294   .     A
C173   C196    1.410   .     A
C173   C194    1.410   .     A
C174   C195    1.411   .     A
C174   C61     1.529   1_565 S
C175   C624    1.190   1_554 S
C176   C399    1.190   .     S
C177   C182    1.390   .     A
C177   C188    1.404   .     A
C177   H214    1.083   .     S
C178   H204    1.083   .     S
C178   C183    1.390   .     A
C178   C189    1.404   .     A
C179   C189    1.404   .     A
C179   C184    1.390   .     A
C179   H205    1.083   .     S
C180   O218    1.301   .     A
C180   C187    1.461   .     S
C180   O219    1.300   .     A
C181   C185    1.390   .     A
C181   H206    1.083   .     S
C181   C188    1.404   .     A
C182   C186    1.402   .     A
C182   H203    1.083   .     S
C183   C187    1.402   .     A
C183   H207    1.082   .     S
C184   H208    1.083   .     S
C184   C187    1.402   .     A
C185   C186    1.402   .     A
C185   H209    1.082   .     S
C189   C132    1.471   1_655 S
C190   Cl197   1.756   .     S
C190   C194    1.406   .     A
C190   N215    1.373   .     A
C191   C195    1.406   .     A
C191   Cl198   1.757   .     S
C191   N216    1.373   .     A
C192   Cl199   1.756   .     S
C192   N215    1.373   .     A
C192   C196    1.406   .     A
C193   Cl200   1.757   .     S
C193   N216    1.373   .     A
C194   H210    1.077   .     S
C195   H211    1.077   .     S
C196   H212    1.077   .     S
Cu201  O223    1.932   .     S
Cu201  O219    1.957   .     S
Cu201  Cu202   2.698   .     S
Cu201  O221    1.932   .     S
Cu201  O217    1.957   .     S
Cu201  N216    2.027   .     S
Cu202  O224    1.932   .     S
Cu202  N215    2.027   .     S
Cu202  O220    1.957   .     S
Cu202  O218    1.957   .     S
Cu202  O222    1.932   .     S
C225   C242    1.461   .     S
C225   O276    1.301   .     A
C225   O273    1.300   .     A
C226   C230    1.411   .     A
C226   C249    1.406   .     A
C226   H269    1.077   .     S
C227   O280    1.294   .     A
C227   O277    1.294   .     A
C227   C231    1.409   .     S
C228   C232    1.409   .     S
C228   O279    1.294   .     A
C228   O278    1.294   .     A
C229   C252    1.410   .     A
C229   C250    1.410   .     A
C229   C342    1.529   1_545 S
C230   C251    1.411   .     A
C230   C341    1.529   .     S
C232   C455    1.190   .     S
C233   C238    1.390   .     A
C233   C244    1.404   .     A
C233   H270    1.083   .     S
C234   H260    1.083   .     S
C234   C239    1.390   .     A
C234   C245    1.404   .     A
C235   C245    1.404   .     A
C235   C240    1.390   .     A
C235   H261    1.083   .     S
C236   O274    1.301   .     A
C236   C243    1.461   .     S
C236   O275    1.300   .     A
C237   C241    1.390   .     A
C237   H262    1.083   .     S
C237   C244    1.404   .     A
C238   C242    1.402   .     A
C238   H259    1.083   .     S
C239   C243    1.402   .     A
C239   H263    1.082   .     S
C240   H264    1.083   .     S
C240   C243    1.402   .     A
C241   C242    1.402   .     A
C241   H265    1.082   .     S
C244   C301    1.471   1_455 S
C245   C300    1.471   .     S
C246   Cl253   1.756   .     S
C246   C250    1.406   .     A
C246   N271    1.373   .     A
C247   C251    1.406   .     A
C247   Cl254   1.757   .     S
C247   N272    1.373   .     A
C248   Cl255   1.756   .     S
C248   N271    1.373   .     A
C248   C252    1.406   .     A
C249   Cl256   1.757   .     S
C249   N272    1.373   .     A
C250   H266    1.077   .     S
C251   H267    1.077   .     S
C252   H268    1.077   .     S
Cu257  O279    1.932   .     S
Cu257  O275    1.957   .     S
Cu257  Cu258   2.698   .     S
Cu257  O277    1.932   .     S
Cu257  O273    1.957   .     S
Cu257  N272    2.027   .     S
Cu258  O280    1.932   .     S
Cu258  N271    2.027   .     S
Cu258  O276    1.957   .     S
Cu258  O274    1.957   .     S
Cu258  O278    1.932   .     S
C281   C298    1.461   .     S
C281   O332    1.301   .     A
C281   O329    1.300   .     A
C282   C286    1.411   .     A
C282   C305    1.406   .     A
C282   H325    1.077   .     S
C283   O336    1.294   .     A
C283   O333    1.294   .     A
C283   C287    1.409   .     S
C284   C288    1.409   .     S
C284   O335    1.294   .     A
C284   O334    1.294   .     A
C285   C308    1.410   .     A
C285   C306    1.410   .     A
C285   C398    1.529   1_545 S
C286   C307    1.411   .     A
C286   C397    1.529   .     S
C288   C511    1.190   .     S
C289   C294    1.390   .     A
C289   C300    1.404   .     A
C289   H326    1.083   .     S
C290   H316    1.083   .     S
C290   C295    1.390   .     A
C290   C301    1.404   .     A
C291   C301    1.404   .     A
C291   C296    1.390   .     A
C291   H317    1.083   .     S
C292   O330    1.301   .     A
C292   C299    1.461   .     S
C292   O331    1.300   .     A
C293   C297    1.390   .     A
C293   H318    1.083   .     S
C293   C300    1.404   .     A
C294   C298    1.402   .     A
C294   H315    1.083   .     S
C295   C299    1.402   .     A
C295   H319    1.082   .     S
C296   H320    1.083   .     S
C296   C299    1.402   .     A
C297   C298    1.402   .     A
C297   H321    1.082   .     S
C301   C244    1.471   1_655 S
C302   Cl309   1.756   .     S
C302   C306    1.406   .     A
C302   N327    1.373   .     A
C303   C307    1.406   .     A
C303   Cl310   1.757   .     S
C303   N328    1.373   .     A
C304   Cl311   1.756   .     S
C304   N327    1.373   .     A
C304   C308    1.406   .     A
C305   Cl312   1.757   .     S
C305   N328    1.373   .     A
C306   H322    1.077   .     S
C307   H323    1.077   .     S
C308   H324    1.077   .     S
Cu313  O335    1.932   .     S
Cu313  O331    1.957   .     S
Cu313  Cu314   2.698   .     S
Cu313  O333    1.932   .     S
Cu313  O329    1.957   .     S
Cu313  N328    2.027   .     S
Cu314  O336    1.932   .     S
Cu314  N327    2.027   .     S
Cu314  O332    1.957   .     S
Cu314  O330    1.957   .     S
Cu314  O334    1.932   .     S
C337   C354    1.461   .     S
C337   O388    1.301   .     A
C337   O385    1.300   .     A
C338   C342    1.411   .     A
C338   C361    1.406   .     A
C338   H381    1.077   .     S
C339   O392    1.294   .     A
C339   O389    1.294   .     A
C339   C343    1.409   .     S
C340   C344    1.409   .     S
C340   O391    1.294   .     A
C340   O390    1.294   .     A
C341   C364    1.410   .     A
C341   C362    1.410   .     A
C342   C363    1.411   .     A
C342   C229    1.529   1_565 S
C344   C567    1.190   .     S
C345   C350    1.390   .     A
C345   C356    1.404   .     A
C345   H382    1.083   .     S
C346   H372    1.083   .     S
C346   C351    1.390   .     A
C346   C357    1.404   .     A
C347   C357    1.404   .     A
C347   C352    1.390   .     A
C347   H373    1.083   .     S
C348   O386    1.301   .     A
C348   C355    1.461   .     S
C348   O387    1.300   .     A
C349   C353    1.390   .     A
C349   H374    1.083   .     S
C349   C356    1.404   .     A
C350   C354    1.402   .     A
C350   H371    1.083   .     S
C351   C355    1.402   .     A
C351   H375    1.082   .     S
C352   H376    1.083   .     S
C352   C355    1.402   .     A
C353   C354    1.402   .     A
C353   H377    1.082   .     S
C356   C413    1.471   1_455 S
C357   C412    1.471   .     S
C358   Cl365   1.756   .     S
C358   C362    1.406   .     A
C358   N383    1.373   .     A
C359   C363    1.406   .     A
C359   Cl366   1.757   .     S
C359   N384    1.373   .     A
C360   Cl367   1.756   .     S
C360   N383    1.373   .     A
C360   C364    1.406   .     A
C361   Cl368   1.757   .     S
C361   N384    1.373   .     A
C362   H378    1.077   .     S
C363   H379    1.077   .     S
C364   H380    1.077   .     S
Cu369  O391    1.932   .     S
Cu369  O387    1.957   .     S
Cu369  Cu370   2.698   .     S
Cu369  O389    1.932   .     S
Cu369  O385    1.957   .     S
Cu369  N384    2.027   .     S
Cu370  O392    1.932   .     S
Cu370  N383    2.027   .     S
Cu370  O388    1.957   .     S
Cu370  O386    1.957   .     S
Cu370  O390    1.932   .     S
C393   C410    1.461   .     S
C393   O444    1.301   .     A
C393   O441    1.300   .     A
C394   C398    1.411   .     A
C394   C417    1.406   .     A
C394   H437    1.077   .     S
C395   O448    1.294   .     A
C395   O445    1.294   .     A
C395   C399    1.409   .     S
C396   C400    1.409   .     S
C396   O447    1.294   .     A
C396   O446    1.294   .     A
C397   C420    1.410   .     A
C397   C418    1.410   .     A
C398   C419    1.411   .     A
C398   C285    1.529   1_565 S
C400   C623    1.190   .     S
C401   C406    1.390   .     A
C401   C412    1.404   .     A
C401   H438    1.083   .     S
C402   H428    1.083   .     S
C402   C407    1.390   .     A
C402   C413    1.404   .     A
C403   C413    1.404   .     A
C403   C408    1.390   .     A
C403   H429    1.083   .     S
C404   O442    1.301   .     A
C404   C411    1.461   .     S
C404   O443    1.300   .     A
C405   C409    1.390   .     A
C405   H430    1.083   .     S
C405   C412    1.404   .     A
C406   C410    1.402   .     A
C406   H427    1.083   .     S
C407   C411    1.402   .     A
C407   H431    1.082   .     S
C408   H432    1.083   .     S
C408   C411    1.402   .     A
C409   C410    1.402   .     A
C409   H433    1.082   .     S
C413   C356    1.471   1_655 S
C414   Cl421   1.756   .     S
C414   C418    1.406   .     A
C414   N439    1.373   .     A
C415   C419    1.406   .     A
C415   Cl422   1.757   .     S
C415   N440    1.373   .     A
C416   Cl423   1.756   .     S
C416   N439    1.373   .     A
C416   C420    1.406   .     A
C417   Cl424   1.757   .     S
C417   N440    1.373   .     A
C418   H434    1.077   .     S
C419   H435    1.077   .     S
C420   H436    1.077   .     S
Cu425  O447    1.932   .     S
Cu425  O443    1.957   .     S
Cu425  Cu426   2.698   .     S
Cu425  O445    1.932   .     S
Cu425  O441    1.957   .     S
Cu425  N440    2.027   .     S
Cu426  O448    1.932   .     S
Cu426  N439    2.027   .     S
Cu426  O444    1.957   .     S
Cu426  O442    1.957   .     S
Cu426  O446    1.932   .     S
C449   C466    1.461   .     S
C449   O500    1.301   .     A
C449   O497    1.300   .     A
C450   C454    1.411   .     A
C450   C473    1.406   .     A
C450   H493    1.077   .     S
C451   O504    1.294   .     A
C451   O501    1.294   .     A
C451   C455    1.409   .     S
C452   C456    1.409   .     S
C452   O503    1.294   .     A
C452   O502    1.294   .     A
C453   C476    1.410   .     A
C453   C474    1.410   .     A
C453   C566    1.529   1_545 S
C454   C475    1.411   .     A
C454   C565    1.529   .     S
C456   C7      1.190   1_556 S
C457   C462    1.390   .     A
C457   C468    1.404   .     A
C457   H494    1.083   .     S
C458   H484    1.083   .     S
C458   C463    1.390   .     A
C458   C469    1.404   .     A
C459   C469    1.404   .     A
C459   C464    1.390   .     A
C459   H485    1.083   .     S
C460   O498    1.301   .     A
C460   C467    1.461   .     S
C460   O499    1.300   .     A
C461   C465    1.390   .     A
C461   H486    1.083   .     S
C461   C468    1.404   .     A
C462   C466    1.402   .     A
C462   H483    1.083   .     S
C463   C467    1.402   .     A
C463   H487    1.082   .     S
C464   H488    1.083   .     S
C464   C467    1.402   .     A
C465   C466    1.402   .     A
C465   H489    1.082   .     S
C468   C525    1.471   1_455 S
C469   C524    1.471   .     S
C470   Cl477   1.756   .     S
C470   C474    1.406   .     A
C470   N495    1.373   .     A
C471   C475    1.406   .     A
C471   Cl478   1.757   .     S
C471   N496    1.373   .     A
C472   Cl479   1.756   .     S
C472   N495    1.373   .     A
C472   C476    1.406   .     A
C473   Cl480   1.757   .     S
C473   N496    1.373   .     A
C474   H490    1.077   .     S
C475   H491    1.077   .     S
C476   H492    1.077   .     S
Cu481  O503    1.932   .     S
Cu481  O499    1.957   .     S
Cu481  Cu482   2.698   .     S
Cu481  O501    1.932   .     S
Cu481  O497    1.957   .     S
Cu481  N496    2.027   .     S
Cu482  O504    1.932   .     S
Cu482  N495    2.027   .     S
Cu482  O500    1.957   .     S
Cu482  O498    1.957   .     S
Cu482  O502    1.932   .     S
C505   C522    1.461   .     S
C505   O556    1.301   .     A
C505   O553    1.300   .     A
C506   C510    1.411   .     A
C506   C529    1.406   .     A
C506   H549    1.077   .     S
C507   O560    1.294   .     A
C507   O557    1.294   .     A
C507   C511    1.409   .     S
C508   C512    1.409   .     S
C508   O559    1.294   .     A
C508   O558    1.294   .     A
C509   C532    1.410   .     A
C509   C530    1.410   .     A
C509   C622    1.529   1_545 S
C510   C531    1.411   .     A
C510   C621    1.529   .     S
C512   C63     1.190   1_556 S
C513   C518    1.390   .     A
C513   C524    1.404   .     A
C513   H550    1.083   .     S
C514   H540    1.083   .     S
C514   C519    1.390   .     A
C514   C525    1.404   .     A
C515   C525    1.404   .     A
C515   C520    1.390   .     A
C515   H541    1.083   .     S
C516   O554    1.301   .     A
C516   C523    1.461   .     S
C516   O555    1.300   .     A
C517   C521    1.390   .     A
C517   H542    1.083   .     S
C517   C524    1.404   .     A
C518   C522    1.402   .     A
C518   H539    1.083   .     S
C519   C523    1.402   .     A
C519   H543    1.082   .     S
C520   H544    1.083   .     S
C520   C523    1.402   .     A
C521   C522    1.402   .     A
C521   H545    1.082   .     S
C525   C468    1.471   1_655 S
C526   Cl533   1.756   .     S
C526   C530    1.406   .     A
C526   N551    1.373   .     A
C527   C531    1.406   .     A
C527   Cl534   1.757   .     S
C527   N552    1.373   .     A
C528   Cl535   1.756   .     S
C528   N551    1.373   .     A
C528   C532    1.406   .     A
C529   Cl536   1.757   .     S
C529   N552    1.373   .     A
C530   H546    1.077   .     S
C531   H547    1.077   .     S
C532   H548    1.077   .     S
Cu537  O559    1.932   .     S
Cu537  O555    1.957   .     S
Cu537  Cu538   2.698   .     S
Cu537  O557    1.932   .     S
Cu537  O553    1.957   .     S
Cu537  N552    2.027   .     S
Cu538  O560    1.932   .     S
Cu538  N551    2.027   .     S
Cu538  O556    1.957   .     S
Cu538  O554    1.957   .     S
Cu538  O558    1.932   .     S
C561   C578    1.461   .     S
C561   O612    1.301   .     A
C561   O609    1.300   .     A
C562   C566    1.411   .     A
C562   C585    1.406   .     A
C562   H605    1.077   .     S
C563   O616    1.294   .     A
C563   O613    1.294   .     A
C563   C567    1.409   .     S
C564   C568    1.409   .     S
C564   O615    1.294   .     A
C564   O614    1.294   .     A
C565   C588    1.410   .     A
C565   C586    1.410   .     A
C566   C587    1.411   .     A
C566   C453    1.529   1_565 S
C568   C119    1.190   1_556 S
C569   C574    1.390   .     A
C569   C580    1.404   .     A
C569   H606    1.083   .     S
C570   H596    1.083   .     S
C570   C575    1.390   .     A
C570   C581    1.404   .     A
C571   C581    1.404   .     A
C571   C576    1.390   .     A
C571   H597    1.083   .     S
C572   O610    1.301   .     A
C572   C579    1.461   .     S
C572   O611    1.300   .     A
C573   C577    1.390   .     A
C573   H598    1.083   .     S
C573   C580    1.404   .     A
C574   C578    1.402   .     A
C574   H595    1.083   .     S
C575   C579    1.402   .     A
C575   H599    1.082   .     S
C576   H600    1.083   .     S
C576   C579    1.402   .     A
C577   C578    1.402   .     A
C577   H601    1.082   .     S
C580   C637    1.471   1_455 S
C581   C636    1.471   .     S
C582   Cl589   1.756   .     S
C582   C586    1.406   .     A
C582   N607    1.373   .     A
C583   C587    1.406   .     A
C583   Cl590   1.757   .     S
C583   N608    1.373   .     A
C584   Cl591   1.756   .     S
C584   N607    1.373   .     A
C584   C588    1.406   .     A
C585   Cl592   1.757   .     S
C585   N608    1.373   .     A
C586   H602    1.077   .     S
C587   H603    1.077   .     S
C588   H604    1.077   .     S
Cu593  O615    1.932   .     S
Cu593  O611    1.957   .     S
Cu593  Cu594   2.698   .     S
Cu593  O613    1.932   .     S
Cu593  O609    1.957   .     S
Cu593  N608    2.027   .     S
Cu594  O616    1.932   .     S
Cu594  N607    2.027   .     S
Cu594  O612    1.957   .     S
Cu594  O610    1.957   .     S
Cu594  O614    1.932   .     S
C617   C634    1.461   .     S
C617   O668    1.301   .     A
C617   O665    1.300   .     A
C618   C622    1.411   .     A
C618   C641    1.406   .     A
C618   H661    1.077   .     S
C619   O672    1.294   .     A
C619   O669    1.294   .     A
C619   C623    1.409   .     S
C620   C624    1.409   .     S
C620   O671    1.294   .     A
C620   O670    1.294   .     A
C621   C644    1.410   .     A
C621   C642    1.410   .     A
C622   C643    1.411   .     A
C622   C509    1.529   1_565 S
C624   C175    1.190   1_556 S
C625   C630    1.390   .     A
C625   C636    1.404   .     A
C625   H662    1.083   .     S
C626   H652    1.083   .     S
C626   C631    1.390   .     A
C626   C637    1.404   .     A
C627   C637    1.404   .     A
C627   C632    1.390   .     A
C627   H653    1.083   .     S
C628   O666    1.301   .     A
C628   C635    1.461   .     S
C628   O667    1.300   .     A
C629   C633    1.390   .     A
C629   H654    1.083   .     S
C629   C636    1.404   .     A
C630   C634    1.402   .     A
C630   H651    1.083   .     S
C631   C635    1.402   .     A
C631   H655    1.082   .     S
C632   H656    1.083   .     S
C632   C635    1.402   .     A
C633   C634    1.402   .     A
C633   H657    1.082   .     S
C637   C580    1.471   1_655 S
C638   Cl645   1.756   .     S
C638   C642    1.406   .     A
C638   N663    1.373   .     A
C639   C643    1.406   .     A
C639   Cl646   1.757   .     S
C639   N664    1.373   .     A
C640   Cl647   1.756   .     S
C640   N663    1.373   .     A
C640   C644    1.406   .     A
C641   Cl648   1.757   .     S
C641   N664    1.373   .     A
C642   H658    1.077   .     S
C643   H659    1.077   .     S
C644   H660    1.077   .     S
Cu649  O671    1.932   .     S
Cu649  O667    1.957   .     S
Cu649  Cu650   2.698   .     S
Cu649  O669    1.932   .     S
Cu649  O665    1.957   .     S
Cu649  N664    2.027   .     S
Cu650  O672    1.932   .     S
Cu650  N663    2.027   .     S
Cu650  O668    1.957   .     S
Cu650  O666    1.957   .     S
Cu650  O670    1.932   .     S
