data_str_m2_o1_o10_pcu_sym.146
_audit_creation_date              2020-01-03
_audit_creation_method            'Materials Studio'
_symmetry_space_group_name_H-M    'P1'
_symmetry_Int_Tables_number       1
_symmetry_cell_setting            triclinic
loop_
_symmetry_equiv_pos_as_xyz
  x,y,z
_cell_length_a                    26.3551
_cell_length_b                    32.6912
_cell_length_c                    28.7233
_cell_angle_alpha                 89.9120
_cell_angle_beta                  97.6583
_cell_angle_gamma                 92.5063
loop_
_atom_site_label
_atom_site_type_symbol
_atom_site_fract_x
_atom_site_fract_y
_atom_site_fract_z
_atom_site_U_iso_or_equiv
_atom_site_adp_type
_atom_site_occupancy
C1     C     0.17079   0.08759   0.16721   0.00000  Uiso   1.00
C2     C     0.16254   0.24575   0.16613   0.00000  Uiso   1.00
C3     C     0.06812   0.16612   0.15490   0.00000  Uiso   1.00
C4     C     0.26521   0.16721   0.17844   0.00000  Uiso   1.00
C5     C     0.01332   0.16046   0.14952   0.00000  Uiso   1.00
C6     C     0.32002   0.17287   0.18381   0.00000  Uiso   1.00
C7     C     0.17362   0.02107   0.12514   0.00000  Uiso   1.00
C8     C     0.15971   0.31227   0.20819   0.00000  Uiso   1.00
C9     C     0.16156   0.31249   0.12343   0.00000  Uiso   1.00
C10    C     0.17177   0.02084   0.20990   0.00000  Uiso   1.00
C11    C     0.15916   0.29057   0.16560   0.00000  Uiso   1.00
C12    C     0.17418   0.04277   0.16773   0.00000  Uiso   1.00
C13    C     0.13314   0.14140   0.02062   0.00000  Uiso   1.00
C14    C     0.20019   0.19193   0.31272   0.00000  Uiso   1.00
C15    C     0.13301   0.14152   0.30452   0.00000  Uiso   1.00
C16    C     0.20032   0.19182   0.02881   0.00000  Uiso   1.00
Cu17   Cu    0.16667   0.16667   0.21355   0.00000  Uiso   1.00
Cu18   Cu    0.16667   0.16666   0.11978   0.00000  Uiso   1.00
N19    N     0.16668   0.16668   0.28403   0.00000  Uiso   1.00
N20    N     0.16665   0.16666   0.04931   0.00000  Uiso   1.00
O21    O     0.16666   0.10655   0.20625   0.00000  Uiso   1.00
O22    O     0.16667   0.22678   0.12709   0.00000  Uiso   1.00
O23    O     0.16666   0.10654   0.12706   0.00000  Uiso   1.00
O24    O     0.16667   0.22679   0.20628   0.00000  Uiso   1.00
O25    O     0.09161   0.16667   0.19712   0.00000  Uiso   1.00
O26    O     0.24172   0.16666   0.13621   0.00000  Uiso   1.00
O27    O     0.09161   0.16666   0.11793   0.00000  Uiso   1.00
O28    O     0.24172   0.16667   0.21540   0.00000  Uiso   1.00
Cl29   Cl    0.31937   0.13051   0.10017   0.00000  Uiso   1.00
Cl30   Cl    0.01397   0.20283   0.23317   0.00000  Uiso   1.00
Br31   Br    0.19785   0.04556   0.07019   0.00000  Uiso   1.00
Br32   Br    0.13549   0.28777   0.26314   0.00000  Uiso   1.00
Br33   Br    0.13985   0.28844   0.06197   0.00000  Uiso   1.00
Br34   Br    0.19348   0.04490   0.27136   0.00000  Uiso   1.00
Cl35   Cl    0.08974   0.10756   0.04454   0.00000  Uiso   1.00
Cl36   Cl    0.24359   0.22577   0.28880   0.00000  Uiso   1.00
Cl37   Cl    0.08854   0.10852   0.26986   0.00000  Uiso   1.00
Cl38   Cl    0.24479   0.22481   0.06348   0.00000  Uiso   1.00
C39    C     0.50412   0.08759   0.16721   0.00000  Uiso   1.00
C40    C     0.49588   0.24575   0.16613   0.00000  Uiso   1.00
C41    C     0.40146   0.16612   0.15490   0.00000  Uiso   1.00
C42    C     0.59854   0.16721   0.17844   0.00000  Uiso   1.00
C43    C     0.34665   0.16046   0.14952   0.00000  Uiso   1.00
C44    C     0.65335   0.17287   0.18381   0.00000  Uiso   1.00
C45    C     0.50696   0.02107   0.12514   0.00000  Uiso   1.00
C46    C     0.49304   0.31227   0.20819   0.00000  Uiso   1.00
C47    C     0.49489   0.31249   0.12343   0.00000  Uiso   1.00
C48    C     0.50511   0.02084   0.20990   0.00000  Uiso   1.00
C49    C     0.49249   0.29057   0.16560   0.00000  Uiso   1.00
C50    C     0.50751   0.04277   0.16773   0.00000  Uiso   1.00
C51    C     0.46648   0.14140   0.02062   0.00000  Uiso   1.00
C52    C     0.53352   0.19193   0.31272   0.00000  Uiso   1.00
C53    C     0.46634   0.14152   0.30452   0.00000  Uiso   1.00
C54    C     0.53366   0.19182   0.02881   0.00000  Uiso   1.00
Cu55   Cu    0.50000   0.16667   0.21355   0.00000  Uiso   1.00
Cu56   Cu    0.50000   0.16666   0.11978   0.00000  Uiso   1.00
N57    N     0.50001   0.16668   0.28403   0.00000  Uiso   1.00
N58    N     0.49999   0.16666   0.04931   0.00000  Uiso   1.00
O59    O     0.50000   0.10655   0.20625   0.00000  Uiso   1.00
O60    O     0.50000   0.22678   0.12709   0.00000  Uiso   1.00
O61    O     0.50000   0.10654   0.12706   0.00000  Uiso   1.00
O62    O     0.50000   0.22679   0.20628   0.00000  Uiso   1.00
O63    O     0.42495   0.16667   0.19712   0.00000  Uiso   1.00
O64    O     0.57505   0.16666   0.13621   0.00000  Uiso   1.00
O65    O     0.42494   0.16666   0.11793   0.00000  Uiso   1.00
O66    O     0.57506   0.16667   0.21540   0.00000  Uiso   1.00
Cl67   Cl    0.65270   0.13051   0.10017   0.00000  Uiso   1.00
Cl68   Cl    0.34730   0.20283   0.23317   0.00000  Uiso   1.00
Br69   Br    0.53118   0.04556   0.07019   0.00000  Uiso   1.00
Br70   Br    0.46882   0.28777   0.26314   0.00000  Uiso   1.00
Br71   Br    0.47319   0.28844   0.06197   0.00000  Uiso   1.00
Br72   Br    0.52681   0.04490   0.27136   0.00000  Uiso   1.00
Cl73   Cl    0.42308   0.10756   0.04454   0.00000  Uiso   1.00
Cl74   Cl    0.57692   0.22577   0.28880   0.00000  Uiso   1.00
Cl75   Cl    0.42187   0.10852   0.26986   0.00000  Uiso   1.00
Cl76   Cl    0.57813   0.22481   0.06348   0.00000  Uiso   1.00
C77    C     0.83746   0.08759   0.16721   0.00000  Uiso   1.00
C78    C     0.82921   0.24575   0.16613   0.00000  Uiso   1.00
C79    C     0.73479   0.16612   0.15490   0.00000  Uiso   1.00
C80    C     0.93187   0.16721   0.17844   0.00000  Uiso   1.00
C81    C     0.67998   0.16046   0.14952   0.00000  Uiso   1.00
C82    C     0.98668   0.17287   0.18381   0.00000  Uiso   1.00
C83    C     0.84029   0.02107   0.12514   0.00000  Uiso   1.00
C84    C     0.82638   0.31227   0.20819   0.00000  Uiso   1.00
C85    C     0.82823   0.31249   0.12343   0.00000  Uiso   1.00
C86    C     0.83844   0.02084   0.20990   0.00000  Uiso   1.00
C87    C     0.82582   0.29057   0.16560   0.00000  Uiso   1.00
C88    C     0.84084   0.04277   0.16773   0.00000  Uiso   1.00
C89    C     0.79981   0.14140   0.02062   0.00000  Uiso   1.00
C90    C     0.86686   0.19193   0.31272   0.00000  Uiso   1.00
C91    C     0.79968   0.14152   0.30452   0.00000  Uiso   1.00
C92    C     0.86699   0.19182   0.02881   0.00000  Uiso   1.00
Cu93   Cu    0.83333   0.16667   0.21355   0.00000  Uiso   1.00
Cu94   Cu    0.83333   0.16666   0.11978   0.00000  Uiso   1.00
N95    N     0.83335   0.16668   0.28403   0.00000  Uiso   1.00
N96    N     0.83332   0.16666   0.04931   0.00000  Uiso   1.00
O97    O     0.83333   0.10655   0.20625   0.00000  Uiso   1.00
O98    O     0.83334   0.22678   0.12709   0.00000  Uiso   1.00
O99    O     0.83333   0.10654   0.12706   0.00000  Uiso   1.00
O100   O     0.83334   0.22679   0.20628   0.00000  Uiso   1.00
O101   O     0.75828   0.16667   0.19712   0.00000  Uiso   1.00
O102   O     0.90839   0.16666   0.13621   0.00000  Uiso   1.00
O103   O     0.75828   0.16666   0.11793   0.00000  Uiso   1.00
O104   O     0.90839   0.16667   0.21540   0.00000  Uiso   1.00
Cl105  Cl    0.98603   0.13051   0.10017   0.00000  Uiso   1.00
Cl106  Cl    0.68063   0.20283   0.23317   0.00000  Uiso   1.00
Br107  Br    0.86451   0.04556   0.07019   0.00000  Uiso   1.00
Br108  Br    0.80215   0.28777   0.26314   0.00000  Uiso   1.00
Br109  Br    0.80652   0.28844   0.06197   0.00000  Uiso   1.00
Br110  Br    0.86015   0.04490   0.27136   0.00000  Uiso   1.00
Cl111  Cl    0.75641   0.10756   0.04454   0.00000  Uiso   1.00
Cl112  Cl    0.91025   0.22577   0.28880   0.00000  Uiso   1.00
Cl113  Cl    0.75521   0.10852   0.26986   0.00000  Uiso   1.00
Cl114  Cl    0.91146   0.22481   0.06348   0.00000  Uiso   1.00
C115   C     0.17079   0.42092   0.16721   0.00000  Uiso   1.00
C116   C     0.16254   0.57908   0.16613   0.00000  Uiso   1.00
C117   C     0.06812   0.49946   0.15490   0.00000  Uiso   1.00
C118   C     0.26521   0.50054   0.17844   0.00000  Uiso   1.00
C119   C     0.01332   0.49379   0.14952   0.00000  Uiso   1.00
C120   C     0.32002   0.50621   0.18381   0.00000  Uiso   1.00
C121   C     0.17362   0.35440   0.12514   0.00000  Uiso   1.00
C122   C     0.15971   0.64560   0.20819   0.00000  Uiso   1.00
C123   C     0.16156   0.64583   0.12343   0.00000  Uiso   1.00
C124   C     0.17177   0.35417   0.20990   0.00000  Uiso   1.00
C125   C     0.15916   0.62390   0.16560   0.00000  Uiso   1.00
C126   C     0.17418   0.37610   0.16773   0.00000  Uiso   1.00
C127   C     0.13314   0.47473   0.02062   0.00000  Uiso   1.00
C128   C     0.20019   0.52526   0.31272   0.00000  Uiso   1.00
C129   C     0.13301   0.47485   0.30452   0.00000  Uiso   1.00
C130   C     0.20032   0.52515   0.02881   0.00000  Uiso   1.00
Cu131  Cu    0.16667   0.50001   0.21355   0.00000  Uiso   1.00
Cu132  Cu    0.16667   0.49999   0.11978   0.00000  Uiso   1.00
N133   N     0.16668   0.50001   0.28403   0.00000  Uiso   1.00
N134   N     0.16665   0.49999   0.04931   0.00000  Uiso   1.00
O135   O     0.16666   0.43989   0.20625   0.00000  Uiso   1.00
O136   O     0.16667   0.56011   0.12709   0.00000  Uiso   1.00
O137   O     0.16666   0.43988   0.12706   0.00000  Uiso   1.00
O138   O     0.16667   0.56012   0.20628   0.00000  Uiso   1.00
O139   O     0.09161   0.50000   0.19712   0.00000  Uiso   1.00
O140   O     0.24172   0.50000   0.13621   0.00000  Uiso   1.00
O141   O     0.09161   0.49999   0.11793   0.00000  Uiso   1.00
O142   O     0.24172   0.50001   0.21540   0.00000  Uiso   1.00
Cl143  Cl    0.31937   0.46384   0.10017   0.00000  Uiso   1.00
Cl144  Cl    0.01397   0.53616   0.23317   0.00000  Uiso   1.00
Br145  Br    0.19785   0.37890   0.07019   0.00000  Uiso   1.00
Br146  Br    0.13549   0.62110   0.26314   0.00000  Uiso   1.00
Br147  Br    0.13985   0.62177   0.06197   0.00000  Uiso   1.00
Br148  Br    0.19348   0.37823   0.27136   0.00000  Uiso   1.00
Cl149  Cl    0.08974   0.44090   0.04454   0.00000  Uiso   1.00
Cl150  Cl    0.24359   0.55910   0.28880   0.00000  Uiso   1.00
Cl151  Cl    0.08854   0.44186   0.26986   0.00000  Uiso   1.00
Cl152  Cl    0.24479   0.55814   0.06348   0.00000  Uiso   1.00
C153   C     0.50412   0.42092   0.16721   0.00000  Uiso   1.00
C154   C     0.49588   0.57908   0.16613   0.00000  Uiso   1.00
C155   C     0.40146   0.49946   0.15490   0.00000  Uiso   1.00
C156   C     0.59854   0.50054   0.17844   0.00000  Uiso   1.00
C157   C     0.34665   0.49379   0.14952   0.00000  Uiso   1.00
C158   C     0.65335   0.50621   0.18381   0.00000  Uiso   1.00
C159   C     0.50696   0.35440   0.12514   0.00000  Uiso   1.00
C160   C     0.49304   0.64560   0.20819   0.00000  Uiso   1.00
C161   C     0.49489   0.64583   0.12343   0.00000  Uiso   1.00
C162   C     0.50511   0.35417   0.20990   0.00000  Uiso   1.00
C163   C     0.49249   0.62390   0.16560   0.00000  Uiso   1.00
C164   C     0.50751   0.37610   0.16773   0.00000  Uiso   1.00
C165   C     0.46648   0.47473   0.02062   0.00000  Uiso   1.00
C166   C     0.53352   0.52526   0.31272   0.00000  Uiso   1.00
C167   C     0.46634   0.47485   0.30452   0.00000  Uiso   1.00
C168   C     0.53366   0.52515   0.02881   0.00000  Uiso   1.00
Cu169  Cu    0.50000   0.50001   0.21355   0.00000  Uiso   1.00
Cu170  Cu    0.50000   0.49999   0.11978   0.00000  Uiso   1.00
N171   N     0.50001   0.50001   0.28403   0.00000  Uiso   1.00
N172   N     0.49999   0.49999   0.04931   0.00000  Uiso   1.00
O173   O     0.50000   0.43989   0.20625   0.00000  Uiso   1.00
O174   O     0.50000   0.56011   0.12709   0.00000  Uiso   1.00
O175   O     0.50000   0.43988   0.12706   0.00000  Uiso   1.00
O176   O     0.50000   0.56012   0.20628   0.00000  Uiso   1.00
O177   O     0.42495   0.50000   0.19712   0.00000  Uiso   1.00
O178   O     0.57505   0.50000   0.13621   0.00000  Uiso   1.00
O179   O     0.42494   0.49999   0.11793   0.00000  Uiso   1.00
O180   O     0.57506   0.50001   0.21540   0.00000  Uiso   1.00
Cl181  Cl    0.65270   0.46384   0.10017   0.00000  Uiso   1.00
Cl182  Cl    0.34730   0.53616   0.23317   0.00000  Uiso   1.00
Br183  Br    0.53118   0.37890   0.07019   0.00000  Uiso   1.00
Br184  Br    0.46882   0.62110   0.26314   0.00000  Uiso   1.00
Br185  Br    0.47319   0.62177   0.06197   0.00000  Uiso   1.00
Br186  Br    0.52681   0.37823   0.27136   0.00000  Uiso   1.00
Cl187  Cl    0.42308   0.44090   0.04454   0.00000  Uiso   1.00
Cl188  Cl    0.57692   0.55910   0.28880   0.00000  Uiso   1.00
Cl189  Cl    0.42187   0.44186   0.26986   0.00000  Uiso   1.00
Cl190  Cl    0.57813   0.55814   0.06348   0.00000  Uiso   1.00
C191   C     0.83746   0.42092   0.16721   0.00000  Uiso   1.00
C192   C     0.82921   0.57908   0.16613   0.00000  Uiso   1.00
C193   C     0.73479   0.49946   0.15490   0.00000  Uiso   1.00
C194   C     0.93187   0.50054   0.17844   0.00000  Uiso   1.00
C195   C     0.67998   0.49379   0.14952   0.00000  Uiso   1.00
C196   C     0.98668   0.50621   0.18381   0.00000  Uiso   1.00
C197   C     0.84029   0.35440   0.12514   0.00000  Uiso   1.00
C198   C     0.82638   0.64560   0.20819   0.00000  Uiso   1.00
C199   C     0.82823   0.64583   0.12343   0.00000  Uiso   1.00
C200   C     0.83844   0.35417   0.20990   0.00000  Uiso   1.00
C201   C     0.82582   0.62390   0.16560   0.00000  Uiso   1.00
C202   C     0.84084   0.37610   0.16773   0.00000  Uiso   1.00
C203   C     0.79981   0.47473   0.02062   0.00000  Uiso   1.00
C204   C     0.86686   0.52526   0.31272   0.00000  Uiso   1.00
C205   C     0.79968   0.47485   0.30452   0.00000  Uiso   1.00
C206   C     0.86699   0.52515   0.02881   0.00000  Uiso   1.00
Cu207  Cu    0.83333   0.50001   0.21355   0.00000  Uiso   1.00
Cu208  Cu    0.83333   0.49999   0.11978   0.00000  Uiso   1.00
N209   N     0.83335   0.50001   0.28403   0.00000  Uiso   1.00
N210   N     0.83332   0.49999   0.04931   0.00000  Uiso   1.00
O211   O     0.83333   0.43989   0.20625   0.00000  Uiso   1.00
O212   O     0.83334   0.56011   0.12709   0.00000  Uiso   1.00
O213   O     0.83333   0.43988   0.12706   0.00000  Uiso   1.00
O214   O     0.83334   0.56012   0.20628   0.00000  Uiso   1.00
O215   O     0.75828   0.50000   0.19712   0.00000  Uiso   1.00
O216   O     0.90839   0.50000   0.13621   0.00000  Uiso   1.00
O217   O     0.75828   0.49999   0.11793   0.00000  Uiso   1.00
O218   O     0.90839   0.50001   0.21540   0.00000  Uiso   1.00
Cl219  Cl    0.98603   0.46384   0.10017   0.00000  Uiso   1.00
Cl220  Cl    0.68063   0.53616   0.23317   0.00000  Uiso   1.00
Br221  Br    0.86451   0.37890   0.07019   0.00000  Uiso   1.00
Br222  Br    0.80215   0.62110   0.26314   0.00000  Uiso   1.00
Br223  Br    0.80652   0.62177   0.06197   0.00000  Uiso   1.00
Br224  Br    0.86015   0.37823   0.27136   0.00000  Uiso   1.00
Cl225  Cl    0.75641   0.44090   0.04454   0.00000  Uiso   1.00
Cl226  Cl    0.91025   0.55910   0.28880   0.00000  Uiso   1.00
Cl227  Cl    0.75521   0.44186   0.26986   0.00000  Uiso   1.00
Cl228  Cl    0.91146   0.55814   0.06348   0.00000  Uiso   1.00
C229   C     0.17079   0.75425   0.16721   0.00000  Uiso   1.00
C230   C     0.16254   0.91241   0.16613   0.00000  Uiso   1.00
C231   C     0.06812   0.83279   0.15490   0.00000  Uiso   1.00
C232   C     0.26521   0.83387   0.17844   0.00000  Uiso   1.00
C233   C     0.01332   0.82713   0.14952   0.00000  Uiso   1.00
C234   C     0.32002   0.83954   0.18381   0.00000  Uiso   1.00
C235   C     0.17362   0.68773   0.12514   0.00000  Uiso   1.00
C236   C     0.15971   0.97893   0.20819   0.00000  Uiso   1.00
C237   C     0.16156   0.97916   0.12343   0.00000  Uiso   1.00
C238   C     0.17177   0.68751   0.20990   0.00000  Uiso   1.00
C239   C     0.15916   0.95723   0.16560   0.00000  Uiso   1.00
C240   C     0.17418   0.70943   0.16773   0.00000  Uiso   1.00
C241   C     0.13314   0.80807   0.02062   0.00000  Uiso   1.00
C242   C     0.20019   0.85860   0.31272   0.00000  Uiso   1.00
C243   C     0.13301   0.80818   0.30452   0.00000  Uiso   1.00
C244   C     0.20032   0.85848   0.02881   0.00000  Uiso   1.00
Cu245  Cu    0.16667   0.83334   0.21355   0.00000  Uiso   1.00
Cu246  Cu    0.16667   0.83333   0.11978   0.00000  Uiso   1.00
N247   N     0.16668   0.83334   0.28403   0.00000  Uiso   1.00
N248   N     0.16665   0.83332   0.04931   0.00000  Uiso   1.00
O249   O     0.16666   0.77322   0.20625   0.00000  Uiso   1.00
O250   O     0.16667   0.89345   0.12709   0.00000  Uiso   1.00
O251   O     0.16666   0.77321   0.12706   0.00000  Uiso   1.00
O252   O     0.16667   0.89346   0.20628   0.00000  Uiso   1.00
O253   O     0.09161   0.83334   0.19712   0.00000  Uiso   1.00
O254   O     0.24172   0.83333   0.13621   0.00000  Uiso   1.00
O255   O     0.09161   0.83333   0.11793   0.00000  Uiso   1.00
O256   O     0.24172   0.83334   0.21540   0.00000  Uiso   1.00
Cl257  Cl    0.31937   0.79717   0.10017   0.00000  Uiso   1.00
Cl258  Cl    0.01397   0.86949   0.23317   0.00000  Uiso   1.00
Br259  Br    0.19785   0.71223   0.07019   0.00000  Uiso   1.00
Br260  Br    0.13549   0.95444   0.26314   0.00000  Uiso   1.00
Br261  Br    0.13985   0.95510   0.06197   0.00000  Uiso   1.00
Br262  Br    0.19348   0.71156   0.27136   0.00000  Uiso   1.00
Cl263  Cl    0.08974   0.77423   0.04454   0.00000  Uiso   1.00
Cl264  Cl    0.24359   0.89244   0.28880   0.00000  Uiso   1.00
Cl265  Cl    0.08854   0.77519   0.26986   0.00000  Uiso   1.00
Cl266  Cl    0.24479   0.89148   0.06348   0.00000  Uiso   1.00
C267   C     0.50412   0.75425   0.16721   0.00000  Uiso   1.00
C268   C     0.49588   0.91241   0.16613   0.00000  Uiso   1.00
C269   C     0.40146   0.83279   0.15490   0.00000  Uiso   1.00
C270   C     0.59854   0.83387   0.17844   0.00000  Uiso   1.00
C271   C     0.34665   0.82713   0.14952   0.00000  Uiso   1.00
C272   C     0.65335   0.83954   0.18381   0.00000  Uiso   1.00
C273   C     0.50696   0.68773   0.12514   0.00000  Uiso   1.00
C274   C     0.49304   0.97893   0.20819   0.00000  Uiso   1.00
C275   C     0.49489   0.97916   0.12343   0.00000  Uiso   1.00
C276   C     0.50511   0.68751   0.20990   0.00000  Uiso   1.00
C277   C     0.49249   0.95723   0.16560   0.00000  Uiso   1.00
C278   C     0.50751   0.70943   0.16773   0.00000  Uiso   1.00
C279   C     0.46648   0.80807   0.02062   0.00000  Uiso   1.00
C280   C     0.53352   0.85860   0.31272   0.00000  Uiso   1.00
C281   C     0.46634   0.80818   0.30452   0.00000  Uiso   1.00
C282   C     0.53366   0.85848   0.02881   0.00000  Uiso   1.00
Cu283  Cu    0.50000   0.83334   0.21355   0.00000  Uiso   1.00
Cu284  Cu    0.50000   0.83333   0.11978   0.00000  Uiso   1.00
N285   N     0.50001   0.83334   0.28403   0.00000  Uiso   1.00
N286   N     0.49999   0.83332   0.04931   0.00000  Uiso   1.00
O287   O     0.50000   0.77322   0.20625   0.00000  Uiso   1.00
O288   O     0.50000   0.89345   0.12709   0.00000  Uiso   1.00
O289   O     0.50000   0.77321   0.12706   0.00000  Uiso   1.00
O290   O     0.50000   0.89346   0.20628   0.00000  Uiso   1.00
O291   O     0.42495   0.83334   0.19712   0.00000  Uiso   1.00
O292   O     0.57505   0.83333   0.13621   0.00000  Uiso   1.00
O293   O     0.42494   0.83333   0.11793   0.00000  Uiso   1.00
O294   O     0.57506   0.83334   0.21540   0.00000  Uiso   1.00
Cl295  Cl    0.65270   0.79717   0.10017   0.00000  Uiso   1.00
Cl296  Cl    0.34730   0.86949   0.23317   0.00000  Uiso   1.00
Br297  Br    0.53118   0.71223   0.07019   0.00000  Uiso   1.00
Br298  Br    0.46882   0.95444   0.26314   0.00000  Uiso   1.00
Br299  Br    0.47319   0.95510   0.06197   0.00000  Uiso   1.00
Br300  Br    0.52681   0.71156   0.27136   0.00000  Uiso   1.00
Cl301  Cl    0.42308   0.77423   0.04454   0.00000  Uiso   1.00
Cl302  Cl    0.57692   0.89244   0.28880   0.00000  Uiso   1.00
Cl303  Cl    0.42187   0.77519   0.26986   0.00000  Uiso   1.00
Cl304  Cl    0.57813   0.89148   0.06348   0.00000  Uiso   1.00
C305   C     0.83746   0.75425   0.16721   0.00000  Uiso   1.00
C306   C     0.82921   0.91241   0.16613   0.00000  Uiso   1.00
C307   C     0.73479   0.83279   0.15490   0.00000  Uiso   1.00
C308   C     0.93187   0.83387   0.17844   0.00000  Uiso   1.00
C309   C     0.67998   0.82713   0.14952   0.00000  Uiso   1.00
C310   C     0.98668   0.83954   0.18381   0.00000  Uiso   1.00
C311   C     0.84029   0.68773   0.12514   0.00000  Uiso   1.00
C312   C     0.82638   0.97893   0.20819   0.00000  Uiso   1.00
C313   C     0.82823   0.97916   0.12343   0.00000  Uiso   1.00
C314   C     0.83844   0.68751   0.20990   0.00000  Uiso   1.00
C315   C     0.82582   0.95723   0.16560   0.00000  Uiso   1.00
C316   C     0.84084   0.70943   0.16773   0.00000  Uiso   1.00
C317   C     0.79981   0.80807   0.02062   0.00000  Uiso   1.00
C318   C     0.86686   0.85860   0.31272   0.00000  Uiso   1.00
C319   C     0.79968   0.80818   0.30452   0.00000  Uiso   1.00
C320   C     0.86699   0.85848   0.02881   0.00000  Uiso   1.00
Cu321  Cu    0.83333   0.83334   0.21355   0.00000  Uiso   1.00
Cu322  Cu    0.83333   0.83333   0.11978   0.00000  Uiso   1.00
N323   N     0.83335   0.83334   0.28403   0.00000  Uiso   1.00
N324   N     0.83332   0.83332   0.04931   0.00000  Uiso   1.00
O325   O     0.83333   0.77322   0.20625   0.00000  Uiso   1.00
O326   O     0.83334   0.89345   0.12709   0.00000  Uiso   1.00
O327   O     0.83333   0.77321   0.12706   0.00000  Uiso   1.00
O328   O     0.83334   0.89346   0.20628   0.00000  Uiso   1.00
O329   O     0.75828   0.83334   0.19712   0.00000  Uiso   1.00
O330   O     0.90839   0.83333   0.13621   0.00000  Uiso   1.00
O331   O     0.75828   0.83333   0.11793   0.00000  Uiso   1.00
O332   O     0.90839   0.83334   0.21540   0.00000  Uiso   1.00
Cl333  Cl    0.98603   0.79717   0.10017   0.00000  Uiso   1.00
Cl334  Cl    0.68063   0.86949   0.23317   0.00000  Uiso   1.00
Br335  Br    0.86451   0.71223   0.07019   0.00000  Uiso   1.00
Br336  Br    0.80215   0.95444   0.26314   0.00000  Uiso   1.00
Br337  Br    0.80652   0.95510   0.06197   0.00000  Uiso   1.00
Br338  Br    0.86015   0.71156   0.27136   0.00000  Uiso   1.00
Cl339  Cl    0.75641   0.77423   0.04454   0.00000  Uiso   1.00
Cl340  Cl    0.91025   0.89244   0.28880   0.00000  Uiso   1.00
Cl341  Cl    0.75521   0.77519   0.26986   0.00000  Uiso   1.00
Cl342  Cl    0.91146   0.89148   0.06348   0.00000  Uiso   1.00
C343   C     0.17079   0.08759   0.50054   0.00000  Uiso   1.00
C344   C     0.16254   0.24575   0.49946   0.00000  Uiso   1.00
C345   C     0.06812   0.16612   0.48823   0.00000  Uiso   1.00
C346   C     0.26521   0.16721   0.51177   0.00000  Uiso   1.00
C347   C     0.01332   0.16046   0.48286   0.00000  Uiso   1.00
C348   C     0.32002   0.17287   0.51714   0.00000  Uiso   1.00
C349   C     0.17362   0.02107   0.45847   0.00000  Uiso   1.00
C350   C     0.15971   0.31227   0.54153   0.00000  Uiso   1.00
C351   C     0.16156   0.31249   0.45676   0.00000  Uiso   1.00
C352   C     0.17177   0.02084   0.54324   0.00000  Uiso   1.00
C353   C     0.15916   0.29057   0.49894   0.00000  Uiso   1.00
C354   C     0.17418   0.04277   0.50106   0.00000  Uiso   1.00
C355   C     0.13314   0.14140   0.35395   0.00000  Uiso   1.00
C356   C     0.20019   0.19193   0.64605   0.00000  Uiso   1.00
C357   C     0.13301   0.14152   0.63785   0.00000  Uiso   1.00
C358   C     0.20032   0.19182   0.36215   0.00000  Uiso   1.00
Cu359  Cu    0.16667   0.16667   0.54689   0.00000  Uiso   1.00
Cu360  Cu    0.16667   0.16666   0.45311   0.00000  Uiso   1.00
N361   N     0.16668   0.16668   0.61736   0.00000  Uiso   1.00
N362   N     0.16665   0.16666   0.38264   0.00000  Uiso   1.00
O363   O     0.16666   0.10655   0.53958   0.00000  Uiso   1.00
O364   O     0.16667   0.22678   0.46042   0.00000  Uiso   1.00
O365   O     0.16666   0.10654   0.46039   0.00000  Uiso   1.00
O366   O     0.16667   0.22679   0.53961   0.00000  Uiso   1.00
O367   O     0.09161   0.16667   0.53046   0.00000  Uiso   1.00
O368   O     0.24172   0.16666   0.46954   0.00000  Uiso   1.00
O369   O     0.09161   0.16666   0.45127   0.00000  Uiso   1.00
O370   O     0.24172   0.16667   0.54873   0.00000  Uiso   1.00
Cl371  Cl    0.31937   0.13051   0.43350   0.00000  Uiso   1.00
Cl372  Cl    0.01397   0.20283   0.56650   0.00000  Uiso   1.00
Br373  Br    0.19785   0.04556   0.40352   0.00000  Uiso   1.00
Br374  Br    0.13549   0.28777   0.59648   0.00000  Uiso   1.00
Br375  Br    0.13985   0.28844   0.39530   0.00000  Uiso   1.00
Br376  Br    0.19348   0.04490   0.60470   0.00000  Uiso   1.00
Cl377  Cl    0.08974   0.10756   0.37787   0.00000  Uiso   1.00
Cl378  Cl    0.24359   0.22577   0.62213   0.00000  Uiso   1.00
Cl379  Cl    0.08854   0.10852   0.60319   0.00000  Uiso   1.00
Cl380  Cl    0.24479   0.22481   0.39681   0.00000  Uiso   1.00
C381   C     0.50412   0.08759   0.50054   0.00000  Uiso   1.00
C382   C     0.49588   0.24575   0.49946   0.00000  Uiso   1.00
C383   C     0.40146   0.16612   0.48823   0.00000  Uiso   1.00
C384   C     0.59854   0.16721   0.51177   0.00000  Uiso   1.00
C385   C     0.34665   0.16046   0.48286   0.00000  Uiso   1.00
C386   C     0.65335   0.17287   0.51714   0.00000  Uiso   1.00
C387   C     0.50696   0.02107   0.45847   0.00000  Uiso   1.00
C388   C     0.49304   0.31227   0.54153   0.00000  Uiso   1.00
C389   C     0.49489   0.31249   0.45676   0.00000  Uiso   1.00
C390   C     0.50511   0.02084   0.54324   0.00000  Uiso   1.00
C391   C     0.49249   0.29057   0.49894   0.00000  Uiso   1.00
C392   C     0.50751   0.04277   0.50106   0.00000  Uiso   1.00
C393   C     0.46648   0.14140   0.35395   0.00000  Uiso   1.00
C394   C     0.53352   0.19193   0.64605   0.00000  Uiso   1.00
C395   C     0.46634   0.14152   0.63785   0.00000  Uiso   1.00
C396   C     0.53366   0.19182   0.36215   0.00000  Uiso   1.00
Cu397  Cu    0.50000   0.16667   0.54689   0.00000  Uiso   1.00
Cu398  Cu    0.50000   0.16666   0.45311   0.00000  Uiso   1.00
N399   N     0.50001   0.16668   0.61736   0.00000  Uiso   1.00
N400   N     0.49999   0.16666   0.38264   0.00000  Uiso   1.00
O401   O     0.50000   0.10655   0.53958   0.00000  Uiso   1.00
O402   O     0.50000   0.22678   0.46042   0.00000  Uiso   1.00
O403   O     0.50000   0.10654   0.46039   0.00000  Uiso   1.00
O404   O     0.50000   0.22679   0.53961   0.00000  Uiso   1.00
O405   O     0.42495   0.16667   0.53046   0.00000  Uiso   1.00
O406   O     0.57505   0.16666   0.46954   0.00000  Uiso   1.00
O407   O     0.42494   0.16666   0.45127   0.00000  Uiso   1.00
O408   O     0.57506   0.16667   0.54873   0.00000  Uiso   1.00
Cl409  Cl    0.65270   0.13051   0.43350   0.00000  Uiso   1.00
Cl410  Cl    0.34730   0.20283   0.56650   0.00000  Uiso   1.00
Br411  Br    0.53118   0.04556   0.40352   0.00000  Uiso   1.00
Br412  Br    0.46882   0.28777   0.59648   0.00000  Uiso   1.00
Br413  Br    0.47319   0.28844   0.39530   0.00000  Uiso   1.00
Br414  Br    0.52681   0.04490   0.60470   0.00000  Uiso   1.00
Cl415  Cl    0.42308   0.10756   0.37787   0.00000  Uiso   1.00
Cl416  Cl    0.57692   0.22577   0.62213   0.00000  Uiso   1.00
Cl417  Cl    0.42187   0.10852   0.60319   0.00000  Uiso   1.00
Cl418  Cl    0.57813   0.22481   0.39681   0.00000  Uiso   1.00
C419   C     0.83746   0.08759   0.50054   0.00000  Uiso   1.00
C420   C     0.82921   0.24575   0.49946   0.00000  Uiso   1.00
C421   C     0.73479   0.16612   0.48823   0.00000  Uiso   1.00
C422   C     0.93187   0.16721   0.51177   0.00000  Uiso   1.00
C423   C     0.67998   0.16046   0.48286   0.00000  Uiso   1.00
C424   C     0.98668   0.17287   0.51714   0.00000  Uiso   1.00
C425   C     0.84029   0.02107   0.45847   0.00000  Uiso   1.00
C426   C     0.82638   0.31227   0.54153   0.00000  Uiso   1.00
C427   C     0.82823   0.31249   0.45676   0.00000  Uiso   1.00
C428   C     0.83844   0.02084   0.54324   0.00000  Uiso   1.00
C429   C     0.82582   0.29057   0.49894   0.00000  Uiso   1.00
C430   C     0.84084   0.04277   0.50106   0.00000  Uiso   1.00
C431   C     0.79981   0.14140   0.35395   0.00000  Uiso   1.00
C432   C     0.86686   0.19193   0.64605   0.00000  Uiso   1.00
C433   C     0.79968   0.14152   0.63785   0.00000  Uiso   1.00
C434   C     0.86699   0.19182   0.36215   0.00000  Uiso   1.00
Cu435  Cu    0.83333   0.16667   0.54689   0.00000  Uiso   1.00
Cu436  Cu    0.83333   0.16666   0.45311   0.00000  Uiso   1.00
N437   N     0.83335   0.16668   0.61736   0.00000  Uiso   1.00
N438   N     0.83332   0.16666   0.38264   0.00000  Uiso   1.00
O439   O     0.83333   0.10655   0.53958   0.00000  Uiso   1.00
O440   O     0.83334   0.22678   0.46042   0.00000  Uiso   1.00
O441   O     0.83333   0.10654   0.46039   0.00000  Uiso   1.00
O442   O     0.83334   0.22679   0.53961   0.00000  Uiso   1.00
O443   O     0.75828   0.16667   0.53046   0.00000  Uiso   1.00
O444   O     0.90839   0.16666   0.46954   0.00000  Uiso   1.00
O445   O     0.75828   0.16666   0.45127   0.00000  Uiso   1.00
O446   O     0.90839   0.16667   0.54873   0.00000  Uiso   1.00
Cl447  Cl    0.98603   0.13051   0.43350   0.00000  Uiso   1.00
Cl448  Cl    0.68063   0.20283   0.56650   0.00000  Uiso   1.00
Br449  Br    0.86451   0.04556   0.40352   0.00000  Uiso   1.00
Br450  Br    0.80215   0.28777   0.59648   0.00000  Uiso   1.00
Br451  Br    0.80652   0.28844   0.39530   0.00000  Uiso   1.00
Br452  Br    0.86015   0.04490   0.60470   0.00000  Uiso   1.00
Cl453  Cl    0.75641   0.10756   0.37787   0.00000  Uiso   1.00
Cl454  Cl    0.91025   0.22577   0.62213   0.00000  Uiso   1.00
Cl455  Cl    0.75521   0.10852   0.60319   0.00000  Uiso   1.00
Cl456  Cl    0.91146   0.22481   0.39681   0.00000  Uiso   1.00
C457   C     0.17079   0.42092   0.50054   0.00000  Uiso   1.00
C458   C     0.16254   0.57908   0.49946   0.00000  Uiso   1.00
C459   C     0.06812   0.49946   0.48823   0.00000  Uiso   1.00
C460   C     0.26521   0.50054   0.51177   0.00000  Uiso   1.00
C461   C     0.01332   0.49379   0.48286   0.00000  Uiso   1.00
C462   C     0.32002   0.50621   0.51714   0.00000  Uiso   1.00
C463   C     0.17362   0.35440   0.45847   0.00000  Uiso   1.00
C464   C     0.15971   0.64560   0.54153   0.00000  Uiso   1.00
C465   C     0.16156   0.64583   0.45676   0.00000  Uiso   1.00
C466   C     0.17177   0.35417   0.54324   0.00000  Uiso   1.00
C467   C     0.15916   0.62390   0.49894   0.00000  Uiso   1.00
C468   C     0.17418   0.37610   0.50106   0.00000  Uiso   1.00
C469   C     0.13314   0.47473   0.35395   0.00000  Uiso   1.00
C470   C     0.20019   0.52526   0.64605   0.00000  Uiso   1.00
C471   C     0.13301   0.47485   0.63785   0.00000  Uiso   1.00
C472   C     0.20032   0.52515   0.36215   0.00000  Uiso   1.00
Cu473  Cu    0.16667   0.50001   0.54689   0.00000  Uiso   1.00
Cu474  Cu    0.16667   0.49999   0.45311   0.00000  Uiso   1.00
N475   N     0.16668   0.50001   0.61736   0.00000  Uiso   1.00
N476   N     0.16665   0.49999   0.38264   0.00000  Uiso   1.00
O477   O     0.16666   0.43989   0.53958   0.00000  Uiso   1.00
O478   O     0.16667   0.56011   0.46042   0.00000  Uiso   1.00
O479   O     0.16666   0.43988   0.46039   0.00000  Uiso   1.00
O480   O     0.16667   0.56012   0.53961   0.00000  Uiso   1.00
O481   O     0.09161   0.50000   0.53046   0.00000  Uiso   1.00
O482   O     0.24172   0.50000   0.46954   0.00000  Uiso   1.00
O483   O     0.09161   0.49999   0.45127   0.00000  Uiso   1.00
O484   O     0.24172   0.50001   0.54873   0.00000  Uiso   1.00
Cl485  Cl    0.31937   0.46384   0.43350   0.00000  Uiso   1.00
Cl486  Cl    0.01397   0.53616   0.56650   0.00000  Uiso   1.00
Br487  Br    0.19785   0.37890   0.40352   0.00000  Uiso   1.00
Br488  Br    0.13549   0.62110   0.59648   0.00000  Uiso   1.00
Br489  Br    0.13985   0.62177   0.39530   0.00000  Uiso   1.00
Br490  Br    0.19348   0.37823   0.60470   0.00000  Uiso   1.00
Cl491  Cl    0.08974   0.44090   0.37787   0.00000  Uiso   1.00
Cl492  Cl    0.24359   0.55910   0.62213   0.00000  Uiso   1.00
Cl493  Cl    0.08854   0.44186   0.60319   0.00000  Uiso   1.00
Cl494  Cl    0.24479   0.55814   0.39681   0.00000  Uiso   1.00
C495   C     0.50412   0.42092   0.50054   0.00000  Uiso   1.00
C496   C     0.49588   0.57908   0.49946   0.00000  Uiso   1.00
C497   C     0.40146   0.49946   0.48823   0.00000  Uiso   1.00
C498   C     0.59854   0.50054   0.51177   0.00000  Uiso   1.00
C499   C     0.34665   0.49379   0.48286   0.00000  Uiso   1.00
C500   C     0.65335   0.50621   0.51714   0.00000  Uiso   1.00
C501   C     0.50696   0.35440   0.45847   0.00000  Uiso   1.00
C502   C     0.49304   0.64560   0.54153   0.00000  Uiso   1.00
C503   C     0.49489   0.64583   0.45676   0.00000  Uiso   1.00
C504   C     0.50511   0.35417   0.54324   0.00000  Uiso   1.00
C505   C     0.49249   0.62390   0.49894   0.00000  Uiso   1.00
C506   C     0.50751   0.37610   0.50106   0.00000  Uiso   1.00
C507   C     0.46648   0.47473   0.35395   0.00000  Uiso   1.00
C508   C     0.53352   0.52526   0.64605   0.00000  Uiso   1.00
C509   C     0.46634   0.47485   0.63785   0.00000  Uiso   1.00
C510   C     0.53366   0.52515   0.36215   0.00000  Uiso   1.00
Cu511  Cu    0.50000   0.50001   0.54689   0.00000  Uiso   1.00
Cu512  Cu    0.50000   0.49999   0.45311   0.00000  Uiso   1.00
N513   N     0.50001   0.50001   0.61736   0.00000  Uiso   1.00
N514   N     0.49999   0.49999   0.38264   0.00000  Uiso   1.00
O515   O     0.50000   0.43989   0.53958   0.00000  Uiso   1.00
O516   O     0.50000   0.56011   0.46042   0.00000  Uiso   1.00
O517   O     0.50000   0.43988   0.46039   0.00000  Uiso   1.00
O518   O     0.50000   0.56012   0.53961   0.00000  Uiso   1.00
O519   O     0.42495   0.50000   0.53046   0.00000  Uiso   1.00
O520   O     0.57505   0.50000   0.46954   0.00000  Uiso   1.00
O521   O     0.42494   0.49999   0.45127   0.00000  Uiso   1.00
O522   O     0.57506   0.50001   0.54873   0.00000  Uiso   1.00
Cl523  Cl    0.65270   0.46384   0.43350   0.00000  Uiso   1.00
Cl524  Cl    0.34730   0.53616   0.56650   0.00000  Uiso   1.00
Br525  Br    0.53118   0.37890   0.40352   0.00000  Uiso   1.00
Br526  Br    0.46882   0.62110   0.59648   0.00000  Uiso   1.00
Br527  Br    0.47319   0.62177   0.39530   0.00000  Uiso   1.00
Br528  Br    0.52681   0.37823   0.60470   0.00000  Uiso   1.00
Cl529  Cl    0.42308   0.44090   0.37787   0.00000  Uiso   1.00
Cl530  Cl    0.57692   0.55910   0.62213   0.00000  Uiso   1.00
Cl531  Cl    0.42187   0.44186   0.60319   0.00000  Uiso   1.00
Cl532  Cl    0.57813   0.55814   0.39681   0.00000  Uiso   1.00
C533   C     0.83746   0.42092   0.50054   0.00000  Uiso   1.00
C534   C     0.82921   0.57908   0.49946   0.00000  Uiso   1.00
C535   C     0.73479   0.49946   0.48823   0.00000  Uiso   1.00
C536   C     0.93187   0.50054   0.51177   0.00000  Uiso   1.00
C537   C     0.67998   0.49379   0.48286   0.00000  Uiso   1.00
C538   C     0.98668   0.50621   0.51714   0.00000  Uiso   1.00
C539   C     0.84029   0.35440   0.45847   0.00000  Uiso   1.00
C540   C     0.82638   0.64560   0.54153   0.00000  Uiso   1.00
C541   C     0.82823   0.64583   0.45676   0.00000  Uiso   1.00
C542   C     0.83844   0.35417   0.54324   0.00000  Uiso   1.00
C543   C     0.82582   0.62390   0.49894   0.00000  Uiso   1.00
C544   C     0.84084   0.37610   0.50106   0.00000  Uiso   1.00
C545   C     0.79981   0.47473   0.35395   0.00000  Uiso   1.00
C546   C     0.86686   0.52526   0.64605   0.00000  Uiso   1.00
C547   C     0.79968   0.47485   0.63785   0.00000  Uiso   1.00
C548   C     0.86699   0.52515   0.36215   0.00000  Uiso   1.00
Cu549  Cu    0.83333   0.50001   0.54689   0.00000  Uiso   1.00
Cu550  Cu    0.83333   0.49999   0.45311   0.00000  Uiso   1.00
N551   N     0.83335   0.50001   0.61736   0.00000  Uiso   1.00
N552   N     0.83332   0.49999   0.38264   0.00000  Uiso   1.00
O553   O     0.83333   0.43989   0.53958   0.00000  Uiso   1.00
O554   O     0.83334   0.56011   0.46042   0.00000  Uiso   1.00
O555   O     0.83333   0.43988   0.46039   0.00000  Uiso   1.00
O556   O     0.83334   0.56012   0.53961   0.00000  Uiso   1.00
O557   O     0.75828   0.50000   0.53046   0.00000  Uiso   1.00
O558   O     0.90839   0.50000   0.46954   0.00000  Uiso   1.00
O559   O     0.75828   0.49999   0.45127   0.00000  Uiso   1.00
O560   O     0.90839   0.50001   0.54873   0.00000  Uiso   1.00
Cl561  Cl    0.98603   0.46384   0.43350   0.00000  Uiso   1.00
Cl562  Cl    0.68063   0.53616   0.56650   0.00000  Uiso   1.00
Br563  Br    0.86451   0.37890   0.40352   0.00000  Uiso   1.00
Br564  Br    0.80215   0.62110   0.59648   0.00000  Uiso   1.00
Br565  Br    0.80652   0.62177   0.39530   0.00000  Uiso   1.00
Br566  Br    0.86015   0.37823   0.60470   0.00000  Uiso   1.00
Cl567  Cl    0.75641   0.44090   0.37787   0.00000  Uiso   1.00
Cl568  Cl    0.91025   0.55910   0.62213   0.00000  Uiso   1.00
Cl569  Cl    0.75521   0.44186   0.60319   0.00000  Uiso   1.00
Cl570  Cl    0.91146   0.55814   0.39681   0.00000  Uiso   1.00
C571   C     0.17079   0.75425   0.50054   0.00000  Uiso   1.00
C572   C     0.16254   0.91241   0.49946   0.00000  Uiso   1.00
C573   C     0.06812   0.83279   0.48823   0.00000  Uiso   1.00
C574   C     0.26521   0.83387   0.51177   0.00000  Uiso   1.00
C575   C     0.01332   0.82713   0.48286   0.00000  Uiso   1.00
C576   C     0.32002   0.83954   0.51714   0.00000  Uiso   1.00
C577   C     0.17362   0.68773   0.45847   0.00000  Uiso   1.00
C578   C     0.15971   0.97893   0.54153   0.00000  Uiso   1.00
C579   C     0.16156   0.97916   0.45676   0.00000  Uiso   1.00
C580   C     0.17177   0.68751   0.54324   0.00000  Uiso   1.00
C581   C     0.15916   0.95723   0.49894   0.00000  Uiso   1.00
C582   C     0.17418   0.70943   0.50106   0.00000  Uiso   1.00
C583   C     0.13314   0.80807   0.35395   0.00000  Uiso   1.00
C584   C     0.20019   0.85860   0.64605   0.00000  Uiso   1.00
C585   C     0.13301   0.80818   0.63785   0.00000  Uiso   1.00
C586   C     0.20032   0.85848   0.36215   0.00000  Uiso   1.00
Cu587  Cu    0.16667   0.83334   0.54689   0.00000  Uiso   1.00
Cu588  Cu    0.16667   0.83333   0.45311   0.00000  Uiso   1.00
N589   N     0.16668   0.83334   0.61736   0.00000  Uiso   1.00
N590   N     0.16665   0.83332   0.38264   0.00000  Uiso   1.00
O591   O     0.16666   0.77322   0.53958   0.00000  Uiso   1.00
O592   O     0.16667   0.89345   0.46042   0.00000  Uiso   1.00
O593   O     0.16666   0.77321   0.46039   0.00000  Uiso   1.00
O594   O     0.16667   0.89346   0.53961   0.00000  Uiso   1.00
O595   O     0.09161   0.83334   0.53046   0.00000  Uiso   1.00
O596   O     0.24172   0.83333   0.46954   0.00000  Uiso   1.00
O597   O     0.09161   0.83333   0.45127   0.00000  Uiso   1.00
O598   O     0.24172   0.83334   0.54873   0.00000  Uiso   1.00
Cl599  Cl    0.31937   0.79717   0.43350   0.00000  Uiso   1.00
Cl600  Cl    0.01397   0.86949   0.56650   0.00000  Uiso   1.00
Br601  Br    0.19785   0.71223   0.40352   0.00000  Uiso   1.00
Br602  Br    0.13549   0.95444   0.59648   0.00000  Uiso   1.00
Br603  Br    0.13985   0.95510   0.39530   0.00000  Uiso   1.00
Br604  Br    0.19348   0.71156   0.60470   0.00000  Uiso   1.00
Cl605  Cl    0.08974   0.77423   0.37787   0.00000  Uiso   1.00
Cl606  Cl    0.24359   0.89244   0.62213   0.00000  Uiso   1.00
Cl607  Cl    0.08854   0.77519   0.60319   0.00000  Uiso   1.00
Cl608  Cl    0.24479   0.89148   0.39681   0.00000  Uiso   1.00
C609   C     0.50412   0.75425   0.50054   0.00000  Uiso   1.00
C610   C     0.49588   0.91241   0.49946   0.00000  Uiso   1.00
C611   C     0.40146   0.83279   0.48823   0.00000  Uiso   1.00
C612   C     0.59854   0.83387   0.51177   0.00000  Uiso   1.00
C613   C     0.34665   0.82713   0.48286   0.00000  Uiso   1.00
C614   C     0.65335   0.83954   0.51714   0.00000  Uiso   1.00
C615   C     0.50696   0.68773   0.45847   0.00000  Uiso   1.00
C616   C     0.49304   0.97893   0.54153   0.00000  Uiso   1.00
C617   C     0.49489   0.97916   0.45676   0.00000  Uiso   1.00
C618   C     0.50511   0.68751   0.54324   0.00000  Uiso   1.00
C619   C     0.49249   0.95723   0.49894   0.00000  Uiso   1.00
C620   C     0.50751   0.70943   0.50106   0.00000  Uiso   1.00
C621   C     0.46648   0.80807   0.35395   0.00000  Uiso   1.00
C622   C     0.53352   0.85860   0.64605   0.00000  Uiso   1.00
C623   C     0.46634   0.80818   0.63785   0.00000  Uiso   1.00
C624   C     0.53366   0.85848   0.36215   0.00000  Uiso   1.00
Cu625  Cu    0.50000   0.83334   0.54689   0.00000  Uiso   1.00
Cu626  Cu    0.50000   0.83333   0.45311   0.00000  Uiso   1.00
N627   N     0.50001   0.83334   0.61736   0.00000  Uiso   1.00
N628   N     0.49999   0.83332   0.38264   0.00000  Uiso   1.00
O629   O     0.50000   0.77322   0.53958   0.00000  Uiso   1.00
O630   O     0.50000   0.89345   0.46042   0.00000  Uiso   1.00
O631   O     0.50000   0.77321   0.46039   0.00000  Uiso   1.00
O632   O     0.50000   0.89346   0.53961   0.00000  Uiso   1.00
O633   O     0.42495   0.83334   0.53046   0.00000  Uiso   1.00
O634   O     0.57505   0.83333   0.46954   0.00000  Uiso   1.00
O635   O     0.42494   0.83333   0.45127   0.00000  Uiso   1.00
O636   O     0.57506   0.83334   0.54873   0.00000  Uiso   1.00
Cl637  Cl    0.65270   0.79717   0.43350   0.00000  Uiso   1.00
Cl638  Cl    0.34730   0.86949   0.56650   0.00000  Uiso   1.00
Br639  Br    0.53118   0.71223   0.40352   0.00000  Uiso   1.00
Br640  Br    0.46882   0.95444   0.59648   0.00000  Uiso   1.00
Br641  Br    0.47319   0.95510   0.39530   0.00000  Uiso   1.00
Br642  Br    0.52681   0.71156   0.60470   0.00000  Uiso   1.00
Cl643  Cl    0.42308   0.77423   0.37787   0.00000  Uiso   1.00
Cl644  Cl    0.57692   0.89244   0.62213   0.00000  Uiso   1.00
Cl645  Cl    0.42187   0.77519   0.60319   0.00000  Uiso   1.00
Cl646  Cl    0.57813   0.89148   0.39681   0.00000  Uiso   1.00
C647   C     0.83746   0.75425   0.50054   0.00000  Uiso   1.00
C648   C     0.82921   0.91241   0.49946   0.00000  Uiso   1.00
C649   C     0.73479   0.83279   0.48823   0.00000  Uiso   1.00
C650   C     0.93187   0.83387   0.51177   0.00000  Uiso   1.00
C651   C     0.67998   0.82713   0.48286   0.00000  Uiso   1.00
C652   C     0.98668   0.83954   0.51714   0.00000  Uiso   1.00
C653   C     0.84029   0.68773   0.45847   0.00000  Uiso   1.00
C654   C     0.82638   0.97893   0.54153   0.00000  Uiso   1.00
C655   C     0.82823   0.97916   0.45676   0.00000  Uiso   1.00
C656   C     0.83844   0.68751   0.54324   0.00000  Uiso   1.00
C657   C     0.82582   0.95723   0.49894   0.00000  Uiso   1.00
C658   C     0.84084   0.70943   0.50106   0.00000  Uiso   1.00
C659   C     0.79981   0.80807   0.35395   0.00000  Uiso   1.00
C660   C     0.86686   0.85860   0.64605   0.00000  Uiso   1.00
C661   C     0.79968   0.80818   0.63785   0.00000  Uiso   1.00
C662   C     0.86699   0.85848   0.36215   0.00000  Uiso   1.00
Cu663  Cu    0.83333   0.83334   0.54689   0.00000  Uiso   1.00
Cu664  Cu    0.83333   0.83333   0.45311   0.00000  Uiso   1.00
N665   N     0.83335   0.83334   0.61736   0.00000  Uiso   1.00
N666   N     0.83332   0.83332   0.38264   0.00000  Uiso   1.00
O667   O     0.83333   0.77322   0.53958   0.00000  Uiso   1.00
O668   O     0.83334   0.89345   0.46042   0.00000  Uiso   1.00
O669   O     0.83333   0.77321   0.46039   0.00000  Uiso   1.00
O670   O     0.83334   0.89346   0.53961   0.00000  Uiso   1.00
O671   O     0.75828   0.83334   0.53046   0.00000  Uiso   1.00
O672   O     0.90839   0.83333   0.46954   0.00000  Uiso   1.00
O673   O     0.75828   0.83333   0.45127   0.00000  Uiso   1.00
O674   O     0.90839   0.83334   0.54873   0.00000  Uiso   1.00
Cl675  Cl    0.98603   0.79717   0.43350   0.00000  Uiso   1.00
Cl676  Cl    0.68063   0.86949   0.56650   0.00000  Uiso   1.00
Br677  Br    0.86451   0.71223   0.40352   0.00000  Uiso   1.00
Br678  Br    0.80215   0.95444   0.59648   0.00000  Uiso   1.00
Br679  Br    0.80652   0.95510   0.39530   0.00000  Uiso   1.00
Br680  Br    0.86015   0.71156   0.60470   0.00000  Uiso   1.00
Cl681  Cl    0.75641   0.77423   0.37787   0.00000  Uiso   1.00
Cl682  Cl    0.91025   0.89244   0.62213   0.00000  Uiso   1.00
Cl683  Cl    0.75521   0.77519   0.60319   0.00000  Uiso   1.00
Cl684  Cl    0.91146   0.89148   0.39681   0.00000  Uiso   1.00
C685   C     0.17079   0.08759   0.83387   0.00000  Uiso   1.00
C686   C     0.16254   0.24575   0.83279   0.00000  Uiso   1.00
C687   C     0.06812   0.16612   0.82156   0.00000  Uiso   1.00
C688   C     0.26521   0.16721   0.84510   0.00000  Uiso   1.00
C689   C     0.01332   0.16046   0.81619   0.00000  Uiso   1.00
C690   C     0.32002   0.17287   0.85048   0.00000  Uiso   1.00
C691   C     0.17362   0.02107   0.79181   0.00000  Uiso   1.00
C692   C     0.15971   0.31227   0.87486   0.00000  Uiso   1.00
C693   C     0.16156   0.31249   0.79009   0.00000  Uiso   1.00
C694   C     0.17177   0.02084   0.87657   0.00000  Uiso   1.00
C695   C     0.15916   0.29057   0.83227   0.00000  Uiso   1.00
C696   C     0.17418   0.04277   0.83440   0.00000  Uiso   1.00
C697   C     0.13314   0.14140   0.68728   0.00000  Uiso   1.00
C698   C     0.20019   0.19193   0.97938   0.00000  Uiso   1.00
C699   C     0.13301   0.14152   0.97119   0.00000  Uiso   1.00
C700   C     0.20032   0.19182   0.69548   0.00000  Uiso   1.00
Cu701  Cu    0.16667   0.16667   0.88022   0.00000  Uiso   1.00
Cu702  Cu    0.16667   0.16666   0.78645   0.00000  Uiso   1.00
N703   N     0.16668   0.16668   0.95069   0.00000  Uiso   1.00
N704   N     0.16665   0.16666   0.71597   0.00000  Uiso   1.00
O705   O     0.16666   0.10655   0.87291   0.00000  Uiso   1.00
O706   O     0.16667   0.22678   0.79375   0.00000  Uiso   1.00
O707   O     0.16666   0.10654   0.79372   0.00000  Uiso   1.00
O708   O     0.16667   0.22679   0.87294   0.00000  Uiso   1.00
O709   O     0.09161   0.16667   0.86379   0.00000  Uiso   1.00
O710   O     0.24172   0.16666   0.80288   0.00000  Uiso   1.00
O711   O     0.09161   0.16666   0.78460   0.00000  Uiso   1.00
O712   O     0.24172   0.16667   0.88207   0.00000  Uiso   1.00
Cl713  Cl    0.31937   0.13051   0.76683   0.00000  Uiso   1.00
Cl714  Cl    0.01397   0.20283   0.89983   0.00000  Uiso   1.00
Br715  Br    0.19785   0.04556   0.73686   0.00000  Uiso   1.00
Br716  Br    0.13549   0.28777   0.92981   0.00000  Uiso   1.00
Br717  Br    0.13985   0.28844   0.72864   0.00000  Uiso   1.00
Br718  Br    0.19348   0.04490   0.93803   0.00000  Uiso   1.00
Cl719  Cl    0.08974   0.10756   0.71120   0.00000  Uiso   1.00
Cl720  Cl    0.24359   0.22577   0.95546   0.00000  Uiso   1.00
Cl721  Cl    0.08854   0.10852   0.93652   0.00000  Uiso   1.00
Cl722  Cl    0.24479   0.22481   0.73014   0.00000  Uiso   1.00
C723   C     0.50412   0.08759   0.83387   0.00000  Uiso   1.00
C724   C     0.49588   0.24575   0.83279   0.00000  Uiso   1.00
C725   C     0.40146   0.16612   0.82156   0.00000  Uiso   1.00
C726   C     0.59854   0.16721   0.84510   0.00000  Uiso   1.00
C727   C     0.34665   0.16046   0.81619   0.00000  Uiso   1.00
C728   C     0.65335   0.17287   0.85048   0.00000  Uiso   1.00
C729   C     0.50696   0.02107   0.79181   0.00000  Uiso   1.00
C730   C     0.49304   0.31227   0.87486   0.00000  Uiso   1.00
C731   C     0.49489   0.31249   0.79009   0.00000  Uiso   1.00
C732   C     0.50511   0.02084   0.87657   0.00000  Uiso   1.00
C733   C     0.49249   0.29057   0.83227   0.00000  Uiso   1.00
C734   C     0.50751   0.04277   0.83440   0.00000  Uiso   1.00
C735   C     0.46648   0.14140   0.68728   0.00000  Uiso   1.00
C736   C     0.53352   0.19193   0.97938   0.00000  Uiso   1.00
C737   C     0.46634   0.14152   0.97119   0.00000  Uiso   1.00
C738   C     0.53366   0.19182   0.69548   0.00000  Uiso   1.00
Cu739  Cu    0.50000   0.16667   0.88022   0.00000  Uiso   1.00
Cu740  Cu    0.50000   0.16666   0.78645   0.00000  Uiso   1.00
N741   N     0.50001   0.16668   0.95069   0.00000  Uiso   1.00
N742   N     0.49999   0.16666   0.71597   0.00000  Uiso   1.00
O743   O     0.50000   0.10655   0.87291   0.00000  Uiso   1.00
O744   O     0.50000   0.22678   0.79375   0.00000  Uiso   1.00
O745   O     0.50000   0.10654   0.79372   0.00000  Uiso   1.00
O746   O     0.50000   0.22679   0.87294   0.00000  Uiso   1.00
O747   O     0.42495   0.16667   0.86379   0.00000  Uiso   1.00
O748   O     0.57505   0.16666   0.80288   0.00000  Uiso   1.00
O749   O     0.42494   0.16666   0.78460   0.00000  Uiso   1.00
O750   O     0.57506   0.16667   0.88207   0.00000  Uiso   1.00
Cl751  Cl    0.65270   0.13051   0.76683   0.00000  Uiso   1.00
Cl752  Cl    0.34730   0.20283   0.89983   0.00000  Uiso   1.00
Br753  Br    0.53118   0.04556   0.73686   0.00000  Uiso   1.00
Br754  Br    0.46882   0.28777   0.92981   0.00000  Uiso   1.00
Br755  Br    0.47319   0.28844   0.72864   0.00000  Uiso   1.00
Br756  Br    0.52681   0.04490   0.93803   0.00000  Uiso   1.00
Cl757  Cl    0.42308   0.10756   0.71120   0.00000  Uiso   1.00
Cl758  Cl    0.57692   0.22577   0.95546   0.00000  Uiso   1.00
Cl759  Cl    0.42187   0.10852   0.93652   0.00000  Uiso   1.00
Cl760  Cl    0.57813   0.22481   0.73014   0.00000  Uiso   1.00
C761   C     0.83746   0.08759   0.83387   0.00000  Uiso   1.00
C762   C     0.82921   0.24575   0.83279   0.00000  Uiso   1.00
C763   C     0.73479   0.16612   0.82156   0.00000  Uiso   1.00
C764   C     0.93187   0.16721   0.84510   0.00000  Uiso   1.00
C765   C     0.67998   0.16046   0.81619   0.00000  Uiso   1.00
C766   C     0.98668   0.17287   0.85048   0.00000  Uiso   1.00
C767   C     0.84029   0.02107   0.79181   0.00000  Uiso   1.00
C768   C     0.82638   0.31227   0.87486   0.00000  Uiso   1.00
C769   C     0.82823   0.31249   0.79009   0.00000  Uiso   1.00
C770   C     0.83844   0.02084   0.87657   0.00000  Uiso   1.00
C771   C     0.82582   0.29057   0.83227   0.00000  Uiso   1.00
C772   C     0.84084   0.04277   0.83440   0.00000  Uiso   1.00
C773   C     0.79981   0.14140   0.68728   0.00000  Uiso   1.00
C774   C     0.86686   0.19193   0.97938   0.00000  Uiso   1.00
C775   C     0.79968   0.14152   0.97119   0.00000  Uiso   1.00
C776   C     0.86699   0.19182   0.69548   0.00000  Uiso   1.00
Cu777  Cu    0.83333   0.16667   0.88022   0.00000  Uiso   1.00
Cu778  Cu    0.83333   0.16666   0.78645   0.00000  Uiso   1.00
N779   N     0.83335   0.16668   0.95069   0.00000  Uiso   1.00
N780   N     0.83332   0.16666   0.71597   0.00000  Uiso   1.00
O781   O     0.83333   0.10655   0.87291   0.00000  Uiso   1.00
O782   O     0.83334   0.22678   0.79375   0.00000  Uiso   1.00
O783   O     0.83333   0.10654   0.79372   0.00000  Uiso   1.00
O784   O     0.83334   0.22679   0.87294   0.00000  Uiso   1.00
O785   O     0.75828   0.16667   0.86379   0.00000  Uiso   1.00
O786   O     0.90839   0.16666   0.80288   0.00000  Uiso   1.00
O787   O     0.75828   0.16666   0.78460   0.00000  Uiso   1.00
O788   O     0.90839   0.16667   0.88207   0.00000  Uiso   1.00
Cl789  Cl    0.98603   0.13051   0.76683   0.00000  Uiso   1.00
Cl790  Cl    0.68063   0.20283   0.89983   0.00000  Uiso   1.00
Br791  Br    0.86451   0.04556   0.73686   0.00000  Uiso   1.00
Br792  Br    0.80215   0.28777   0.92981   0.00000  Uiso   1.00
Br793  Br    0.80652   0.28844   0.72864   0.00000  Uiso   1.00
Br794  Br    0.86015   0.04490   0.93803   0.00000  Uiso   1.00
Cl795  Cl    0.75641   0.10756   0.71120   0.00000  Uiso   1.00
Cl796  Cl    0.91025   0.22577   0.95546   0.00000  Uiso   1.00
Cl797  Cl    0.75521   0.10852   0.93652   0.00000  Uiso   1.00
Cl798  Cl    0.91146   0.22481   0.73014   0.00000  Uiso   1.00
C799   C     0.17079   0.42092   0.83387   0.00000  Uiso   1.00
C800   C     0.16254   0.57908   0.83279   0.00000  Uiso   1.00
C801   C     0.06812   0.49946   0.82156   0.00000  Uiso   1.00
C802   C     0.26521   0.50054   0.84510   0.00000  Uiso   1.00
C803   C     0.01332   0.49379   0.81619   0.00000  Uiso   1.00
C804   C     0.32002   0.50621   0.85048   0.00000  Uiso   1.00
C805   C     0.17362   0.35440   0.79181   0.00000  Uiso   1.00
C806   C     0.15971   0.64560   0.87486   0.00000  Uiso   1.00
C807   C     0.16156   0.64583   0.79009   0.00000  Uiso   1.00
C808   C     0.17177   0.35417   0.87657   0.00000  Uiso   1.00
C809   C     0.15916   0.62390   0.83227   0.00000  Uiso   1.00
C810   C     0.17418   0.37610   0.83440   0.00000  Uiso   1.00
C811   C     0.13314   0.47473   0.68728   0.00000  Uiso   1.00
C812   C     0.20019   0.52526   0.97938   0.00000  Uiso   1.00
C813   C     0.13301   0.47485   0.97119   0.00000  Uiso   1.00
C814   C     0.20032   0.52515   0.69548   0.00000  Uiso   1.00
Cu815  Cu    0.16667   0.50001   0.88022   0.00000  Uiso   1.00
Cu816  Cu    0.16667   0.49999   0.78645   0.00000  Uiso   1.00
N817   N     0.16668   0.50001   0.95069   0.00000  Uiso   1.00
N818   N     0.16665   0.49999   0.71597   0.00000  Uiso   1.00
O819   O     0.16666   0.43989   0.87291   0.00000  Uiso   1.00
O820   O     0.16667   0.56011   0.79375   0.00000  Uiso   1.00
O821   O     0.16666   0.43988   0.79372   0.00000  Uiso   1.00
O822   O     0.16667   0.56012   0.87294   0.00000  Uiso   1.00
O823   O     0.09161   0.50000   0.86379   0.00000  Uiso   1.00
O824   O     0.24172   0.50000   0.80288   0.00000  Uiso   1.00
O825   O     0.09161   0.49999   0.78460   0.00000  Uiso   1.00
O826   O     0.24172   0.50001   0.88207   0.00000  Uiso   1.00
Cl827  Cl    0.31937   0.46384   0.76683   0.00000  Uiso   1.00
Cl828  Cl    0.01397   0.53616   0.89983   0.00000  Uiso   1.00
Br829  Br    0.19785   0.37890   0.73686   0.00000  Uiso   1.00
Br830  Br    0.13549   0.62110   0.92981   0.00000  Uiso   1.00
Br831  Br    0.13985   0.62177   0.72864   0.00000  Uiso   1.00
Br832  Br    0.19348   0.37823   0.93803   0.00000  Uiso   1.00
Cl833  Cl    0.08974   0.44090   0.71120   0.00000  Uiso   1.00
Cl834  Cl    0.24359   0.55910   0.95546   0.00000  Uiso   1.00
Cl835  Cl    0.08854   0.44186   0.93652   0.00000  Uiso   1.00
Cl836  Cl    0.24479   0.55814   0.73014   0.00000  Uiso   1.00
C837   C     0.50412   0.42092   0.83387   0.00000  Uiso   1.00
C838   C     0.49588   0.57908   0.83279   0.00000  Uiso   1.00
C839   C     0.40146   0.49946   0.82156   0.00000  Uiso   1.00
C840   C     0.59854   0.50054   0.84510   0.00000  Uiso   1.00
C841   C     0.34665   0.49379   0.81619   0.00000  Uiso   1.00
C842   C     0.65335   0.50621   0.85048   0.00000  Uiso   1.00
C843   C     0.50696   0.35440   0.79181   0.00000  Uiso   1.00
C844   C     0.49304   0.64560   0.87486   0.00000  Uiso   1.00
C845   C     0.49489   0.64583   0.79009   0.00000  Uiso   1.00
C846   C     0.50511   0.35417   0.87657   0.00000  Uiso   1.00
C847   C     0.49249   0.62390   0.83227   0.00000  Uiso   1.00
C848   C     0.50751   0.37610   0.83440   0.00000  Uiso   1.00
C849   C     0.46648   0.47473   0.68728   0.00000  Uiso   1.00
C850   C     0.53352   0.52526   0.97938   0.00000  Uiso   1.00
C851   C     0.46634   0.47485   0.97119   0.00000  Uiso   1.00
C852   C     0.53366   0.52515   0.69548   0.00000  Uiso   1.00
Cu853  Cu    0.50000   0.50001   0.88022   0.00000  Uiso   1.00
Cu854  Cu    0.50000   0.49999   0.78645   0.00000  Uiso   1.00
N855   N     0.50001   0.50001   0.95069   0.00000  Uiso   1.00
N856   N     0.49999   0.49999   0.71597   0.00000  Uiso   1.00
O857   O     0.50000   0.43989   0.87291   0.00000  Uiso   1.00
O858   O     0.50000   0.56011   0.79375   0.00000  Uiso   1.00
O859   O     0.50000   0.43988   0.79372   0.00000  Uiso   1.00
O860   O     0.50000   0.56012   0.87294   0.00000  Uiso   1.00
O861   O     0.42495   0.50000   0.86379   0.00000  Uiso   1.00
O862   O     0.57505   0.50000   0.80288   0.00000  Uiso   1.00
O863   O     0.42494   0.49999   0.78460   0.00000  Uiso   1.00
O864   O     0.57506   0.50001   0.88207   0.00000  Uiso   1.00
Cl865  Cl    0.65270   0.46384   0.76683   0.00000  Uiso   1.00
Cl866  Cl    0.34730   0.53616   0.89983   0.00000  Uiso   1.00
Br867  Br    0.53118   0.37890   0.73686   0.00000  Uiso   1.00
Br868  Br    0.46882   0.62110   0.92981   0.00000  Uiso   1.00
Br869  Br    0.47319   0.62177   0.72864   0.00000  Uiso   1.00
Br870  Br    0.52681   0.37823   0.93803   0.00000  Uiso   1.00
Cl871  Cl    0.42308   0.44090   0.71120   0.00000  Uiso   1.00
Cl872  Cl    0.57692   0.55910   0.95546   0.00000  Uiso   1.00
Cl873  Cl    0.42187   0.44186   0.93652   0.00000  Uiso   1.00
Cl874  Cl    0.57813   0.55814   0.73014   0.00000  Uiso   1.00
C875   C     0.83746   0.42092   0.83387   0.00000  Uiso   1.00
C876   C     0.82921   0.57908   0.83279   0.00000  Uiso   1.00
C877   C     0.73479   0.49946   0.82156   0.00000  Uiso   1.00
C878   C     0.93187   0.50054   0.84510   0.00000  Uiso   1.00
C879   C     0.67998   0.49379   0.81619   0.00000  Uiso   1.00
C880   C     0.98668   0.50621   0.85048   0.00000  Uiso   1.00
C881   C     0.84029   0.35440   0.79181   0.00000  Uiso   1.00
C882   C     0.82638   0.64560   0.87486   0.00000  Uiso   1.00
C883   C     0.82823   0.64583   0.79009   0.00000  Uiso   1.00
C884   C     0.83844   0.35417   0.87657   0.00000  Uiso   1.00
C885   C     0.82582   0.62390   0.83227   0.00000  Uiso   1.00
C886   C     0.84084   0.37610   0.83440   0.00000  Uiso   1.00
C887   C     0.79981   0.47473   0.68728   0.00000  Uiso   1.00
C888   C     0.86686   0.52526   0.97938   0.00000  Uiso   1.00
C889   C     0.79968   0.47485   0.97119   0.00000  Uiso   1.00
C890   C     0.86699   0.52515   0.69548   0.00000  Uiso   1.00
Cu891  Cu    0.83333   0.50001   0.88022   0.00000  Uiso   1.00
Cu892  Cu    0.83333   0.49999   0.78645   0.00000  Uiso   1.00
N893   N     0.83335   0.50001   0.95069   0.00000  Uiso   1.00
N894   N     0.83332   0.49999   0.71597   0.00000  Uiso   1.00
O895   O     0.83333   0.43989   0.87291   0.00000  Uiso   1.00
O896   O     0.83334   0.56011   0.79375   0.00000  Uiso   1.00
O897   O     0.83333   0.43988   0.79372   0.00000  Uiso   1.00
O898   O     0.83334   0.56012   0.87294   0.00000  Uiso   1.00
O899   O     0.75828   0.50000   0.86379   0.00000  Uiso   1.00
O900   O     0.90839   0.50000   0.80288   0.00000  Uiso   1.00
O901   O     0.75828   0.49999   0.78460   0.00000  Uiso   1.00
O902   O     0.90839   0.50001   0.88207   0.00000  Uiso   1.00
Cl903  Cl    0.98603   0.46384   0.76683   0.00000  Uiso   1.00
Cl904  Cl    0.68063   0.53616   0.89983   0.00000  Uiso   1.00
Br905  Br    0.86451   0.37890   0.73686   0.00000  Uiso   1.00
Br906  Br    0.80215   0.62110   0.92981   0.00000  Uiso   1.00
Br907  Br    0.80652   0.62177   0.72864   0.00000  Uiso   1.00
Br908  Br    0.86015   0.37823   0.93803   0.00000  Uiso   1.00
Cl909  Cl    0.75641   0.44090   0.71120   0.00000  Uiso   1.00
Cl910  Cl    0.91025   0.55910   0.95546   0.00000  Uiso   1.00
Cl911  Cl    0.75521   0.44186   0.93652   0.00000  Uiso   1.00
Cl912  Cl    0.91146   0.55814   0.73014   0.00000  Uiso   1.00
C913   C     0.17079   0.75425   0.83387   0.00000  Uiso   1.00
C914   C     0.16254   0.91241   0.83279   0.00000  Uiso   1.00
C915   C     0.06812   0.83279   0.82156   0.00000  Uiso   1.00
C916   C     0.26521   0.83387   0.84510   0.00000  Uiso   1.00
C917   C     0.01332   0.82713   0.81619   0.00000  Uiso   1.00
C918   C     0.32002   0.83954   0.85048   0.00000  Uiso   1.00
C919   C     0.17362   0.68773   0.79181   0.00000  Uiso   1.00
C920   C     0.15971   0.97893   0.87486   0.00000  Uiso   1.00
C921   C     0.16156   0.97916   0.79009   0.00000  Uiso   1.00
C922   C     0.17177   0.68751   0.87657   0.00000  Uiso   1.00
C923   C     0.15916   0.95723   0.83227   0.00000  Uiso   1.00
C924   C     0.17418   0.70943   0.83440   0.00000  Uiso   1.00
C925   C     0.13314   0.80807   0.68728   0.00000  Uiso   1.00
C926   C     0.20019   0.85860   0.97938   0.00000  Uiso   1.00
C927   C     0.13301   0.80818   0.97119   0.00000  Uiso   1.00
C928   C     0.20032   0.85848   0.69548   0.00000  Uiso   1.00
Cu929  Cu    0.16667   0.83334   0.88022   0.00000  Uiso   1.00
Cu930  Cu    0.16667   0.83333   0.78645   0.00000  Uiso   1.00
N931   N     0.16668   0.83334   0.95069   0.00000  Uiso   1.00
N932   N     0.16665   0.83332   0.71597   0.00000  Uiso   1.00
O933   O     0.16666   0.77322   0.87291   0.00000  Uiso   1.00
O934   O     0.16667   0.89345   0.79375   0.00000  Uiso   1.00
O935   O     0.16666   0.77321   0.79372   0.00000  Uiso   1.00
O936   O     0.16667   0.89346   0.87294   0.00000  Uiso   1.00
O937   O     0.09161   0.83334   0.86379   0.00000  Uiso   1.00
O938   O     0.24172   0.83333   0.80288   0.00000  Uiso   1.00
O939   O     0.09161   0.83333   0.78460   0.00000  Uiso   1.00
O940   O     0.24172   0.83334   0.88207   0.00000  Uiso   1.00
Cl941  Cl    0.31937   0.79717   0.76683   0.00000  Uiso   1.00
Cl942  Cl    0.01397   0.86949   0.89983   0.00000  Uiso   1.00
Br943  Br    0.19785   0.71223   0.73686   0.00000  Uiso   1.00
Br944  Br    0.13549   0.95444   0.92981   0.00000  Uiso   1.00
Br945  Br    0.13985   0.95510   0.72864   0.00000  Uiso   1.00
Br946  Br    0.19348   0.71156   0.93803   0.00000  Uiso   1.00
Cl947  Cl    0.08974   0.77423   0.71120   0.00000  Uiso   1.00
Cl948  Cl    0.24359   0.89244   0.95546   0.00000  Uiso   1.00
Cl949  Cl    0.08854   0.77519   0.93652   0.00000  Uiso   1.00
Cl950  Cl    0.24479   0.89148   0.73014   0.00000  Uiso   1.00
C951   C     0.50412   0.75425   0.83387   0.00000  Uiso   1.00
C952   C     0.49588   0.91241   0.83279   0.00000  Uiso   1.00
C953   C     0.40146   0.83279   0.82156   0.00000  Uiso   1.00
C954   C     0.59854   0.83387   0.84510   0.00000  Uiso   1.00
C955   C     0.34665   0.82713   0.81619   0.00000  Uiso   1.00
C956   C     0.65335   0.83954   0.85048   0.00000  Uiso   1.00
C957   C     0.50696   0.68773   0.79181   0.00000  Uiso   1.00
C958   C     0.49304   0.97893   0.87486   0.00000  Uiso   1.00
C959   C     0.49489   0.97916   0.79009   0.00000  Uiso   1.00
C960   C     0.50511   0.68751   0.87657   0.00000  Uiso   1.00
C961   C     0.49249   0.95723   0.83227   0.00000  Uiso   1.00
C962   C     0.50751   0.70943   0.83440   0.00000  Uiso   1.00
C963   C     0.46648   0.80807   0.68728   0.00000  Uiso   1.00
C964   C     0.53352   0.85860   0.97938   0.00000  Uiso   1.00
C965   C     0.46634   0.80818   0.97119   0.00000  Uiso   1.00
C966   C     0.53366   0.85848   0.69548   0.00000  Uiso   1.00
Cu967  Cu    0.50000   0.83334   0.88022   0.00000  Uiso   1.00
Cu968  Cu    0.50000   0.83333   0.78645   0.00000  Uiso   1.00
N969   N     0.50001   0.83334   0.95069   0.00000  Uiso   1.00
N970   N     0.49999   0.83332   0.71597   0.00000  Uiso   1.00
O971   O     0.50000   0.77322   0.87291   0.00000  Uiso   1.00
O972   O     0.50000   0.89345   0.79375   0.00000  Uiso   1.00
O973   O     0.50000   0.77321   0.79372   0.00000  Uiso   1.00
O974   O     0.50000   0.89346   0.87294   0.00000  Uiso   1.00
O975   O     0.42495   0.83334   0.86379   0.00000  Uiso   1.00
O976   O     0.57505   0.83333   0.80288   0.00000  Uiso   1.00
O977   O     0.42494   0.83333   0.78460   0.00000  Uiso   1.00
O978   O     0.57506   0.83334   0.88207   0.00000  Uiso   1.00
Cl979  Cl    0.65270   0.79717   0.76683   0.00000  Uiso   1.00
Cl980  Cl    0.34730   0.86949   0.89983   0.00000  Uiso   1.00
Br981  Br    0.53118   0.71223   0.73686   0.00000  Uiso   1.00
Br982  Br    0.46882   0.95444   0.92981   0.00000  Uiso   1.00
Br983  Br    0.47319   0.95510   0.72864   0.00000  Uiso   1.00
Br984  Br    0.52681   0.71156   0.93803   0.00000  Uiso   1.00
Cl985  Cl    0.42308   0.77423   0.71120   0.00000  Uiso   1.00
Cl986  Cl    0.57692   0.89244   0.95546   0.00000  Uiso   1.00
Cl987  Cl    0.42187   0.77519   0.93652   0.00000  Uiso   1.00
Cl988  Cl    0.57813   0.89148   0.73014   0.00000  Uiso   1.00
C989   C     0.83746   0.75425   0.83387   0.00000  Uiso   1.00
C990   C     0.82921   0.91241   0.83279   0.00000  Uiso   1.00
C991   C     0.73479   0.83279   0.82156   0.00000  Uiso   1.00
C992   C     0.93187   0.83387   0.84510   0.00000  Uiso   1.00
C993   C     0.67998   0.82713   0.81619   0.00000  Uiso   1.00
C994   C     0.98668   0.83954   0.85048   0.00000  Uiso   1.00
C995   C     0.84029   0.68773   0.79181   0.00000  Uiso   1.00
C996   C     0.82638   0.97893   0.87486   0.00000  Uiso   1.00
C997   C     0.82823   0.97916   0.79009   0.00000  Uiso   1.00
C998   C     0.83844   0.68751   0.87657   0.00000  Uiso   1.00
C999   C     0.82582   0.95723   0.83227   0.00000  Uiso   1.00
C1000  C     0.84084   0.70943   0.83440   0.00000  Uiso   1.00
C1001  C     0.79981   0.80807   0.68728   0.00000  Uiso   1.00
C1002  C     0.86686   0.85860   0.97938   0.00000  Uiso   1.00
C1003  C     0.79968   0.80818   0.97119   0.00000  Uiso   1.00
C1004  C     0.86699   0.85848   0.69548   0.00000  Uiso   1.00
Cu1005 Cu    0.83333   0.83334   0.88022   0.00000  Uiso   1.00
Cu1006 Cu    0.83333   0.83333   0.78645   0.00000  Uiso   1.00
N1007  N     0.83335   0.83334   0.95069   0.00000  Uiso   1.00
N1008  N     0.83332   0.83332   0.71597   0.00000  Uiso   1.00
O1009  O     0.83333   0.77322   0.87291   0.00000  Uiso   1.00
O1010  O     0.83334   0.89345   0.79375   0.00000  Uiso   1.00
O1011  O     0.83333   0.77321   0.79372   0.00000  Uiso   1.00
O1012  O     0.83334   0.89346   0.87294   0.00000  Uiso   1.00
O1013  O     0.75828   0.83334   0.86379   0.00000  Uiso   1.00
O1014  O     0.90839   0.83333   0.80288   0.00000  Uiso   1.00
O1015  O     0.75828   0.83333   0.78460   0.00000  Uiso   1.00
O1016  O     0.90839   0.83334   0.88207   0.00000  Uiso   1.00
Cl1017 Cl    0.98603   0.79717   0.76683   0.00000  Uiso   1.00
Cl1018 Cl    0.68063   0.86949   0.89983   0.00000  Uiso   1.00
Br1019 Br    0.86451   0.71223   0.73686   0.00000  Uiso   1.00
Br1020 Br    0.80215   0.95444   0.92981   0.00000  Uiso   1.00
Br1021 Br    0.80652   0.95510   0.72864   0.00000  Uiso   1.00
Br1022 Br    0.86015   0.71156   0.93803   0.00000  Uiso   1.00
Cl1023 Cl    0.75641   0.77423   0.71120   0.00000  Uiso   1.00
Cl1024 Cl    0.91025   0.89244   0.95546   0.00000  Uiso   1.00
Cl1025 Cl    0.75521   0.77519   0.93652   0.00000  Uiso   1.00
Cl1026 Cl    0.91146   0.89148   0.73014   0.00000  Uiso   1.00
loop_
_geom_bond_atom_site_label_1
_geom_bond_atom_site_label_2
_geom_bond_distance
_geom_bond_site_symmetry_2
_ccdc_geom_bond_type
C1     O21     1.302   .     A
C1     O23     1.302   .     A
C1     C12     1.472   .     S
C2     O22     1.302   .     A
C2     C11     1.472   .     S
C2     O24     1.302   .     A
C3     O27     1.298   .     A
C3     O25     1.286   .     A
C3     C5      1.436   .     S
C4     O26     1.286   .     A
C4     O28     1.298   .     A
C4     C6      1.436   .     S
C5     C82     1.356   1_455 S
C5     Cl105   1.777   1_455 S
C6     C43     1.356   .     S
C6     Cl68    1.777   .     S
C7     C12     1.413   .     A
C7     Br31    1.939   .     S
C7     C237    1.392   1_545 S
C8     C11     1.413   .     A
C8     Br32    1.939   .     S
C8     C124    1.392   .     S
C9     Br33    1.938   .     S
C9     C11     1.414   .     A
C9     C121    1.392   .     S
C10    Br34    1.938   .     S
C10    C12     1.414   .     A
C10    C236    1.392   1_545 S
C13    Cl35    1.761   .     S
C13    N20     1.373   .     A
C13    C699    1.419   1_554 S
C14    Cl36    1.761   .     S
C14    N19     1.373   .     A
C14    C358    1.419   .     S
C15    N19     1.373   .     A
C15    Cl37    1.764   .     S
C15    C355    1.419   .     S
C16    N20     1.373   .     A
C16    Cl38    1.764   .     S
C16    C698    1.419   1_554 S
Cu17   O25     1.971   .     S
Cu17   Cu18    2.693   .     S
Cu17   O24     1.976   .     S
Cu17   N19     2.024   .     S
Cu17   O28     1.972   .     S
Cu17   O21     1.977   .     S
Cu18   O26     1.971   .     S
Cu18   O23     1.976   .     S
Cu18   N20     2.024   .     S
Cu18   O22     1.977   .     S
Cu18   O27     1.972   .     S
Cl29   C43     1.777   .     S
Cl30   C82     1.777   1_455 S
C39    O59     1.302   .     A
C39    O61     1.302   .     A
C39    C50     1.472   .     S
C40    O60     1.302   .     A
C40    C49     1.472   .     S
C40    O62     1.302   .     A
C41    O65     1.298   .     A
C41    O63     1.286   .     A
C41    C43     1.436   .     S
C42    O64     1.286   .     A
C42    O66     1.298   .     A
C42    C44     1.436   .     S
C44    C81     1.356   .     S
C44    Cl106   1.777   .     S
C45    C50     1.413   .     A
C45    Br69    1.939   .     S
C45    C275    1.392   1_545 S
C46    C49     1.413   .     A
C46    Br70    1.939   .     S
C46    C162    1.392   .     S
C47    Br71    1.938   .     S
C47    C49     1.414   .     A
C47    C159    1.392   .     S
C48    Br72    1.938   .     S
C48    C50     1.414   .     A
C48    C274    1.392   1_545 S
C51    Cl73    1.761   .     S
C51    N58     1.373   .     A
C51    C737    1.419   1_554 S
C52    Cl74    1.761   .     S
C52    N57     1.373   .     A
C52    C396    1.419   .     S
C53    N57     1.373   .     A
C53    Cl75    1.764   .     S
C53    C393    1.419   .     S
C54    N58     1.373   .     A
C54    Cl76    1.764   .     S
C54    C736    1.419   1_554 S
Cu55   O63     1.971   .     S
Cu55   Cu56    2.693   .     S
Cu55   O62     1.976   .     S
Cu55   N57     2.024   .     S
Cu55   O66     1.972   .     S
Cu55   O59     1.977   .     S
Cu56   O64     1.971   .     S
Cu56   O61     1.976   .     S
Cu56   N58     2.024   .     S
Cu56   O60     1.977   .     S
Cu56   O65     1.972   .     S
Cl67   C81     1.777   .     S
C77    O97     1.302   .     A
C77    O99     1.302   .     A
C77    C88     1.472   .     S
C78    O98     1.302   .     A
C78    C87     1.472   .     S
C78    O100    1.302   .     A
C79    O103    1.298   .     A
C79    O101    1.286   .     A
C79    C81     1.436   .     S
C80    O102    1.286   .     A
C80    O104    1.298   .     A
C80    C82     1.436   .     S
C82    C5      1.356   1_655 S
C82    Cl30    1.777   1_655 S
C83    C88     1.413   .     A
C83    Br107   1.939   .     S
C83    C313    1.392   1_545 S
C84    C87     1.413   .     A
C84    Br108   1.939   .     S
C84    C200    1.392   .     S
C85    Br109   1.938   .     S
C85    C87     1.414   .     A
C85    C197    1.392   .     S
C86    Br110   1.938   .     S
C86    C88     1.414   .     A
C86    C312    1.392   1_545 S
C89    Cl111   1.761   .     S
C89    N96     1.373   .     A
C89    C775    1.419   1_554 S
C90    Cl112   1.761   .     S
C90    N95     1.373   .     A
C90    C434    1.419   .     S
C91    N95     1.373   .     A
C91    Cl113   1.764   .     S
C91    C431    1.419   .     S
C92    N96     1.373   .     A
C92    Cl114   1.764   .     S
C92    C774    1.419   1_554 S
Cu93   O101    1.971   .     S
Cu93   Cu94    2.693   .     S
Cu93   O100    1.976   .     S
Cu93   N95     2.024   .     S
Cu93   O104    1.972   .     S
Cu93   O97     1.977   .     S
Cu94   O102    1.971   .     S
Cu94   O99     1.976   .     S
Cu94   N96     2.024   .     S
Cu94   O98     1.977   .     S
Cu94   O103    1.972   .     S
Cl105  C5      1.777   1_655 S
C115   O135    1.302   .     A
C115   O137    1.302   .     A
C115   C126    1.472   .     S
C116   O136    1.302   .     A
C116   C125    1.472   .     S
C116   O138    1.302   .     A
C117   O141    1.298   .     A
C117   O139    1.286   .     A
C117   C119    1.436   .     S
C118   O140    1.286   .     A
C118   O142    1.298   .     A
C118   C120    1.436   .     S
C119   C196    1.356   1_455 S
C119   Cl219   1.777   1_455 S
C120   C157    1.356   .     S
C120   Cl182   1.777   .     S
C121   C126    1.413   .     A
C121   Br145   1.939   .     S
C122   C125    1.413   .     A
C122   Br146   1.939   .     S
C122   C238    1.392   .     S
C123   Br147   1.938   .     S
C123   C125    1.414   .     A
C123   C235    1.392   .     S
C124   Br148   1.938   .     S
C124   C126    1.414   .     A
C127   Cl149   1.761   .     S
C127   N134    1.373   .     A
C127   C813    1.419   1_554 S
C128   Cl150   1.761   .     S
C128   N133    1.373   .     A
C128   C472    1.419   .     S
C129   N133    1.373   .     A
C129   Cl151   1.764   .     S
C129   C469    1.419   .     S
C130   N134    1.373   .     A
C130   Cl152   1.764   .     S
C130   C812    1.419   1_554 S
Cu131  O139    1.971   .     S
Cu131  Cu132   2.693   .     S
Cu131  O138    1.976   .     S
Cu131  N133    2.024   .     S
Cu131  O142    1.972   .     S
Cu131  O135    1.977   .     S
Cu132  O140    1.971   .     S
Cu132  O137    1.976   .     S
Cu132  N134    2.024   .     S
Cu132  O136    1.977   .     S
Cu132  O141    1.972   .     S
Cl143  C157    1.777   .     S
Cl144  C196    1.777   1_455 S
C153   O173    1.302   .     A
C153   O175    1.302   .     A
C153   C164    1.472   .     S
C154   O174    1.302   .     A
C154   C163    1.472   .     S
C154   O176    1.302   .     A
C155   O179    1.298   .     A
C155   O177    1.286   .     A
C155   C157    1.436   .     S
C156   O178    1.286   .     A
C156   O180    1.298   .     A
C156   C158    1.436   .     S
C158   C195    1.356   .     S
C158   Cl220   1.777   .     S
C159   C164    1.413   .     A
C159   Br183   1.939   .     S
C160   C163    1.413   .     A
C160   Br184   1.939   .     S
C160   C276    1.392   .     S
C161   Br185   1.938   .     S
C161   C163    1.414   .     A
C161   C273    1.392   .     S
C162   Br186   1.938   .     S
C162   C164    1.414   .     A
C165   Cl187   1.761   .     S
C165   N172    1.373   .     A
C165   C851    1.419   1_554 S
C166   Cl188   1.761   .     S
C166   N171    1.373   .     A
C166   C510    1.419   .     S
C167   N171    1.373   .     A
C167   Cl189   1.764   .     S
C167   C507    1.419   .     S
C168   N172    1.373   .     A
C168   Cl190   1.764   .     S
C168   C850    1.419   1_554 S
Cu169  O177    1.971   .     S
Cu169  Cu170   2.693   .     S
Cu169  O176    1.976   .     S
Cu169  N171    2.024   .     S
Cu169  O180    1.972   .     S
Cu169  O173    1.977   .     S
Cu170  O178    1.971   .     S
Cu170  O175    1.976   .     S
Cu170  N172    2.024   .     S
Cu170  O174    1.977   .     S
Cu170  O179    1.972   .     S
Cl181  C195    1.777   .     S
C191   O211    1.302   .     A
C191   O213    1.302   .     A
C191   C202    1.472   .     S
C192   O212    1.302   .     A
C192   C201    1.472   .     S
C192   O214    1.302   .     A
C193   O217    1.298   .     A
C193   O215    1.286   .     A
C193   C195    1.436   .     S
C194   O216    1.286   .     A
C194   O218    1.298   .     A
C194   C196    1.436   .     S
C196   C119    1.356   1_655 S
C196   Cl144   1.777   1_655 S
C197   C202    1.413   .     A
C197   Br221   1.939   .     S
C198   C201    1.413   .     A
C198   Br222   1.939   .     S
C198   C314    1.392   .     S
C199   Br223   1.938   .     S
C199   C201    1.414   .     A
C199   C311    1.392   .     S
C200   Br224   1.938   .     S
C200   C202    1.414   .     A
C203   Cl225   1.761   .     S
C203   N210    1.373   .     A
C203   C889    1.419   1_554 S
C204   Cl226   1.761   .     S
C204   N209    1.373   .     A
C204   C548    1.419   .     S
C205   N209    1.373   .     A
C205   Cl227   1.764   .     S
C205   C545    1.419   .     S
C206   N210    1.373   .     A
C206   Cl228   1.764   .     S
C206   C888    1.419   1_554 S
Cu207  O215    1.971   .     S
Cu207  Cu208   2.693   .     S
Cu207  O214    1.976   .     S
Cu207  N209    2.024   .     S
Cu207  O218    1.972   .     S
Cu207  O211    1.977   .     S
Cu208  O216    1.971   .     S
Cu208  O213    1.976   .     S
Cu208  N210    2.024   .     S
Cu208  O212    1.977   .     S
Cu208  O217    1.972   .     S
Cl219  C119    1.777   1_655 S
C229   O249    1.302   .     A
C229   O251    1.302   .     A
C229   C240    1.472   .     S
C230   O250    1.302   .     A
C230   C239    1.472   .     S
C230   O252    1.302   .     A
C231   O255    1.298   .     A
C231   O253    1.286   .     A
C231   C233    1.436   .     S
C232   O254    1.286   .     A
C232   O256    1.298   .     A
C232   C234    1.436   .     S
C233   C310    1.356   1_455 S
C233   Cl333   1.777   1_455 S
C234   C271    1.356   .     S
C234   Cl296   1.777   .     S
C235   C240    1.413   .     A
C235   Br259   1.939   .     S
C236   C239    1.413   .     A
C236   Br260   1.939   .     S
C236   C10     1.392   1_565 S
C237   Br261   1.938   .     S
C237   C239    1.414   .     A
C237   C7      1.392   1_565 S
C238   Br262   1.938   .     S
C238   C240    1.414   .     A
C241   Cl263   1.761   .     S
C241   N248    1.373   .     A
C241   C927    1.419   1_554 S
C242   Cl264   1.761   .     S
C242   N247    1.373   .     A
C242   C586    1.419   .     S
C243   N247    1.373   .     A
C243   Cl265   1.764   .     S
C243   C583    1.419   .     S
C244   N248    1.373   .     A
C244   Cl266   1.764   .     S
C244   C926    1.419   1_554 S
Cu245  O253    1.971   .     S
Cu245  Cu246   2.693   .     S
Cu245  O252    1.976   .     S
Cu245  N247    2.024   .     S
Cu245  O256    1.972   .     S
Cu245  O249    1.977   .     S
Cu246  O254    1.971   .     S
Cu246  O251    1.976   .     S
Cu246  N248    2.024   .     S
Cu246  O250    1.977   .     S
Cu246  O255    1.972   .     S
Cl257  C271    1.777   .     S
Cl258  C310    1.777   1_455 S
C267   O287    1.302   .     A
C267   O289    1.302   .     A
C267   C278    1.472   .     S
C268   O288    1.302   .     A
C268   C277    1.472   .     S
C268   O290    1.302   .     A
C269   O293    1.298   .     A
C269   O291    1.286   .     A
C269   C271    1.436   .     S
C270   O292    1.286   .     A
C270   O294    1.298   .     A
C270   C272    1.436   .     S
C272   C309    1.356   .     S
C272   Cl334   1.777   .     S
C273   C278    1.413   .     A
C273   Br297   1.939   .     S
C274   C277    1.413   .     A
C274   Br298   1.939   .     S
C274   C48     1.392   1_565 S
C275   Br299   1.938   .     S
C275   C277    1.414   .     A
C275   C45     1.392   1_565 S
C276   Br300   1.938   .     S
C276   C278    1.414   .     A
C279   Cl301   1.761   .     S
C279   N286    1.373   .     A
C279   C965    1.419   1_554 S
C280   Cl302   1.761   .     S
C280   N285    1.373   .     A
C280   C624    1.419   .     S
C281   N285    1.373   .     A
C281   Cl303   1.764   .     S
C281   C621    1.419   .     S
C282   N286    1.373   .     A
C282   Cl304   1.764   .     S
C282   C964    1.419   1_554 S
Cu283  O291    1.971   .     S
Cu283  Cu284   2.693   .     S
Cu283  O290    1.976   .     S
Cu283  N285    2.024   .     S
Cu283  O294    1.972   .     S
Cu283  O287    1.977   .     S
Cu284  O292    1.971   .     S
Cu284  O289    1.976   .     S
Cu284  N286    2.024   .     S
Cu284  O288    1.977   .     S
Cu284  O293    1.972   .     S
Cl295  C309    1.777   .     S
C305   O325    1.302   .     A
C305   O327    1.302   .     A
C305   C316    1.472   .     S
C306   O326    1.302   .     A
C306   C315    1.472   .     S
C306   O328    1.302   .     A
C307   O331    1.298   .     A
C307   O329    1.286   .     A
C307   C309    1.436   .     S
C308   O330    1.286   .     A
C308   O332    1.298   .     A
C308   C310    1.436   .     S
C310   C233    1.356   1_655 S
C310   Cl258   1.777   1_655 S
C311   C316    1.413   .     A
C311   Br335   1.939   .     S
C312   C315    1.413   .     A
C312   Br336   1.939   .     S
C312   C86     1.392   1_565 S
C313   Br337   1.938   .     S
C313   C315    1.414   .     A
C313   C83     1.392   1_565 S
C314   Br338   1.938   .     S
C314   C316    1.414   .     A
C317   Cl339   1.761   .     S
C317   N324    1.373   .     A
C317   C1003   1.419   1_554 S
C318   Cl340   1.761   .     S
C318   N323    1.373   .     A
C318   C662    1.419   .     S
C319   N323    1.373   .     A
C319   Cl341   1.764   .     S
C319   C659    1.419   .     S
C320   N324    1.373   .     A
C320   Cl342   1.764   .     S
C320   C1002   1.419   1_554 S
Cu321  O329    1.971   .     S
Cu321  Cu322   2.693   .     S
Cu321  O328    1.976   .     S
Cu321  N323    2.024   .     S
Cu321  O332    1.972   .     S
Cu321  O325    1.977   .     S
Cu322  O330    1.971   .     S
Cu322  O327    1.976   .     S
Cu322  N324    2.024   .     S
Cu322  O326    1.977   .     S
Cu322  O331    1.972   .     S
Cl333  C233    1.777   1_655 S
C343   O363    1.302   .     A
C343   O365    1.302   .     A
C343   C354    1.472   .     S
C344   O364    1.302   .     A
C344   C353    1.472   .     S
C344   O366    1.302   .     A
C345   O369    1.298   .     A
C345   O367    1.286   .     A
C345   C347    1.436   .     S
C346   O368    1.286   .     A
C346   O370    1.298   .     A
C346   C348    1.436   .     S
C347   C424    1.356   1_455 S
C347   Cl447   1.777   1_455 S
C348   C385    1.356   .     S
C348   Cl410   1.777   .     S
C349   C354    1.413   .     A
C349   Br373   1.939   .     S
C349   C579    1.392   1_545 S
C350   C353    1.413   .     A
C350   Br374   1.939   .     S
C350   C466    1.392   .     S
C351   Br375   1.938   .     S
C351   C353    1.414   .     A
C351   C463    1.392   .     S
C352   Br376   1.938   .     S
C352   C354    1.414   .     A
C352   C578    1.392   1_545 S
C355   Cl377   1.761   .     S
C355   N362    1.373   .     A
C356   Cl378   1.761   .     S
C356   N361    1.373   .     A
C356   C700    1.419   .     S
C357   N361    1.373   .     A
C357   Cl379   1.764   .     S
C357   C697    1.419   .     S
C358   N362    1.373   .     A
C358   Cl380   1.764   .     S
Cu359  O367    1.971   .     S
Cu359  Cu360   2.693   .     S
Cu359  O366    1.976   .     S
Cu359  N361    2.024   .     S
Cu359  O370    1.972   .     S
Cu359  O363    1.977   .     S
Cu360  O368    1.971   .     S
Cu360  O365    1.976   .     S
Cu360  N362    2.024   .     S
Cu360  O364    1.977   .     S
Cu360  O369    1.972   .     S
Cl371  C385    1.777   .     S
Cl372  C424    1.777   1_455 S
C381   O401    1.302   .     A
C381   O403    1.302   .     A
C381   C392    1.472   .     S
C382   O402    1.302   .     A
C382   C391    1.472   .     S
C382   O404    1.302   .     A
C383   O407    1.298   .     A
C383   O405    1.286   .     A
C383   C385    1.436   .     S
C384   O406    1.286   .     A
C384   O408    1.298   .     A
C384   C386    1.436   .     S
C386   C423    1.356   .     S
C386   Cl448   1.777   .     S
C387   C392    1.413   .     A
C387   Br411   1.939   .     S
C387   C617    1.392   1_545 S
C388   C391    1.413   .     A
C388   Br412   1.939   .     S
C388   C504    1.392   .     S
C389   Br413   1.938   .     S
C389   C391    1.414   .     A
C389   C501    1.392   .     S
C390   Br414   1.938   .     S
C390   C392    1.414   .     A
C390   C616    1.392   1_545 S
C393   Cl415   1.761   .     S
C393   N400    1.373   .     A
C394   Cl416   1.761   .     S
C394   N399    1.373   .     A
C394   C738    1.419   .     S
C395   N399    1.373   .     A
C395   Cl417   1.764   .     S
C395   C735    1.419   .     S
C396   N400    1.373   .     A
C396   Cl418   1.764   .     S
Cu397  O405    1.971   .     S
Cu397  Cu398   2.693   .     S
Cu397  O404    1.976   .     S
Cu397  N399    2.024   .     S
Cu397  O408    1.972   .     S
Cu397  O401    1.977   .     S
Cu398  O406    1.971   .     S
Cu398  O403    1.976   .     S
Cu398  N400    2.024   .     S
Cu398  O402    1.977   .     S
Cu398  O407    1.972   .     S
Cl409  C423    1.777   .     S
C419   O439    1.302   .     A
C419   O441    1.302   .     A
C419   C430    1.472   .     S
C420   O440    1.302   .     A
C420   C429    1.472   .     S
C420   O442    1.302   .     A
C421   O445    1.298   .     A
C421   O443    1.286   .     A
C421   C423    1.436   .     S
C422   O444    1.286   .     A
C422   O446    1.298   .     A
C422   C424    1.436   .     S
C424   C347    1.356   1_655 S
C424   Cl372   1.777   1_655 S
C425   C430    1.413   .     A
C425   Br449   1.939   .     S
C425   C655    1.392   1_545 S
C426   C429    1.413   .     A
C426   Br450   1.939   .     S
C426   C542    1.392   .     S
C427   Br451   1.938   .     S
C427   C429    1.414   .     A
C427   C539    1.392   .     S
C428   Br452   1.938   .     S
C428   C430    1.414   .     A
C428   C654    1.392   1_545 S
C431   Cl453   1.761   .     S
C431   N438    1.373   .     A
C432   Cl454   1.761   .     S
C432   N437    1.373   .     A
C432   C776    1.419   .     S
C433   N437    1.373   .     A
C433   Cl455   1.764   .     S
C433   C773    1.419   .     S
C434   N438    1.373   .     A
C434   Cl456   1.764   .     S
Cu435  O443    1.971   .     S
Cu435  Cu436   2.693   .     S
Cu435  O442    1.976   .     S
Cu435  N437    2.024   .     S
Cu435  O446    1.972   .     S
Cu435  O439    1.977   .     S
Cu436  O444    1.971   .     S
Cu436  O441    1.976   .     S
Cu436  N438    2.024   .     S
Cu436  O440    1.977   .     S
Cu436  O445    1.972   .     S
Cl447  C347    1.777   1_655 S
C457   O477    1.302   .     A
C457   O479    1.302   .     A
C457   C468    1.472   .     S
C458   O478    1.302   .     A
C458   C467    1.472   .     S
C458   O480    1.302   .     A
C459   O483    1.298   .     A
C459   O481    1.286   .     A
C459   C461    1.436   .     S
C460   O482    1.286   .     A
C460   O484    1.298   .     A
C460   C462    1.436   .     S
C461   C538    1.356   1_455 S
C461   Cl561   1.777   1_455 S
C462   C499    1.356   .     S
C462   Cl524   1.777   .     S
C463   C468    1.413   .     A
C463   Br487   1.939   .     S
C464   C467    1.413   .     A
C464   Br488   1.939   .     S
C464   C580    1.392   .     S
C465   Br489   1.938   .     S
C465   C467    1.414   .     A
C465   C577    1.392   .     S
C466   Br490   1.938   .     S
C466   C468    1.414   .     A
C469   Cl491   1.761   .     S
C469   N476    1.373   .     A
C470   Cl492   1.761   .     S
C470   N475    1.373   .     A
C470   C814    1.419   .     S
C471   N475    1.373   .     A
C471   Cl493   1.764   .     S
C471   C811    1.419   .     S
C472   N476    1.373   .     A
C472   Cl494   1.764   .     S
Cu473  O481    1.971   .     S
Cu473  Cu474   2.693   .     S
Cu473  O480    1.976   .     S
Cu473  N475    2.024   .     S
Cu473  O484    1.972   .     S
Cu473  O477    1.977   .     S
Cu474  O482    1.971   .     S
Cu474  O479    1.976   .     S
Cu474  N476    2.024   .     S
Cu474  O478    1.977   .     S
Cu474  O483    1.972   .     S
Cl485  C499    1.777   .     S
Cl486  C538    1.777   1_455 S
C495   O515    1.302   .     A
C495   O517    1.302   .     A
C495   C506    1.472   .     S
C496   O516    1.302   .     A
C496   C505    1.472   .     S
C496   O518    1.302   .     A
C497   O521    1.298   .     A
C497   O519    1.286   .     A
C497   C499    1.436   .     S
C498   O520    1.286   .     A
C498   O522    1.298   .     A
C498   C500    1.436   .     S
C500   C537    1.356   .     S
C500   Cl562   1.777   .     S
C501   C506    1.413   .     A
C501   Br525   1.939   .     S
C502   C505    1.413   .     A
C502   Br526   1.939   .     S
C502   C618    1.392   .     S
C503   Br527   1.938   .     S
C503   C505    1.414   .     A
C503   C615    1.392   .     S
C504   Br528   1.938   .     S
C504   C506    1.414   .     A
C507   Cl529   1.761   .     S
C507   N514    1.373   .     A
C508   Cl530   1.761   .     S
C508   N513    1.373   .     A
C508   C852    1.419   .     S
C509   N513    1.373   .     A
C509   Cl531   1.764   .     S
C509   C849    1.419   .     S
C510   N514    1.373   .     A
C510   Cl532   1.764   .     S
Cu511  O519    1.971   .     S
Cu511  Cu512   2.693   .     S
Cu511  O518    1.976   .     S
Cu511  N513    2.024   .     S
Cu511  O522    1.972   .     S
Cu511  O515    1.977   .     S
Cu512  O520    1.971   .     S
Cu512  O517    1.976   .     S
Cu512  N514    2.024   .     S
Cu512  O516    1.977   .     S
Cu512  O521    1.972   .     S
Cl523  C537    1.777   .     S
C533   O553    1.302   .     A
C533   O555    1.302   .     A
C533   C544    1.472   .     S
C534   O554    1.302   .     A
C534   C543    1.472   .     S
C534   O556    1.302   .     A
C535   O559    1.298   .     A
C535   O557    1.286   .     A
C535   C537    1.436   .     S
C536   O558    1.286   .     A
C536   O560    1.298   .     A
C536   C538    1.436   .     S
C538   C461    1.356   1_655 S
C538   Cl486   1.777   1_655 S
C539   C544    1.413   .     A
C539   Br563   1.939   .     S
C540   C543    1.413   .     A
C540   Br564   1.939   .     S
C540   C656    1.392   .     S
C541   Br565   1.938   .     S
C541   C543    1.414   .     A
C541   C653    1.392   .     S
C542   Br566   1.938   .     S
C542   C544    1.414   .     A
C545   Cl567   1.761   .     S
C545   N552    1.373   .     A
C546   Cl568   1.761   .     S
C546   N551    1.373   .     A
C546   C890    1.419   .     S
C547   N551    1.373   .     A
C547   Cl569   1.764   .     S
C547   C887    1.419   .     S
C548   N552    1.373   .     A
C548   Cl570   1.764   .     S
Cu549  O557    1.971   .     S
Cu549  Cu550   2.693   .     S
Cu549  O556    1.976   .     S
Cu549  N551    2.024   .     S
Cu549  O560    1.972   .     S
Cu549  O553    1.977   .     S
Cu550  O558    1.971   .     S
Cu550  O555    1.976   .     S
Cu550  N552    2.024   .     S
Cu550  O554    1.977   .     S
Cu550  O559    1.972   .     S
Cl561  C461    1.777   1_655 S
C571   O591    1.302   .     A
C571   O593    1.302   .     A
C571   C582    1.472   .     S
C572   O592    1.302   .     A
C572   C581    1.472   .     S
C572   O594    1.302   .     A
C573   O597    1.298   .     A
C573   O595    1.286   .     A
C573   C575    1.436   .     S
C574   O596    1.286   .     A
C574   O598    1.298   .     A
C574   C576    1.436   .     S
C575   C652    1.356   1_455 S
C575   Cl675   1.777   1_455 S
C576   C613    1.356   .     S
C576   Cl638   1.777   .     S
C577   C582    1.413   .     A
C577   Br601   1.939   .     S
C578   C581    1.413   .     A
C578   Br602   1.939   .     S
C578   C352    1.392   1_565 S
C579   Br603   1.938   .     S
C579   C581    1.414   .     A
C579   C349    1.392   1_565 S
C580   Br604   1.938   .     S
C580   C582    1.414   .     A
C583   Cl605   1.761   .     S
C583   N590    1.373   .     A
C584   Cl606   1.761   .     S
C584   N589    1.373   .     A
C584   C928    1.419   .     S
C585   N589    1.373   .     A
C585   Cl607   1.764   .     S
C585   C925    1.419   .     S
C586   N590    1.373   .     A
C586   Cl608   1.764   .     S
Cu587  O595    1.971   .     S
Cu587  Cu588   2.693   .     S
Cu587  O594    1.976   .     S
Cu587  N589    2.024   .     S
Cu587  O598    1.972   .     S
Cu587  O591    1.977   .     S
Cu588  O596    1.971   .     S
Cu588  O593    1.976   .     S
Cu588  N590    2.024   .     S
Cu588  O592    1.977   .     S
Cu588  O597    1.972   .     S
Cl599  C613    1.777   .     S
Cl600  C652    1.777   1_455 S
C609   O629    1.302   .     A
C609   O631    1.302   .     A
C609   C620    1.472   .     S
C610   O630    1.302   .     A
C610   C619    1.472   .     S
C610   O632    1.302   .     A
C611   O635    1.298   .     A
C611   O633    1.286   .     A
C611   C613    1.436   .     S
C612   O634    1.286   .     A
C612   O636    1.298   .     A
C612   C614    1.436   .     S
C614   C651    1.356   .     S
C614   Cl676   1.777   .     S
C615   C620    1.413   .     A
C615   Br639   1.939   .     S
C616   C619    1.413   .     A
C616   Br640   1.939   .     S
C616   C390    1.392   1_565 S
C617   Br641   1.938   .     S
C617   C619    1.414   .     A
C617   C387    1.392   1_565 S
C618   Br642   1.938   .     S
C618   C620    1.414   .     A
C621   Cl643   1.761   .     S
C621   N628    1.373   .     A
C622   Cl644   1.761   .     S
C622   N627    1.373   .     A
C622   C966    1.419   .     S
C623   N627    1.373   .     A
C623   Cl645   1.764   .     S
C623   C963    1.419   .     S
C624   N628    1.373   .     A
C624   Cl646   1.764   .     S
Cu625  O633    1.971   .     S
Cu625  Cu626   2.693   .     S
Cu625  O632    1.976   .     S
Cu625  N627    2.024   .     S
Cu625  O636    1.972   .     S
Cu625  O629    1.977   .     S
Cu626  O634    1.971   .     S
Cu626  O631    1.976   .     S
Cu626  N628    2.024   .     S
Cu626  O630    1.977   .     S
Cu626  O635    1.972   .     S
Cl637  C651    1.777   .     S
C647   O667    1.302   .     A
C647   O669    1.302   .     A
C647   C658    1.472   .     S
C648   O668    1.302   .     A
C648   C657    1.472   .     S
C648   O670    1.302   .     A
C649   O673    1.298   .     A
C649   O671    1.286   .     A
C649   C651    1.436   .     S
C650   O672    1.286   .     A
C650   O674    1.298   .     A
C650   C652    1.436   .     S
C652   C575    1.356   1_655 S
C652   Cl600   1.777   1_655 S
C653   C658    1.413   .     A
C653   Br677   1.939   .     S
C654   C657    1.413   .     A
C654   Br678   1.939   .     S
C654   C428    1.392   1_565 S
C655   Br679   1.938   .     S
C655   C657    1.414   .     A
C655   C425    1.392   1_565 S
C656   Br680   1.938   .     S
C656   C658    1.414   .     A
C659   Cl681   1.761   .     S
C659   N666    1.373   .     A
C660   Cl682   1.761   .     S
C660   N665    1.373   .     A
C660   C1004   1.419   .     S
C661   N665    1.373   .     A
C661   Cl683   1.764   .     S
C661   C1001   1.419   .     S
C662   N666    1.373   .     A
C662   Cl684   1.764   .     S
Cu663  O671    1.971   .     S
Cu663  Cu664   2.693   .     S
Cu663  O670    1.976   .     S
Cu663  N665    2.024   .     S
Cu663  O674    1.972   .     S
Cu663  O667    1.977   .     S
Cu664  O672    1.971   .     S
Cu664  O669    1.976   .     S
Cu664  N666    2.024   .     S
Cu664  O668    1.977   .     S
Cu664  O673    1.972   .     S
Cl675  C575    1.777   1_655 S
C685   O705    1.302   .     A
C685   O707    1.302   .     A
C685   C696    1.472   .     S
C686   O706    1.302   .     A
C686   C695    1.472   .     S
C686   O708    1.302   .     A
C687   O711    1.298   .     A
C687   O709    1.286   .     A
C687   C689    1.436   .     S
C688   O710    1.286   .     A
C688   O712    1.298   .     A
C688   C690    1.436   .     S
C689   C766    1.356   1_455 S
C689   Cl789   1.777   1_455 S
C690   C727    1.356   .     S
C690   Cl752   1.777   .     S
C691   C696    1.413   .     A
C691   Br715   1.939   .     S
C691   C921    1.392   1_545 S
C692   C695    1.413   .     A
C692   Br716   1.939   .     S
C692   C808    1.392   .     S
C693   Br717   1.938   .     S
C693   C695    1.414   .     A
C693   C805    1.392   .     S
C694   Br718   1.938   .     S
C694   C696    1.414   .     A
C694   C920    1.392   1_545 S
C697   Cl719   1.761   .     S
C697   N704    1.373   .     A
C698   Cl720   1.761   .     S
C698   N703    1.373   .     A
C698   C16     1.419   1_556 S
C699   N703    1.373   .     A
C699   Cl721   1.764   .     S
C699   C13     1.419   1_556 S
C700   N704    1.373   .     A
C700   Cl722   1.764   .     S
Cu701  O709    1.971   .     S
Cu701  Cu702   2.693   .     S
Cu701  O708    1.976   .     S
Cu701  N703    2.024   .     S
Cu701  O712    1.972   .     S
Cu701  O705    1.977   .     S
Cu702  O710    1.971   .     S
Cu702  O707    1.976   .     S
Cu702  N704    2.024   .     S
Cu702  O706    1.977   .     S
Cu702  O711    1.972   .     S
Cl713  C727    1.777   .     S
Cl714  C766    1.777   1_455 S
C723   O743    1.302   .     A
C723   O745    1.302   .     A
C723   C734    1.472   .     S
C724   O744    1.302   .     A
C724   C733    1.472   .     S
C724   O746    1.302   .     A
C725   O749    1.298   .     A
C725   O747    1.286   .     A
C725   C727    1.436   .     S
C726   O748    1.286   .     A
C726   O750    1.298   .     A
C726   C728    1.436   .     S
C728   C765    1.356   .     S
C728   Cl790   1.777   .     S
C729   C734    1.413   .     A
C729   Br753   1.939   .     S
C729   C959    1.392   1_545 S
C730   C733    1.413   .     A
C730   Br754   1.939   .     S
C730   C846    1.392   .     S
C731   Br755   1.938   .     S
C731   C733    1.414   .     A
C731   C843    1.392   .     S
C732   Br756   1.938   .     S
C732   C734    1.414   .     A
C732   C958    1.392   1_545 S
C735   Cl757   1.761   .     S
C735   N742    1.373   .     A
C736   Cl758   1.761   .     S
C736   N741    1.373   .     A
C736   C54     1.419   1_556 S
C737   N741    1.373   .     A
C737   Cl759   1.764   .     S
C737   C51     1.419   1_556 S
C738   N742    1.373   .     A
C738   Cl760   1.764   .     S
Cu739  O747    1.971   .     S
Cu739  Cu740   2.693   .     S
Cu739  O746    1.976   .     S
Cu739  N741    2.024   .     S
Cu739  O750    1.972   .     S
Cu739  O743    1.977   .     S
Cu740  O748    1.971   .     S
Cu740  O745    1.976   .     S
Cu740  N742    2.024   .     S
Cu740  O744    1.977   .     S
Cu740  O749    1.972   .     S
Cl751  C765    1.777   .     S
C761   O781    1.302   .     A
C761   O783    1.302   .     A
C761   C772    1.472   .     S
C762   O782    1.302   .     A
C762   C771    1.472   .     S
C762   O784    1.302   .     A
C763   O787    1.298   .     A
C763   O785    1.286   .     A
C763   C765    1.436   .     S
C764   O786    1.286   .     A
C764   O788    1.298   .     A
C764   C766    1.436   .     S
C766   C689    1.356   1_655 S
C766   Cl714   1.777   1_655 S
C767   C772    1.413   .     A
C767   Br791   1.939   .     S
C767   C997    1.392   1_545 S
C768   C771    1.413   .     A
C768   Br792   1.939   .     S
C768   C884    1.392   .     S
C769   Br793   1.938   .     S
C769   C771    1.414   .     A
C769   C881    1.392   .     S
C770   Br794   1.938   .     S
C770   C772    1.414   .     A
C770   C996    1.392   1_545 S
C773   Cl795   1.761   .     S
C773   N780    1.373   .     A
C774   Cl796   1.761   .     S
C774   N779    1.373   .     A
C774   C92     1.419   1_556 S
C775   N779    1.373   .     A
C775   Cl797   1.764   .     S
C775   C89     1.419   1_556 S
C776   N780    1.373   .     A
C776   Cl798   1.764   .     S
Cu777  O785    1.971   .     S
Cu777  Cu778   2.693   .     S
Cu777  O784    1.976   .     S
Cu777  N779    2.024   .     S
Cu777  O788    1.972   .     S
Cu777  O781    1.977   .     S
Cu778  O786    1.971   .     S
Cu778  O783    1.976   .     S
Cu778  N780    2.024   .     S
Cu778  O782    1.977   .     S
Cu778  O787    1.972   .     S
Cl789  C689    1.777   1_655 S
C799   O819    1.302   .     A
C799   O821    1.302   .     A
C799   C810    1.472   .     S
C800   O820    1.302   .     A
C800   C809    1.472   .     S
C800   O822    1.302   .     A
C801   O825    1.298   .     A
C801   O823    1.286   .     A
C801   C803    1.436   .     S
C802   O824    1.286   .     A
C802   O826    1.298   .     A
C802   C804    1.436   .     S
C803   C880    1.356   1_455 S
C803   Cl903   1.777   1_455 S
C804   C841    1.356   .     S
C804   Cl866   1.777   .     S
C805   C810    1.413   .     A
C805   Br829   1.939   .     S
C806   C809    1.413   .     A
C806   Br830   1.939   .     S
C806   C922    1.392   .     S
C807   Br831   1.938   .     S
C807   C809    1.414   .     A
C807   C919    1.392   .     S
C808   Br832   1.938   .     S
C808   C810    1.414   .     A
C811   Cl833   1.761   .     S
C811   N818    1.373   .     A
C812   Cl834   1.761   .     S
C812   N817    1.373   .     A
C812   C130    1.419   1_556 S
C813   N817    1.373   .     A
C813   Cl835   1.764   .     S
C813   C127    1.419   1_556 S
C814   N818    1.373   .     A
C814   Cl836   1.764   .     S
Cu815  O823    1.971   .     S
Cu815  Cu816   2.693   .     S
Cu815  O822    1.976   .     S
Cu815  N817    2.024   .     S
Cu815  O826    1.972   .     S
Cu815  O819    1.977   .     S
Cu816  O824    1.971   .     S
Cu816  O821    1.976   .     S
Cu816  N818    2.024   .     S
Cu816  O820    1.977   .     S
Cu816  O825    1.972   .     S
Cl827  C841    1.777   .     S
Cl828  C880    1.777   1_455 S
C837   O857    1.302   .     A
C837   O859    1.302   .     A
C837   C848    1.472   .     S
C838   O858    1.302   .     A
C838   C847    1.472   .     S
C838   O860    1.302   .     A
C839   O863    1.298   .     A
C839   O861    1.286   .     A
C839   C841    1.436   .     S
C840   O862    1.286   .     A
C840   O864    1.298   .     A
C840   C842    1.436   .     S
C842   C879    1.356   .     S
C842   Cl904   1.777   .     S
C843   C848    1.413   .     A
C843   Br867   1.939   .     S
C844   C847    1.413   .     A
C844   Br868   1.939   .     S
C844   C960    1.392   .     S
C845   Br869   1.938   .     S
C845   C847    1.414   .     A
C845   C957    1.392   .     S
C846   Br870   1.938   .     S
C846   C848    1.414   .     A
C849   Cl871   1.761   .     S
C849   N856    1.373   .     A
C850   Cl872   1.761   .     S
C850   N855    1.373   .     A
C850   C168    1.419   1_556 S
C851   N855    1.373   .     A
C851   Cl873   1.764   .     S
C851   C165    1.419   1_556 S
C852   N856    1.373   .     A
C852   Cl874   1.764   .     S
Cu853  O861    1.971   .     S
Cu853  Cu854   2.693   .     S
Cu853  O860    1.976   .     S
Cu853  N855    2.024   .     S
Cu853  O864    1.972   .     S
Cu853  O857    1.977   .     S
Cu854  O862    1.971   .     S
Cu854  O859    1.976   .     S
Cu854  N856    2.024   .     S
Cu854  O858    1.977   .     S
Cu854  O863    1.972   .     S
Cl865  C879    1.777   .     S
C875   O895    1.302   .     A
C875   O897    1.302   .     A
C875   C886    1.472   .     S
C876   O896    1.302   .     A
C876   C885    1.472   .     S
C876   O898    1.302   .     A
C877   O901    1.298   .     A
C877   O899    1.286   .     A
C877   C879    1.436   .     S
C878   O900    1.286   .     A
C878   O902    1.298   .     A
C878   C880    1.436   .     S
C880   C803    1.356   1_655 S
C880   Cl828   1.777   1_655 S
C881   C886    1.413   .     A
C881   Br905   1.939   .     S
C882   C885    1.413   .     A
C882   Br906   1.939   .     S
C882   C998    1.392   .     S
C883   Br907   1.938   .     S
C883   C885    1.414   .     A
C883   C995    1.392   .     S
C884   Br908   1.938   .     S
C884   C886    1.414   .     A
C887   Cl909   1.761   .     S
C887   N894    1.373   .     A
C888   Cl910   1.761   .     S
C888   N893    1.373   .     A
C888   C206    1.419   1_556 S
C889   N893    1.373   .     A
C889   Cl911   1.764   .     S
C889   C203    1.419   1_556 S
C890   N894    1.373   .     A
C890   Cl912   1.764   .     S
Cu891  O899    1.971   .     S
Cu891  Cu892   2.693   .     S
Cu891  O898    1.976   .     S
Cu891  N893    2.024   .     S
Cu891  O902    1.972   .     S
Cu891  O895    1.977   .     S
Cu892  O900    1.971   .     S
Cu892  O897    1.976   .     S
Cu892  N894    2.024   .     S
Cu892  O896    1.977   .     S
Cu892  O901    1.972   .     S
Cl903  C803    1.777   1_655 S
C913   O933    1.302   .     A
C913   O935    1.302   .     A
C913   C924    1.472   .     S
C914   O934    1.302   .     A
C914   C923    1.472   .     S
C914   O936    1.302   .     A
C915   O939    1.298   .     A
C915   O937    1.286   .     A
C915   C917    1.436   .     S
C916   O938    1.286   .     A
C916   O940    1.298   .     A
C916   C918    1.436   .     S
C917   C994    1.356   1_455 S
C917   Cl1017  1.777   1_455 S
C918   C955    1.356   .     S
C918   Cl980   1.777   .     S
C919   C924    1.413   .     A
C919   Br943   1.939   .     S
C920   C923    1.413   .     A
C920   Br944   1.939   .     S
C920   C694    1.392   1_565 S
C921   Br945   1.938   .     S
C921   C923    1.414   .     A
C921   C691    1.392   1_565 S
C922   Br946   1.938   .     S
C922   C924    1.414   .     A
C925   Cl947   1.761   .     S
C925   N932    1.373   .     A
C926   Cl948   1.761   .     S
C926   N931    1.373   .     A
C926   C244    1.419   1_556 S
C927   N931    1.373   .     A
C927   Cl949   1.764   .     S
C927   C241    1.419   1_556 S
C928   N932    1.373   .     A
C928   Cl950   1.764   .     S
Cu929  O937    1.971   .     S
Cu929  Cu930   2.693   .     S
Cu929  O936    1.976   .     S
Cu929  N931    2.024   .     S
Cu929  O940    1.972   .     S
Cu929  O933    1.977   .     S
Cu930  O938    1.971   .     S
Cu930  O935    1.976   .     S
Cu930  N932    2.024   .     S
Cu930  O934    1.977   .     S
Cu930  O939    1.972   .     S
Cl941  C955    1.777   .     S
Cl942  C994    1.777   1_455 S
C951   O971    1.302   .     A
C951   O973    1.302   .     A
C951   C962    1.472   .     S
C952   O972    1.302   .     A
C952   C961    1.472   .     S
C952   O974    1.302   .     A
C953   O977    1.298   .     A
C953   O975    1.286   .     A
C953   C955    1.436   .     S
C954   O976    1.286   .     A
C954   O978    1.298   .     A
C954   C956    1.436   .     S
C956   C993    1.356   .     S
C956   Cl1018  1.777   .     S
C957   C962    1.413   .     A
C957   Br981   1.939   .     S
C958   C961    1.413   .     A
C958   Br982   1.939   .     S
C958   C732    1.392   1_565 S
C959   Br983   1.938   .     S
C959   C961    1.414   .     A
C959   C729    1.392   1_565 S
C960   Br984   1.938   .     S
C960   C962    1.414   .     A
C963   Cl985   1.761   .     S
C963   N970    1.373   .     A
C964   Cl986   1.761   .     S
C964   N969    1.373   .     A
C964   C282    1.419   1_556 S
C965   N969    1.373   .     A
C965   Cl987   1.764   .     S
C965   C279    1.419   1_556 S
C966   N970    1.373   .     A
C966   Cl988   1.764   .     S
Cu967  O975    1.971   .     S
Cu967  Cu968   2.693   .     S
Cu967  O974    1.976   .     S
Cu967  N969    2.024   .     S
Cu967  O978    1.972   .     S
Cu967  O971    1.977   .     S
Cu968  O976    1.971   .     S
Cu968  O973    1.976   .     S
Cu968  N970    2.024   .     S
Cu968  O972    1.977   .     S
Cu968  O977    1.972   .     S
Cl979  C993    1.777   .     S
C989   O1009   1.302   .     A
C989   O1011   1.302   .     A
C989   C1000   1.472   .     S
C990   O1010   1.302   .     A
C990   C999    1.472   .     S
C990   O1012   1.302   .     A
C991   O1015   1.298   .     A
C991   O1013   1.286   .     A
C991   C993    1.436   .     S
C992   O1014   1.286   .     A
C992   O1016   1.298   .     A
C992   C994    1.436   .     S
C994   C917    1.356   1_655 S
C994   Cl942   1.777   1_655 S
C995   C1000   1.413   .     A
C995   Br1019  1.939   .     S
C996   C999    1.413   .     A
C996   Br1020  1.939   .     S
C996   C770    1.392   1_565 S
C997   Br1021  1.938   .     S
C997   C999    1.414   .     A
C997   C767    1.392   1_565 S
C998   Br1022  1.938   .     S
C998   C1000   1.414   .     A
C1001  Cl1023  1.761   .     S
C1001  N1008   1.373   .     A
C1002  Cl1024  1.761   .     S
C1002  N1007   1.373   .     A
C1002  C320    1.419   1_556 S
C1003  N1007   1.373   .     A
C1003  Cl1025  1.764   .     S
C1003  C317    1.419   1_556 S
C1004  N1008   1.373   .     A
C1004  Cl1026  1.764   .     S
Cu1005 O1013   1.971   .     S
Cu1005 Cu1006  2.693   .     S
Cu1005 O1012   1.976   .     S
Cu1005 N1007   2.024   .     S
Cu1005 O1016   1.972   .     S
Cu1005 O1009   1.977   .     S
Cu1006 O1014   1.971   .     S
Cu1006 O1011   1.976   .     S
Cu1006 N1008   2.024   .     S
Cu1006 O1010   1.977   .     S
Cu1006 O1015   1.972   .     S
Cl1017 C917    1.777   1_655 S
