data_str_m3_o10_o17_pcu_sym.19
_audit_creation_date              2020-01-03
_audit_creation_method            'Materials Studio'
_symmetry_space_group_name_H-M    'P1'
_symmetry_Int_Tables_number       1
_symmetry_cell_setting            triclinic
loop_
_symmetry_equiv_pos_as_xyz
  x,y,z
_cell_length_a                    23.2977
_cell_length_b                    25.8571
_cell_length_c                    29.7042
_cell_angle_alpha                 91.0879
_cell_angle_beta                  86.0850
_cell_angle_gamma                 93.5394
loop_
_atom_site_label
_atom_site_type_symbol
_atom_site_fract_x
_atom_site_fract_y
_atom_site_fract_z
_atom_site_U_iso_or_equiv
_atom_site_adp_type
_atom_site_occupancy
C1     C     0.18177   0.26476   0.24884   0.00000  Uiso   1.00
C2     C     0.18387   0.21233   0.40643   0.00000  Uiso   1.00
C3     C     0.16407   0.16707   0.11613   0.00000  Uiso   1.00
C4     C     0.16927   0.16627   0.38387   0.00000  Uiso   1.00
C5     C     0.17909   0.21309   0.09358   0.00000  Uiso   1.00
C6     C     0.15424   0.12024   0.40642   0.00000  Uiso   1.00
C7     C     0.17996   0.21342   0.04694   0.00000  Uiso   1.00
C8     C     0.15338   0.11992   0.45306   0.00000  Uiso   1.00
C9     C     0.16591   0.16679   0.02345   0.00000  Uiso   1.00
C10    C     0.16742   0.16654   0.47655   0.00000  Uiso   1.00
C11    C     0.15052   0.12039   0.04691   0.00000  Uiso   1.00
C12    C     0.15157   0.06857   0.25116   0.00000  Uiso   1.00
C13    C     0.18281   0.21294   0.45309   0.00000  Uiso   1.00
C14    C     0.19497   0.25926   0.02348   0.00000  Uiso   1.00
C15    C     0.13836   0.07407   0.47652   0.00000  Uiso   1.00
C16    C     0.19637   0.25903   0.47661   0.00000  Uiso   1.00
C17    C     0.13696   0.07430   0.02339   0.00000  Uiso   1.00
C18    C     0.18986   0.31889   0.24822   0.00000  Uiso   1.00
C19    C     0.14348   0.01445   0.25178   0.00000  Uiso   1.00
C20    C     0.16750   0.16666   0.33638   0.00000  Uiso   1.00
C21    C     0.16583   0.16668   0.16362   0.00000  Uiso   1.00
C22    C     0.14947   0.12100   0.09357   0.00000  Uiso   1.00
F23    F     0.24553   0.00556   0.24397   0.00000  Uiso   1.00
F24    F     0.08780   0.32777   0.25603   0.00000  Uiso   1.00
H25    H     0.13826   0.08581   0.11238   0.00000  Uiso   1.00
H26    H     0.32873   0.20575   0.28388   0.00000  Uiso   1.00
H27    H     0.19507   0.24752   0.38762   0.00000  Uiso   1.00
H28    H     0.19035   0.24823   0.11240   0.00000  Uiso   1.00
H29    H     0.14299   0.08510   0.38760   0.00000  Uiso   1.00
H30    H     0.20566   0.29513   0.04135   0.00000  Uiso   1.00
H31    H     0.12767   0.03820   0.45865   0.00000  Uiso   1.00
H32    H     0.20800   0.29475   0.45879   0.00000  Uiso   1.00
H33    H     0.12533   0.03858   0.04121   0.00000  Uiso   1.00
H34    H     0.00461   0.12758   0.21612   0.00000  Uiso   1.00
N35    N     0.31678   0.15265   0.23783   0.00000  Uiso   1.00
N36    N     0.01656   0.18068   0.26217   0.00000  Uiso   1.00
O37    O     0.12975   0.24619   0.25298   0.00000  Uiso   1.00
O38    O     0.20358   0.08714   0.24701   0.00000  Uiso   1.00
O39    O     0.22613   0.23721   0.24519   0.00000  Uiso   1.00
O40    O     0.10720   0.09613   0.25481   0.00000  Uiso   1.00
O41    O     0.11847   0.17117   0.31997   0.00000  Uiso   1.00
O42    O     0.21486   0.16216   0.18003   0.00000  Uiso   1.00
O43    O     0.21485   0.16219   0.31217   0.00000  Uiso   1.00
O44    O     0.11848   0.17115   0.18782   0.00000  Uiso   1.00
Zn45   Zn    0.10231   0.17266   0.25521   0.00000  Uiso   1.00
Zn46   Zn    0.23102   0.16067   0.24479   0.00000  Uiso   1.00
C47    C     0.51510   0.26476   0.24884   0.00000  Uiso   1.00
C48    C     0.51720   0.21233   0.40643   0.00000  Uiso   1.00
C49    C     0.49740   0.16707   0.11613   0.00000  Uiso   1.00
C50    C     0.50260   0.16627   0.38387   0.00000  Uiso   1.00
C51    C     0.51242   0.21309   0.09358   0.00000  Uiso   1.00
C52    C     0.48758   0.12024   0.40642   0.00000  Uiso   1.00
C53    C     0.51329   0.21342   0.04694   0.00000  Uiso   1.00
C54    C     0.48671   0.11992   0.45306   0.00000  Uiso   1.00
C55    C     0.49924   0.16679   0.02345   0.00000  Uiso   1.00
C56    C     0.50076   0.16654   0.47655   0.00000  Uiso   1.00
C57    C     0.48386   0.12039   0.04691   0.00000  Uiso   1.00
C58    C     0.48490   0.06857   0.25116   0.00000  Uiso   1.00
C59    C     0.51614   0.21294   0.45309   0.00000  Uiso   1.00
C60    C     0.52831   0.25926   0.02348   0.00000  Uiso   1.00
C61    C     0.47169   0.07407   0.47652   0.00000  Uiso   1.00
C62    C     0.52970   0.25903   0.47661   0.00000  Uiso   1.00
C63    C     0.47030   0.07430   0.02339   0.00000  Uiso   1.00
C64    C     0.52319   0.31889   0.24822   0.00000  Uiso   1.00
C65    C     0.47681   0.01445   0.25178   0.00000  Uiso   1.00
C66    C     0.50083   0.16666   0.33638   0.00000  Uiso   1.00
C67    C     0.49916   0.16668   0.16362   0.00000  Uiso   1.00
C68    C     0.48280   0.12100   0.09357   0.00000  Uiso   1.00
F69    F     0.57887   0.00556   0.24397   0.00000  Uiso   1.00
F70    F     0.42113   0.32777   0.25603   0.00000  Uiso   1.00
H71    H     0.47160   0.08581   0.11238   0.00000  Uiso   1.00
H72    H     0.66206   0.20575   0.28388   0.00000  Uiso   1.00
H73    H     0.52840   0.24752   0.38762   0.00000  Uiso   1.00
H74    H     0.52368   0.24823   0.11240   0.00000  Uiso   1.00
H75    H     0.47632   0.08510   0.38760   0.00000  Uiso   1.00
H76    H     0.53899   0.29513   0.04135   0.00000  Uiso   1.00
H77    H     0.46101   0.03820   0.45865   0.00000  Uiso   1.00
H78    H     0.54133   0.29475   0.45879   0.00000  Uiso   1.00
H79    H     0.45867   0.03858   0.04121   0.00000  Uiso   1.00
H80    H     0.33794   0.12758   0.21612   0.00000  Uiso   1.00
N81    N     0.65011   0.15265   0.23783   0.00000  Uiso   1.00
N82    N     0.34989   0.18068   0.26217   0.00000  Uiso   1.00
O83    O     0.46308   0.24619   0.25298   0.00000  Uiso   1.00
O84    O     0.53692   0.08714   0.24701   0.00000  Uiso   1.00
O85    O     0.55946   0.23721   0.24519   0.00000  Uiso   1.00
O86    O     0.44054   0.09613   0.25481   0.00000  Uiso   1.00
O87    O     0.45181   0.17117   0.31997   0.00000  Uiso   1.00
O88    O     0.54819   0.16216   0.18003   0.00000  Uiso   1.00
O89    O     0.54819   0.16219   0.31217   0.00000  Uiso   1.00
O90    O     0.45181   0.17115   0.18782   0.00000  Uiso   1.00
Zn91   Zn    0.43565   0.17266   0.25521   0.00000  Uiso   1.00
Zn92   Zn    0.56435   0.16067   0.24479   0.00000  Uiso   1.00
C93    C     0.84843   0.26476   0.24884   0.00000  Uiso   1.00
C94    C     0.85053   0.21233   0.40643   0.00000  Uiso   1.00
C95    C     0.83073   0.16707   0.11613   0.00000  Uiso   1.00
C96    C     0.83593   0.16627   0.38387   0.00000  Uiso   1.00
C97    C     0.84576   0.21309   0.09358   0.00000  Uiso   1.00
C98    C     0.82091   0.12024   0.40642   0.00000  Uiso   1.00
C99    C     0.84662   0.21342   0.04694   0.00000  Uiso   1.00
C100   C     0.82004   0.11992   0.45306   0.00000  Uiso   1.00
C101   C     0.83258   0.16679   0.02345   0.00000  Uiso   1.00
C102   C     0.83409   0.16654   0.47655   0.00000  Uiso   1.00
C103   C     0.81719   0.12039   0.04691   0.00000  Uiso   1.00
C104   C     0.81823   0.06857   0.25116   0.00000  Uiso   1.00
C105   C     0.84948   0.21294   0.45309   0.00000  Uiso   1.00
C106   C     0.86164   0.25926   0.02348   0.00000  Uiso   1.00
C107   C     0.80503   0.07407   0.47652   0.00000  Uiso   1.00
C108   C     0.86304   0.25903   0.47661   0.00000  Uiso   1.00
C109   C     0.80363   0.07430   0.02339   0.00000  Uiso   1.00
C110   C     0.85652   0.31889   0.24822   0.00000  Uiso   1.00
C111   C     0.81014   0.01445   0.25178   0.00000  Uiso   1.00
C112   C     0.83417   0.16666   0.33638   0.00000  Uiso   1.00
C113   C     0.83250   0.16668   0.16362   0.00000  Uiso   1.00
C114   C     0.81613   0.12100   0.09357   0.00000  Uiso   1.00
F115   F     0.91220   0.00556   0.24397   0.00000  Uiso   1.00
F116   F     0.75447   0.32777   0.25603   0.00000  Uiso   1.00
H117   H     0.80493   0.08581   0.11238   0.00000  Uiso   1.00
H118   H     0.99539   0.20575   0.28388   0.00000  Uiso   1.00
H119   H     0.86174   0.24752   0.38762   0.00000  Uiso   1.00
H120   H     0.85701   0.24823   0.11240   0.00000  Uiso   1.00
H121   H     0.80965   0.08510   0.38760   0.00000  Uiso   1.00
H122   H     0.87233   0.29513   0.04135   0.00000  Uiso   1.00
H123   H     0.79434   0.03820   0.45865   0.00000  Uiso   1.00
H124   H     0.87467   0.29475   0.45879   0.00000  Uiso   1.00
H125   H     0.79200   0.03858   0.04121   0.00000  Uiso   1.00
H126   H     0.67127   0.12758   0.21612   0.00000  Uiso   1.00
N127   N     0.98344   0.15265   0.23783   0.00000  Uiso   1.00
N128   N     0.68322   0.18068   0.26217   0.00000  Uiso   1.00
O129   O     0.79642   0.24619   0.25298   0.00000  Uiso   1.00
O130   O     0.87025   0.08714   0.24701   0.00000  Uiso   1.00
O131   O     0.89280   0.23721   0.24519   0.00000  Uiso   1.00
O132   O     0.77387   0.09613   0.25481   0.00000  Uiso   1.00
O133   O     0.78514   0.17117   0.31997   0.00000  Uiso   1.00
O134   O     0.88153   0.16216   0.18003   0.00000  Uiso   1.00
O135   O     0.88152   0.16219   0.31217   0.00000  Uiso   1.00
O136   O     0.78515   0.17115   0.18782   0.00000  Uiso   1.00
Zn137  Zn    0.76898   0.17266   0.25521   0.00000  Uiso   1.00
Zn138  Zn    0.89769   0.16067   0.24479   0.00000  Uiso   1.00
C139   C     0.18177   0.59809   0.24884   0.00000  Uiso   1.00
C140   C     0.18387   0.54567   0.40643   0.00000  Uiso   1.00
C141   C     0.16407   0.50040   0.11613   0.00000  Uiso   1.00
C142   C     0.16927   0.49960   0.38387   0.00000  Uiso   1.00
C143   C     0.17909   0.54643   0.09358   0.00000  Uiso   1.00
C144   C     0.15424   0.45357   0.40642   0.00000  Uiso   1.00
C145   C     0.17996   0.54675   0.04694   0.00000  Uiso   1.00
C146   C     0.15338   0.45325   0.45306   0.00000  Uiso   1.00
C147   C     0.16591   0.50013   0.02345   0.00000  Uiso   1.00
C148   C     0.16742   0.49987   0.47655   0.00000  Uiso   1.00
C149   C     0.15052   0.45372   0.04691   0.00000  Uiso   1.00
C150   C     0.15157   0.40191   0.25116   0.00000  Uiso   1.00
C151   C     0.18281   0.54628   0.45309   0.00000  Uiso   1.00
C152   C     0.19497   0.59260   0.02348   0.00000  Uiso   1.00
C153   C     0.13836   0.40740   0.47652   0.00000  Uiso   1.00
C154   C     0.19637   0.59236   0.47661   0.00000  Uiso   1.00
C155   C     0.13696   0.40764   0.02339   0.00000  Uiso   1.00
C156   C     0.18986   0.65222   0.24822   0.00000  Uiso   1.00
C157   C     0.14348   0.34778   0.25178   0.00000  Uiso   1.00
C158   C     0.16750   0.49999   0.33638   0.00000  Uiso   1.00
C159   C     0.16583   0.50001   0.16362   0.00000  Uiso   1.00
C160   C     0.14947   0.45433   0.09357   0.00000  Uiso   1.00
F161   F     0.24553   0.33889   0.24397   0.00000  Uiso   1.00
F162   F     0.08780   0.66111   0.25603   0.00000  Uiso   1.00
H163   H     0.13826   0.41914   0.11238   0.00000  Uiso   1.00
H164   H     0.32873   0.53909   0.28388   0.00000  Uiso   1.00
H165   H     0.19507   0.58086   0.38762   0.00000  Uiso   1.00
H166   H     0.19035   0.58157   0.11240   0.00000  Uiso   1.00
H167   H     0.14299   0.41843   0.38760   0.00000  Uiso   1.00
H168   H     0.20566   0.62847   0.04135   0.00000  Uiso   1.00
H169   H     0.12767   0.37153   0.45865   0.00000  Uiso   1.00
H170   H     0.20800   0.62808   0.45879   0.00000  Uiso   1.00
H171   H     0.12533   0.37192   0.04121   0.00000  Uiso   1.00
H172   H     0.00461   0.46091   0.21612   0.00000  Uiso   1.00
N173   N     0.31678   0.48598   0.23783   0.00000  Uiso   1.00
N174   N     0.01656   0.51402   0.26217   0.00000  Uiso   1.00
O175   O     0.12975   0.57952   0.25298   0.00000  Uiso   1.00
O176   O     0.20358   0.42048   0.24701   0.00000  Uiso   1.00
O177   O     0.22613   0.57054   0.24519   0.00000  Uiso   1.00
O178   O     0.10720   0.42946   0.25481   0.00000  Uiso   1.00
O179   O     0.11847   0.50450   0.31997   0.00000  Uiso   1.00
O180   O     0.21486   0.49550   0.18003   0.00000  Uiso   1.00
O181   O     0.21485   0.49552   0.31217   0.00000  Uiso   1.00
O182   O     0.11848   0.50448   0.18782   0.00000  Uiso   1.00
Zn183  Zn    0.10231   0.50600   0.25521   0.00000  Uiso   1.00
Zn184  Zn    0.23102   0.49400   0.24479   0.00000  Uiso   1.00
C185   C     0.51510   0.59809   0.24884   0.00000  Uiso   1.00
C186   C     0.51720   0.54567   0.40643   0.00000  Uiso   1.00
C187   C     0.49740   0.50040   0.11613   0.00000  Uiso   1.00
C188   C     0.50260   0.49960   0.38387   0.00000  Uiso   1.00
C189   C     0.51242   0.54643   0.09358   0.00000  Uiso   1.00
C190   C     0.48758   0.45357   0.40642   0.00000  Uiso   1.00
C191   C     0.51329   0.54675   0.04694   0.00000  Uiso   1.00
C192   C     0.48671   0.45325   0.45306   0.00000  Uiso   1.00
C193   C     0.49924   0.50013   0.02345   0.00000  Uiso   1.00
C194   C     0.50076   0.49987   0.47655   0.00000  Uiso   1.00
C195   C     0.48386   0.45372   0.04691   0.00000  Uiso   1.00
C196   C     0.48490   0.40191   0.25116   0.00000  Uiso   1.00
C197   C     0.51614   0.54628   0.45309   0.00000  Uiso   1.00
C198   C     0.52831   0.59260   0.02348   0.00000  Uiso   1.00
C199   C     0.47169   0.40740   0.47652   0.00000  Uiso   1.00
C200   C     0.52970   0.59236   0.47661   0.00000  Uiso   1.00
C201   C     0.47030   0.40764   0.02339   0.00000  Uiso   1.00
C202   C     0.52319   0.65222   0.24822   0.00000  Uiso   1.00
C203   C     0.47681   0.34778   0.25178   0.00000  Uiso   1.00
C204   C     0.50083   0.49999   0.33638   0.00000  Uiso   1.00
C205   C     0.49916   0.50001   0.16362   0.00000  Uiso   1.00
C206   C     0.48280   0.45433   0.09357   0.00000  Uiso   1.00
F207   F     0.57887   0.33889   0.24397   0.00000  Uiso   1.00
F208   F     0.42113   0.66111   0.25603   0.00000  Uiso   1.00
H209   H     0.47160   0.41914   0.11238   0.00000  Uiso   1.00
H210   H     0.66206   0.53909   0.28388   0.00000  Uiso   1.00
H211   H     0.52840   0.58086   0.38762   0.00000  Uiso   1.00
H212   H     0.52368   0.58157   0.11240   0.00000  Uiso   1.00
H213   H     0.47632   0.41843   0.38760   0.00000  Uiso   1.00
H214   H     0.53899   0.62847   0.04135   0.00000  Uiso   1.00
H215   H     0.46101   0.37153   0.45865   0.00000  Uiso   1.00
H216   H     0.54133   0.62808   0.45879   0.00000  Uiso   1.00
H217   H     0.45867   0.37192   0.04121   0.00000  Uiso   1.00
H218   H     0.33794   0.46091   0.21612   0.00000  Uiso   1.00
N219   N     0.65011   0.48598   0.23783   0.00000  Uiso   1.00
N220   N     0.34989   0.51402   0.26217   0.00000  Uiso   1.00
O221   O     0.46308   0.57952   0.25298   0.00000  Uiso   1.00
O222   O     0.53692   0.42048   0.24701   0.00000  Uiso   1.00
O223   O     0.55946   0.57054   0.24519   0.00000  Uiso   1.00
O224   O     0.44054   0.42946   0.25481   0.00000  Uiso   1.00
O225   O     0.45181   0.50450   0.31997   0.00000  Uiso   1.00
O226   O     0.54819   0.49550   0.18003   0.00000  Uiso   1.00
O227   O     0.54819   0.49552   0.31217   0.00000  Uiso   1.00
O228   O     0.45181   0.50448   0.18782   0.00000  Uiso   1.00
Zn229  Zn    0.43565   0.50600   0.25521   0.00000  Uiso   1.00
Zn230  Zn    0.56435   0.49400   0.24479   0.00000  Uiso   1.00
C231   C     0.84843   0.59809   0.24884   0.00000  Uiso   1.00
C232   C     0.85053   0.54567   0.40643   0.00000  Uiso   1.00
C233   C     0.83073   0.50040   0.11613   0.00000  Uiso   1.00
C234   C     0.83593   0.49960   0.38387   0.00000  Uiso   1.00
C235   C     0.84576   0.54643   0.09358   0.00000  Uiso   1.00
C236   C     0.82091   0.45357   0.40642   0.00000  Uiso   1.00
C237   C     0.84662   0.54675   0.04694   0.00000  Uiso   1.00
C238   C     0.82004   0.45325   0.45306   0.00000  Uiso   1.00
C239   C     0.83258   0.50013   0.02345   0.00000  Uiso   1.00
C240   C     0.83409   0.49987   0.47655   0.00000  Uiso   1.00
C241   C     0.81719   0.45372   0.04691   0.00000  Uiso   1.00
C242   C     0.81823   0.40191   0.25116   0.00000  Uiso   1.00
C243   C     0.84948   0.54628   0.45309   0.00000  Uiso   1.00
C244   C     0.86164   0.59260   0.02348   0.00000  Uiso   1.00
C245   C     0.80503   0.40740   0.47652   0.00000  Uiso   1.00
C246   C     0.86304   0.59236   0.47661   0.00000  Uiso   1.00
C247   C     0.80363   0.40764   0.02339   0.00000  Uiso   1.00
C248   C     0.85652   0.65222   0.24822   0.00000  Uiso   1.00
C249   C     0.81014   0.34778   0.25178   0.00000  Uiso   1.00
C250   C     0.83417   0.49999   0.33638   0.00000  Uiso   1.00
C251   C     0.83250   0.50001   0.16362   0.00000  Uiso   1.00
C252   C     0.81613   0.45433   0.09357   0.00000  Uiso   1.00
F253   F     0.91220   0.33889   0.24397   0.00000  Uiso   1.00
F254   F     0.75447   0.66111   0.25603   0.00000  Uiso   1.00
H255   H     0.80493   0.41914   0.11238   0.00000  Uiso   1.00
H256   H     0.99539   0.53909   0.28388   0.00000  Uiso   1.00
H257   H     0.86174   0.58086   0.38762   0.00000  Uiso   1.00
H258   H     0.85701   0.58157   0.11240   0.00000  Uiso   1.00
H259   H     0.80965   0.41843   0.38760   0.00000  Uiso   1.00
H260   H     0.87233   0.62847   0.04135   0.00000  Uiso   1.00
H261   H     0.79434   0.37153   0.45865   0.00000  Uiso   1.00
H262   H     0.87467   0.62808   0.45879   0.00000  Uiso   1.00
H263   H     0.79200   0.37192   0.04121   0.00000  Uiso   1.00
H264   H     0.67127   0.46091   0.21612   0.00000  Uiso   1.00
N265   N     0.98344   0.48598   0.23783   0.00000  Uiso   1.00
N266   N     0.68322   0.51402   0.26217   0.00000  Uiso   1.00
O267   O     0.79642   0.57952   0.25298   0.00000  Uiso   1.00
O268   O     0.87025   0.42048   0.24701   0.00000  Uiso   1.00
O269   O     0.89280   0.57054   0.24519   0.00000  Uiso   1.00
O270   O     0.77387   0.42946   0.25481   0.00000  Uiso   1.00
O271   O     0.78514   0.50450   0.31997   0.00000  Uiso   1.00
O272   O     0.88153   0.49550   0.18003   0.00000  Uiso   1.00
O273   O     0.88152   0.49552   0.31217   0.00000  Uiso   1.00
O274   O     0.78515   0.50448   0.18782   0.00000  Uiso   1.00
Zn275  Zn    0.76898   0.50600   0.25521   0.00000  Uiso   1.00
Zn276  Zn    0.89769   0.49400   0.24479   0.00000  Uiso   1.00
C277   C     0.18177   0.93143   0.24884   0.00000  Uiso   1.00
C278   C     0.18387   0.87900   0.40643   0.00000  Uiso   1.00
C279   C     0.16407   0.83373   0.11613   0.00000  Uiso   1.00
C280   C     0.16927   0.83293   0.38387   0.00000  Uiso   1.00
C281   C     0.17909   0.87976   0.09358   0.00000  Uiso   1.00
C282   C     0.15424   0.78691   0.40642   0.00000  Uiso   1.00
C283   C     0.17996   0.88008   0.04694   0.00000  Uiso   1.00
C284   C     0.15338   0.78658   0.45306   0.00000  Uiso   1.00
C285   C     0.16591   0.83346   0.02345   0.00000  Uiso   1.00
C286   C     0.16742   0.83321   0.47655   0.00000  Uiso   1.00
C287   C     0.15052   0.78705   0.04691   0.00000  Uiso   1.00
C288   C     0.15157   0.73524   0.25116   0.00000  Uiso   1.00
C289   C     0.18281   0.87961   0.45309   0.00000  Uiso   1.00
C290   C     0.19497   0.92593   0.02348   0.00000  Uiso   1.00
C291   C     0.13836   0.74074   0.47652   0.00000  Uiso   1.00
C292   C     0.19637   0.92570   0.47661   0.00000  Uiso   1.00
C293   C     0.13696   0.74097   0.02339   0.00000  Uiso   1.00
C294   C     0.18986   0.98555   0.24822   0.00000  Uiso   1.00
C295   C     0.14348   0.68111   0.25178   0.00000  Uiso   1.00
C296   C     0.16750   0.83332   0.33638   0.00000  Uiso   1.00
C297   C     0.16583   0.83334   0.16362   0.00000  Uiso   1.00
C298   C     0.14947   0.78767   0.09357   0.00000  Uiso   1.00
F299   F     0.24553   0.67223   0.24397   0.00000  Uiso   1.00
F300   F     0.08780   0.99444   0.25603   0.00000  Uiso   1.00
H301   H     0.13826   0.75248   0.11238   0.00000  Uiso   1.00
H302   H     0.32873   0.87242   0.28388   0.00000  Uiso   1.00
H303   H     0.19507   0.91419   0.38762   0.00000  Uiso   1.00
H304   H     0.19035   0.91490   0.11240   0.00000  Uiso   1.00
H305   H     0.14299   0.75177   0.38760   0.00000  Uiso   1.00
H306   H     0.20566   0.96180   0.04135   0.00000  Uiso   1.00
H307   H     0.12767   0.70487   0.45865   0.00000  Uiso   1.00
H308   H     0.20800   0.96142   0.45879   0.00000  Uiso   1.00
H309   H     0.12533   0.70525   0.04121   0.00000  Uiso   1.00
H310   H     0.00461   0.79425   0.21612   0.00000  Uiso   1.00
N311   N     0.31678   0.81932   0.23783   0.00000  Uiso   1.00
N312   N     0.01656   0.84735   0.26217   0.00000  Uiso   1.00
O313   O     0.12975   0.91286   0.25298   0.00000  Uiso   1.00
O314   O     0.20358   0.75381   0.24701   0.00000  Uiso   1.00
O315   O     0.22613   0.90387   0.24519   0.00000  Uiso   1.00
O316   O     0.10720   0.76279   0.25481   0.00000  Uiso   1.00
O317   O     0.11847   0.83784   0.31997   0.00000  Uiso   1.00
O318   O     0.21486   0.82883   0.18003   0.00000  Uiso   1.00
O319   O     0.21485   0.82885   0.31217   0.00000  Uiso   1.00
O320   O     0.11848   0.83781   0.18782   0.00000  Uiso   1.00
Zn321  Zn    0.10231   0.83933   0.25521   0.00000  Uiso   1.00
Zn322  Zn    0.23102   0.82734   0.24479   0.00000  Uiso   1.00
C323   C     0.51510   0.93143   0.24884   0.00000  Uiso   1.00
C324   C     0.51720   0.87900   0.40643   0.00000  Uiso   1.00
C325   C     0.49740   0.83373   0.11613   0.00000  Uiso   1.00
C326   C     0.50260   0.83293   0.38387   0.00000  Uiso   1.00
C327   C     0.51242   0.87976   0.09358   0.00000  Uiso   1.00
C328   C     0.48758   0.78691   0.40642   0.00000  Uiso   1.00
C329   C     0.51329   0.88008   0.04694   0.00000  Uiso   1.00
C330   C     0.48671   0.78658   0.45306   0.00000  Uiso   1.00
C331   C     0.49924   0.83346   0.02345   0.00000  Uiso   1.00
C332   C     0.50076   0.83321   0.47655   0.00000  Uiso   1.00
C333   C     0.48386   0.78705   0.04691   0.00000  Uiso   1.00
C334   C     0.48490   0.73524   0.25116   0.00000  Uiso   1.00
C335   C     0.51614   0.87961   0.45309   0.00000  Uiso   1.00
C336   C     0.52831   0.92593   0.02348   0.00000  Uiso   1.00
C337   C     0.47169   0.74074   0.47652   0.00000  Uiso   1.00
C338   C     0.52970   0.92570   0.47661   0.00000  Uiso   1.00
C339   C     0.47030   0.74097   0.02339   0.00000  Uiso   1.00
C340   C     0.52319   0.98555   0.24822   0.00000  Uiso   1.00
C341   C     0.47681   0.68111   0.25178   0.00000  Uiso   1.00
C342   C     0.50083   0.83332   0.33638   0.00000  Uiso   1.00
C343   C     0.49916   0.83334   0.16362   0.00000  Uiso   1.00
C344   C     0.48280   0.78767   0.09357   0.00000  Uiso   1.00
F345   F     0.57887   0.67223   0.24397   0.00000  Uiso   1.00
F346   F     0.42113   0.99444   0.25603   0.00000  Uiso   1.00
H347   H     0.47160   0.75248   0.11238   0.00000  Uiso   1.00
H348   H     0.66206   0.87242   0.28388   0.00000  Uiso   1.00
H349   H     0.52840   0.91419   0.38762   0.00000  Uiso   1.00
H350   H     0.52368   0.91490   0.11240   0.00000  Uiso   1.00
H351   H     0.47632   0.75177   0.38760   0.00000  Uiso   1.00
H352   H     0.53899   0.96180   0.04135   0.00000  Uiso   1.00
H353   H     0.46101   0.70487   0.45865   0.00000  Uiso   1.00
H354   H     0.54133   0.96142   0.45879   0.00000  Uiso   1.00
H355   H     0.45867   0.70525   0.04121   0.00000  Uiso   1.00
H356   H     0.33794   0.79425   0.21612   0.00000  Uiso   1.00
N357   N     0.65011   0.81932   0.23783   0.00000  Uiso   1.00
N358   N     0.34989   0.84735   0.26217   0.00000  Uiso   1.00
O359   O     0.46308   0.91286   0.25298   0.00000  Uiso   1.00
O360   O     0.53692   0.75381   0.24701   0.00000  Uiso   1.00
O361   O     0.55946   0.90387   0.24519   0.00000  Uiso   1.00
O362   O     0.44054   0.76279   0.25481   0.00000  Uiso   1.00
O363   O     0.45181   0.83784   0.31997   0.00000  Uiso   1.00
O364   O     0.54819   0.82883   0.18003   0.00000  Uiso   1.00
O365   O     0.54819   0.82885   0.31217   0.00000  Uiso   1.00
O366   O     0.45181   0.83781   0.18782   0.00000  Uiso   1.00
Zn367  Zn    0.43565   0.83933   0.25521   0.00000  Uiso   1.00
Zn368  Zn    0.56435   0.82734   0.24479   0.00000  Uiso   1.00
C369   C     0.84843   0.93143   0.24884   0.00000  Uiso   1.00
C370   C     0.85053   0.87900   0.40643   0.00000  Uiso   1.00
C371   C     0.83073   0.83373   0.11613   0.00000  Uiso   1.00
C372   C     0.83593   0.83293   0.38387   0.00000  Uiso   1.00
C373   C     0.84576   0.87976   0.09358   0.00000  Uiso   1.00
C374   C     0.82091   0.78691   0.40642   0.00000  Uiso   1.00
C375   C     0.84662   0.88008   0.04694   0.00000  Uiso   1.00
C376   C     0.82004   0.78658   0.45306   0.00000  Uiso   1.00
C377   C     0.83258   0.83346   0.02345   0.00000  Uiso   1.00
C378   C     0.83409   0.83321   0.47655   0.00000  Uiso   1.00
C379   C     0.81719   0.78705   0.04691   0.00000  Uiso   1.00
C380   C     0.81823   0.73524   0.25116   0.00000  Uiso   1.00
C381   C     0.84948   0.87961   0.45309   0.00000  Uiso   1.00
C382   C     0.86164   0.92593   0.02348   0.00000  Uiso   1.00
C383   C     0.80503   0.74074   0.47652   0.00000  Uiso   1.00
C384   C     0.86304   0.92570   0.47661   0.00000  Uiso   1.00
C385   C     0.80363   0.74097   0.02339   0.00000  Uiso   1.00
C386   C     0.85652   0.98555   0.24822   0.00000  Uiso   1.00
C387   C     0.81014   0.68111   0.25178   0.00000  Uiso   1.00
C388   C     0.83417   0.83332   0.33638   0.00000  Uiso   1.00
C389   C     0.83250   0.83334   0.16362   0.00000  Uiso   1.00
C390   C     0.81613   0.78767   0.09357   0.00000  Uiso   1.00
F391   F     0.91220   0.67223   0.24397   0.00000  Uiso   1.00
F392   F     0.75447   0.99444   0.25603   0.00000  Uiso   1.00
H393   H     0.80493   0.75248   0.11238   0.00000  Uiso   1.00
H394   H     0.99539   0.87242   0.28388   0.00000  Uiso   1.00
H395   H     0.86174   0.91419   0.38762   0.00000  Uiso   1.00
H396   H     0.85701   0.91490   0.11240   0.00000  Uiso   1.00
H397   H     0.80965   0.75177   0.38760   0.00000  Uiso   1.00
H398   H     0.87233   0.96180   0.04135   0.00000  Uiso   1.00
H399   H     0.79434   0.70487   0.45865   0.00000  Uiso   1.00
H400   H     0.87467   0.96142   0.45879   0.00000  Uiso   1.00
H401   H     0.79200   0.70525   0.04121   0.00000  Uiso   1.00
H402   H     0.67127   0.79425   0.21612   0.00000  Uiso   1.00
N403   N     0.98344   0.81932   0.23783   0.00000  Uiso   1.00
N404   N     0.68322   0.84735   0.26217   0.00000  Uiso   1.00
O405   O     0.79642   0.91286   0.25298   0.00000  Uiso   1.00
O406   O     0.87025   0.75381   0.24701   0.00000  Uiso   1.00
O407   O     0.89280   0.90387   0.24519   0.00000  Uiso   1.00
O408   O     0.77387   0.76279   0.25481   0.00000  Uiso   1.00
O409   O     0.78514   0.83784   0.31997   0.00000  Uiso   1.00
O410   O     0.88153   0.82883   0.18003   0.00000  Uiso   1.00
O411   O     0.88152   0.82885   0.31217   0.00000  Uiso   1.00
O412   O     0.78515   0.83781   0.18782   0.00000  Uiso   1.00
Zn413  Zn    0.76898   0.83933   0.25521   0.00000  Uiso   1.00
Zn414  Zn    0.89769   0.82734   0.24479   0.00000  Uiso   1.00
C415   C     0.18177   0.26476   0.74884   0.00000  Uiso   1.00
C416   C     0.18387   0.21233   0.90643   0.00000  Uiso   1.00
C417   C     0.16407   0.16707   0.61613   0.00000  Uiso   1.00
C418   C     0.16927   0.16627   0.88387   0.00000  Uiso   1.00
C419   C     0.17909   0.21309   0.59358   0.00000  Uiso   1.00
C420   C     0.15424   0.12024   0.90642   0.00000  Uiso   1.00
C421   C     0.17996   0.21342   0.54694   0.00000  Uiso   1.00
C422   C     0.15338   0.11992   0.95306   0.00000  Uiso   1.00
C423   C     0.16591   0.16679   0.52345   0.00000  Uiso   1.00
C424   C     0.16742   0.16654   0.97655   0.00000  Uiso   1.00
C425   C     0.15052   0.12039   0.54691   0.00000  Uiso   1.00
C426   C     0.15157   0.06857   0.75116   0.00000  Uiso   1.00
C427   C     0.18281   0.21294   0.95309   0.00000  Uiso   1.00
C428   C     0.19497   0.25926   0.52348   0.00000  Uiso   1.00
C429   C     0.13836   0.07407   0.97652   0.00000  Uiso   1.00
C430   C     0.19637   0.25903   0.97661   0.00000  Uiso   1.00
C431   C     0.13696   0.07430   0.52339   0.00000  Uiso   1.00
C432   C     0.18986   0.31889   0.74822   0.00000  Uiso   1.00
C433   C     0.14348   0.01445   0.75178   0.00000  Uiso   1.00
C434   C     0.16750   0.16666   0.83638   0.00000  Uiso   1.00
C435   C     0.16583   0.16668   0.66362   0.00000  Uiso   1.00
C436   C     0.14947   0.12100   0.59357   0.00000  Uiso   1.00
F437   F     0.24553   0.00556   0.74397   0.00000  Uiso   1.00
F438   F     0.08780   0.32777   0.75603   0.00000  Uiso   1.00
H439   H     0.13826   0.08581   0.61238   0.00000  Uiso   1.00
H440   H     0.32873   0.20575   0.78388   0.00000  Uiso   1.00
H441   H     0.19507   0.24752   0.88762   0.00000  Uiso   1.00
H442   H     0.19035   0.24823   0.61240   0.00000  Uiso   1.00
H443   H     0.14299   0.08510   0.88760   0.00000  Uiso   1.00
H444   H     0.20566   0.29513   0.54135   0.00000  Uiso   1.00
H445   H     0.12767   0.03820   0.95865   0.00000  Uiso   1.00
H446   H     0.20800   0.29475   0.95879   0.00000  Uiso   1.00
H447   H     0.12533   0.03858   0.54121   0.00000  Uiso   1.00
H448   H     0.00461   0.12758   0.71612   0.00000  Uiso   1.00
N449   N     0.31678   0.15265   0.73783   0.00000  Uiso   1.00
N450   N     0.01656   0.18068   0.76217   0.00000  Uiso   1.00
O451   O     0.12975   0.24619   0.75298   0.00000  Uiso   1.00
O452   O     0.20358   0.08714   0.74701   0.00000  Uiso   1.00
O453   O     0.22613   0.23721   0.74519   0.00000  Uiso   1.00
O454   O     0.10720   0.09613   0.75481   0.00000  Uiso   1.00
O455   O     0.11847   0.17117   0.81997   0.00000  Uiso   1.00
O456   O     0.21486   0.16216   0.68003   0.00000  Uiso   1.00
O457   O     0.21485   0.16219   0.81217   0.00000  Uiso   1.00
O458   O     0.11848   0.17115   0.68782   0.00000  Uiso   1.00
Zn459  Zn    0.10231   0.17266   0.75521   0.00000  Uiso   1.00
Zn460  Zn    0.23102   0.16067   0.74479   0.00000  Uiso   1.00
C461   C     0.51510   0.26476   0.74884   0.00000  Uiso   1.00
C462   C     0.51720   0.21233   0.90643   0.00000  Uiso   1.00
C463   C     0.49740   0.16707   0.61613   0.00000  Uiso   1.00
C464   C     0.50260   0.16627   0.88387   0.00000  Uiso   1.00
C465   C     0.51242   0.21309   0.59358   0.00000  Uiso   1.00
C466   C     0.48758   0.12024   0.90642   0.00000  Uiso   1.00
C467   C     0.51329   0.21342   0.54694   0.00000  Uiso   1.00
C468   C     0.48671   0.11992   0.95306   0.00000  Uiso   1.00
C469   C     0.49924   0.16679   0.52345   0.00000  Uiso   1.00
C470   C     0.50076   0.16654   0.97655   0.00000  Uiso   1.00
C471   C     0.48386   0.12039   0.54691   0.00000  Uiso   1.00
C472   C     0.48490   0.06857   0.75116   0.00000  Uiso   1.00
C473   C     0.51614   0.21294   0.95309   0.00000  Uiso   1.00
C474   C     0.52831   0.25926   0.52348   0.00000  Uiso   1.00
C475   C     0.47169   0.07407   0.97652   0.00000  Uiso   1.00
C476   C     0.52970   0.25903   0.97661   0.00000  Uiso   1.00
C477   C     0.47030   0.07430   0.52339   0.00000  Uiso   1.00
C478   C     0.52319   0.31889   0.74822   0.00000  Uiso   1.00
C479   C     0.47681   0.01445   0.75178   0.00000  Uiso   1.00
C480   C     0.50083   0.16666   0.83638   0.00000  Uiso   1.00
C481   C     0.49916   0.16668   0.66362   0.00000  Uiso   1.00
C482   C     0.48280   0.12100   0.59357   0.00000  Uiso   1.00
F483   F     0.57887   0.00556   0.74397   0.00000  Uiso   1.00
F484   F     0.42113   0.32777   0.75603   0.00000  Uiso   1.00
H485   H     0.47160   0.08581   0.61238   0.00000  Uiso   1.00
H486   H     0.66206   0.20575   0.78388   0.00000  Uiso   1.00
H487   H     0.52840   0.24752   0.88762   0.00000  Uiso   1.00
H488   H     0.52368   0.24823   0.61240   0.00000  Uiso   1.00
H489   H     0.47632   0.08510   0.88760   0.00000  Uiso   1.00
H490   H     0.53899   0.29513   0.54135   0.00000  Uiso   1.00
H491   H     0.46101   0.03820   0.95865   0.00000  Uiso   1.00
H492   H     0.54133   0.29475   0.95879   0.00000  Uiso   1.00
H493   H     0.45867   0.03858   0.54121   0.00000  Uiso   1.00
H494   H     0.33794   0.12758   0.71612   0.00000  Uiso   1.00
N495   N     0.65011   0.15265   0.73783   0.00000  Uiso   1.00
N496   N     0.34989   0.18068   0.76217   0.00000  Uiso   1.00
O497   O     0.46308   0.24619   0.75298   0.00000  Uiso   1.00
O498   O     0.53692   0.08714   0.74701   0.00000  Uiso   1.00
O499   O     0.55946   0.23721   0.74519   0.00000  Uiso   1.00
O500   O     0.44054   0.09613   0.75481   0.00000  Uiso   1.00
O501   O     0.45181   0.17117   0.81997   0.00000  Uiso   1.00
O502   O     0.54819   0.16216   0.68003   0.00000  Uiso   1.00
O503   O     0.54819   0.16219   0.81217   0.00000  Uiso   1.00
O504   O     0.45181   0.17115   0.68782   0.00000  Uiso   1.00
Zn505  Zn    0.43565   0.17266   0.75521   0.00000  Uiso   1.00
Zn506  Zn    0.56435   0.16067   0.74479   0.00000  Uiso   1.00
C507   C     0.84843   0.26476   0.74884   0.00000  Uiso   1.00
C508   C     0.85053   0.21233   0.90643   0.00000  Uiso   1.00
C509   C     0.83073   0.16707   0.61613   0.00000  Uiso   1.00
C510   C     0.83593   0.16627   0.88387   0.00000  Uiso   1.00
C511   C     0.84576   0.21309   0.59358   0.00000  Uiso   1.00
C512   C     0.82091   0.12024   0.90642   0.00000  Uiso   1.00
C513   C     0.84662   0.21342   0.54694   0.00000  Uiso   1.00
C514   C     0.82004   0.11992   0.95306   0.00000  Uiso   1.00
C515   C     0.83258   0.16679   0.52345   0.00000  Uiso   1.00
C516   C     0.83409   0.16654   0.97655   0.00000  Uiso   1.00
C517   C     0.81719   0.12039   0.54691   0.00000  Uiso   1.00
C518   C     0.81823   0.06857   0.75116   0.00000  Uiso   1.00
C519   C     0.84948   0.21294   0.95309   0.00000  Uiso   1.00
C520   C     0.86164   0.25926   0.52348   0.00000  Uiso   1.00
C521   C     0.80503   0.07407   0.97652   0.00000  Uiso   1.00
C522   C     0.86304   0.25903   0.97661   0.00000  Uiso   1.00
C523   C     0.80363   0.07430   0.52339   0.00000  Uiso   1.00
C524   C     0.85652   0.31889   0.74822   0.00000  Uiso   1.00
C525   C     0.81014   0.01445   0.75178   0.00000  Uiso   1.00
C526   C     0.83417   0.16666   0.83638   0.00000  Uiso   1.00
C527   C     0.83250   0.16668   0.66362   0.00000  Uiso   1.00
C528   C     0.81613   0.12100   0.59357   0.00000  Uiso   1.00
F529   F     0.91220   0.00556   0.74397   0.00000  Uiso   1.00
F530   F     0.75447   0.32777   0.75603   0.00000  Uiso   1.00
H531   H     0.80493   0.08581   0.61238   0.00000  Uiso   1.00
H532   H     0.99539   0.20575   0.78388   0.00000  Uiso   1.00
H533   H     0.86174   0.24752   0.88762   0.00000  Uiso   1.00
H534   H     0.85701   0.24823   0.61240   0.00000  Uiso   1.00
H535   H     0.80965   0.08510   0.88760   0.00000  Uiso   1.00
H536   H     0.87233   0.29513   0.54135   0.00000  Uiso   1.00
H537   H     0.79434   0.03820   0.95865   0.00000  Uiso   1.00
H538   H     0.87467   0.29475   0.95879   0.00000  Uiso   1.00
H539   H     0.79200   0.03858   0.54121   0.00000  Uiso   1.00
H540   H     0.67127   0.12758   0.71612   0.00000  Uiso   1.00
N541   N     0.98344   0.15265   0.73783   0.00000  Uiso   1.00
N542   N     0.68322   0.18068   0.76217   0.00000  Uiso   1.00
O543   O     0.79642   0.24619   0.75298   0.00000  Uiso   1.00
O544   O     0.87025   0.08714   0.74701   0.00000  Uiso   1.00
O545   O     0.89280   0.23721   0.74519   0.00000  Uiso   1.00
O546   O     0.77387   0.09613   0.75481   0.00000  Uiso   1.00
O547   O     0.78514   0.17117   0.81997   0.00000  Uiso   1.00
O548   O     0.88153   0.16216   0.68003   0.00000  Uiso   1.00
O549   O     0.88152   0.16219   0.81217   0.00000  Uiso   1.00
O550   O     0.78515   0.17115   0.68782   0.00000  Uiso   1.00
Zn551  Zn    0.76898   0.17266   0.75521   0.00000  Uiso   1.00
Zn552  Zn    0.89769   0.16067   0.74479   0.00000  Uiso   1.00
C553   C     0.18177   0.59809   0.74884   0.00000  Uiso   1.00
C554   C     0.18387   0.54567   0.90643   0.00000  Uiso   1.00
C555   C     0.16407   0.50040   0.61613   0.00000  Uiso   1.00
C556   C     0.16927   0.49960   0.88387   0.00000  Uiso   1.00
C557   C     0.17909   0.54643   0.59358   0.00000  Uiso   1.00
C558   C     0.15424   0.45357   0.90642   0.00000  Uiso   1.00
C559   C     0.17996   0.54675   0.54694   0.00000  Uiso   1.00
C560   C     0.15338   0.45325   0.95306   0.00000  Uiso   1.00
C561   C     0.16591   0.50013   0.52345   0.00000  Uiso   1.00
C562   C     0.16742   0.49987   0.97655   0.00000  Uiso   1.00
C563   C     0.15052   0.45372   0.54691   0.00000  Uiso   1.00
C564   C     0.15157   0.40191   0.75116   0.00000  Uiso   1.00
C565   C     0.18281   0.54628   0.95309   0.00000  Uiso   1.00
C566   C     0.19497   0.59260   0.52348   0.00000  Uiso   1.00
C567   C     0.13836   0.40740   0.97652   0.00000  Uiso   1.00
C568   C     0.19637   0.59236   0.97661   0.00000  Uiso   1.00
C569   C     0.13696   0.40764   0.52339   0.00000  Uiso   1.00
C570   C     0.18986   0.65222   0.74822   0.00000  Uiso   1.00
C571   C     0.14348   0.34778   0.75178   0.00000  Uiso   1.00
C572   C     0.16750   0.49999   0.83638   0.00000  Uiso   1.00
C573   C     0.16583   0.50001   0.66362   0.00000  Uiso   1.00
C574   C     0.14947   0.45433   0.59357   0.00000  Uiso   1.00
F575   F     0.24553   0.33889   0.74397   0.00000  Uiso   1.00
F576   F     0.08780   0.66111   0.75603   0.00000  Uiso   1.00
H577   H     0.13826   0.41914   0.61238   0.00000  Uiso   1.00
H578   H     0.32873   0.53909   0.78388   0.00000  Uiso   1.00
H579   H     0.19507   0.58086   0.88762   0.00000  Uiso   1.00
H580   H     0.19035   0.58157   0.61240   0.00000  Uiso   1.00
H581   H     0.14299   0.41843   0.88760   0.00000  Uiso   1.00
H582   H     0.20566   0.62847   0.54135   0.00000  Uiso   1.00
H583   H     0.12767   0.37153   0.95865   0.00000  Uiso   1.00
H584   H     0.20800   0.62808   0.95879   0.00000  Uiso   1.00
H585   H     0.12533   0.37192   0.54121   0.00000  Uiso   1.00
H586   H     0.00461   0.46091   0.71612   0.00000  Uiso   1.00
N587   N     0.31678   0.48598   0.73783   0.00000  Uiso   1.00
N588   N     0.01656   0.51402   0.76217   0.00000  Uiso   1.00
O589   O     0.12975   0.57952   0.75298   0.00000  Uiso   1.00
O590   O     0.20358   0.42048   0.74701   0.00000  Uiso   1.00
O591   O     0.22613   0.57054   0.74519   0.00000  Uiso   1.00
O592   O     0.10720   0.42946   0.75481   0.00000  Uiso   1.00
O593   O     0.11847   0.50450   0.81997   0.00000  Uiso   1.00
O594   O     0.21486   0.49550   0.68003   0.00000  Uiso   1.00
O595   O     0.21485   0.49552   0.81217   0.00000  Uiso   1.00
O596   O     0.11848   0.50448   0.68782   0.00000  Uiso   1.00
Zn597  Zn    0.10231   0.50600   0.75521   0.00000  Uiso   1.00
Zn598  Zn    0.23102   0.49400   0.74479   0.00000  Uiso   1.00
C599   C     0.51510   0.59809   0.74884   0.00000  Uiso   1.00
C600   C     0.51720   0.54567   0.90643   0.00000  Uiso   1.00
C601   C     0.49740   0.50040   0.61613   0.00000  Uiso   1.00
C602   C     0.50260   0.49960   0.88387   0.00000  Uiso   1.00
C603   C     0.51242   0.54643   0.59358   0.00000  Uiso   1.00
C604   C     0.48758   0.45357   0.90642   0.00000  Uiso   1.00
C605   C     0.51329   0.54675   0.54694   0.00000  Uiso   1.00
C606   C     0.48671   0.45325   0.95306   0.00000  Uiso   1.00
C607   C     0.49924   0.50013   0.52345   0.00000  Uiso   1.00
C608   C     0.50076   0.49987   0.97655   0.00000  Uiso   1.00
C609   C     0.48386   0.45372   0.54691   0.00000  Uiso   1.00
C610   C     0.48490   0.40191   0.75116   0.00000  Uiso   1.00
C611   C     0.51614   0.54628   0.95309   0.00000  Uiso   1.00
C612   C     0.52831   0.59260   0.52348   0.00000  Uiso   1.00
C613   C     0.47169   0.40740   0.97652   0.00000  Uiso   1.00
C614   C     0.52970   0.59236   0.97661   0.00000  Uiso   1.00
C615   C     0.47030   0.40764   0.52339   0.00000  Uiso   1.00
C616   C     0.52319   0.65222   0.74822   0.00000  Uiso   1.00
C617   C     0.47681   0.34778   0.75178   0.00000  Uiso   1.00
C618   C     0.50083   0.49999   0.83638   0.00000  Uiso   1.00
C619   C     0.49916   0.50001   0.66362   0.00000  Uiso   1.00
C620   C     0.48280   0.45433   0.59357   0.00000  Uiso   1.00
F621   F     0.57887   0.33889   0.74397   0.00000  Uiso   1.00
F622   F     0.42113   0.66111   0.75603   0.00000  Uiso   1.00
H623   H     0.47160   0.41914   0.61238   0.00000  Uiso   1.00
H624   H     0.66206   0.53909   0.78388   0.00000  Uiso   1.00
H625   H     0.52840   0.58086   0.88762   0.00000  Uiso   1.00
H626   H     0.52368   0.58157   0.61240   0.00000  Uiso   1.00
H627   H     0.47632   0.41843   0.88760   0.00000  Uiso   1.00
H628   H     0.53899   0.62847   0.54135   0.00000  Uiso   1.00
H629   H     0.46101   0.37153   0.95865   0.00000  Uiso   1.00
H630   H     0.54133   0.62808   0.95879   0.00000  Uiso   1.00
H631   H     0.45867   0.37192   0.54121   0.00000  Uiso   1.00
H632   H     0.33794   0.46091   0.71612   0.00000  Uiso   1.00
N633   N     0.65011   0.48598   0.73783   0.00000  Uiso   1.00
N634   N     0.34989   0.51402   0.76217   0.00000  Uiso   1.00
O635   O     0.46308   0.57952   0.75298   0.00000  Uiso   1.00
O636   O     0.53692   0.42048   0.74701   0.00000  Uiso   1.00
O637   O     0.55946   0.57054   0.74519   0.00000  Uiso   1.00
O638   O     0.44054   0.42946   0.75481   0.00000  Uiso   1.00
O639   O     0.45181   0.50450   0.81997   0.00000  Uiso   1.00
O640   O     0.54819   0.49550   0.68003   0.00000  Uiso   1.00
O641   O     0.54819   0.49552   0.81217   0.00000  Uiso   1.00
O642   O     0.45181   0.50448   0.68782   0.00000  Uiso   1.00
Zn643  Zn    0.43565   0.50600   0.75521   0.00000  Uiso   1.00
Zn644  Zn    0.56435   0.49400   0.74479   0.00000  Uiso   1.00
C645   C     0.84843   0.59809   0.74884   0.00000  Uiso   1.00
C646   C     0.85053   0.54567   0.90643   0.00000  Uiso   1.00
C647   C     0.83073   0.50040   0.61613   0.00000  Uiso   1.00
C648   C     0.83593   0.49960   0.88387   0.00000  Uiso   1.00
C649   C     0.84576   0.54643   0.59358   0.00000  Uiso   1.00
C650   C     0.82091   0.45357   0.90642   0.00000  Uiso   1.00
C651   C     0.84662   0.54675   0.54694   0.00000  Uiso   1.00
C652   C     0.82004   0.45325   0.95306   0.00000  Uiso   1.00
C653   C     0.83258   0.50013   0.52345   0.00000  Uiso   1.00
C654   C     0.83409   0.49987   0.97655   0.00000  Uiso   1.00
C655   C     0.81719   0.45372   0.54691   0.00000  Uiso   1.00
C656   C     0.81823   0.40191   0.75116   0.00000  Uiso   1.00
C657   C     0.84948   0.54628   0.95309   0.00000  Uiso   1.00
C658   C     0.86164   0.59260   0.52348   0.00000  Uiso   1.00
C659   C     0.80503   0.40740   0.97652   0.00000  Uiso   1.00
C660   C     0.86304   0.59236   0.97661   0.00000  Uiso   1.00
C661   C     0.80363   0.40764   0.52339   0.00000  Uiso   1.00
C662   C     0.85652   0.65222   0.74822   0.00000  Uiso   1.00
C663   C     0.81014   0.34778   0.75178   0.00000  Uiso   1.00
C664   C     0.83417   0.49999   0.83638   0.00000  Uiso   1.00
C665   C     0.83250   0.50001   0.66362   0.00000  Uiso   1.00
C666   C     0.81613   0.45433   0.59357   0.00000  Uiso   1.00
F667   F     0.91220   0.33889   0.74397   0.00000  Uiso   1.00
F668   F     0.75447   0.66111   0.75603   0.00000  Uiso   1.00
H669   H     0.80493   0.41914   0.61238   0.00000  Uiso   1.00
H670   H     0.99539   0.53909   0.78388   0.00000  Uiso   1.00
H671   H     0.86174   0.58086   0.88762   0.00000  Uiso   1.00
H672   H     0.85701   0.58157   0.61240   0.00000  Uiso   1.00
H673   H     0.80965   0.41843   0.88760   0.00000  Uiso   1.00
H674   H     0.87233   0.62847   0.54135   0.00000  Uiso   1.00
H675   H     0.79434   0.37153   0.95865   0.00000  Uiso   1.00
H676   H     0.87467   0.62808   0.95879   0.00000  Uiso   1.00
H677   H     0.79200   0.37192   0.54121   0.00000  Uiso   1.00
H678   H     0.67127   0.46091   0.71612   0.00000  Uiso   1.00
N679   N     0.98344   0.48598   0.73783   0.00000  Uiso   1.00
N680   N     0.68322   0.51402   0.76217   0.00000  Uiso   1.00
O681   O     0.79642   0.57952   0.75298   0.00000  Uiso   1.00
O682   O     0.87025   0.42048   0.74701   0.00000  Uiso   1.00
O683   O     0.89280   0.57054   0.74519   0.00000  Uiso   1.00
O684   O     0.77387   0.42946   0.75481   0.00000  Uiso   1.00
O685   O     0.78514   0.50450   0.81997   0.00000  Uiso   1.00
O686   O     0.88153   0.49550   0.68003   0.00000  Uiso   1.00
O687   O     0.88152   0.49552   0.81217   0.00000  Uiso   1.00
O688   O     0.78515   0.50448   0.68782   0.00000  Uiso   1.00
Zn689  Zn    0.76898   0.50600   0.75521   0.00000  Uiso   1.00
Zn690  Zn    0.89769   0.49400   0.74479   0.00000  Uiso   1.00
C691   C     0.18177   0.93143   0.74884   0.00000  Uiso   1.00
C692   C     0.18387   0.87900   0.90643   0.00000  Uiso   1.00
C693   C     0.16407   0.83373   0.61613   0.00000  Uiso   1.00
C694   C     0.16927   0.83293   0.88387   0.00000  Uiso   1.00
C695   C     0.17909   0.87976   0.59358   0.00000  Uiso   1.00
C696   C     0.15424   0.78691   0.90642   0.00000  Uiso   1.00
C697   C     0.17996   0.88008   0.54694   0.00000  Uiso   1.00
C698   C     0.15338   0.78658   0.95306   0.00000  Uiso   1.00
C699   C     0.16591   0.83346   0.52345   0.00000  Uiso   1.00
C700   C     0.16742   0.83321   0.97655   0.00000  Uiso   1.00
C701   C     0.15052   0.78705   0.54691   0.00000  Uiso   1.00
C702   C     0.15157   0.73524   0.75116   0.00000  Uiso   1.00
C703   C     0.18281   0.87961   0.95309   0.00000  Uiso   1.00
C704   C     0.19497   0.92593   0.52348   0.00000  Uiso   1.00
C705   C     0.13836   0.74074   0.97652   0.00000  Uiso   1.00
C706   C     0.19637   0.92570   0.97661   0.00000  Uiso   1.00
C707   C     0.13696   0.74097   0.52339   0.00000  Uiso   1.00
C708   C     0.18986   0.98555   0.74822   0.00000  Uiso   1.00
C709   C     0.14348   0.68111   0.75178   0.00000  Uiso   1.00
C710   C     0.16750   0.83332   0.83638   0.00000  Uiso   1.00
C711   C     0.16583   0.83334   0.66362   0.00000  Uiso   1.00
C712   C     0.14947   0.78767   0.59357   0.00000  Uiso   1.00
F713   F     0.24553   0.67223   0.74397   0.00000  Uiso   1.00
F714   F     0.08780   0.99444   0.75603   0.00000  Uiso   1.00
H715   H     0.13826   0.75248   0.61238   0.00000  Uiso   1.00
H716   H     0.32873   0.87242   0.78388   0.00000  Uiso   1.00
H717   H     0.19507   0.91419   0.88762   0.00000  Uiso   1.00
H718   H     0.19035   0.91490   0.61240   0.00000  Uiso   1.00
H719   H     0.14299   0.75177   0.88760   0.00000  Uiso   1.00
H720   H     0.20566   0.96180   0.54135   0.00000  Uiso   1.00
H721   H     0.12767   0.70487   0.95865   0.00000  Uiso   1.00
H722   H     0.20800   0.96142   0.95879   0.00000  Uiso   1.00
H723   H     0.12533   0.70525   0.54121   0.00000  Uiso   1.00
H724   H     0.00461   0.79425   0.71612   0.00000  Uiso   1.00
N725   N     0.31678   0.81932   0.73783   0.00000  Uiso   1.00
N726   N     0.01656   0.84735   0.76217   0.00000  Uiso   1.00
O727   O     0.12975   0.91286   0.75298   0.00000  Uiso   1.00
O728   O     0.20358   0.75381   0.74701   0.00000  Uiso   1.00
O729   O     0.22613   0.90387   0.74519   0.00000  Uiso   1.00
O730   O     0.10720   0.76279   0.75481   0.00000  Uiso   1.00
O731   O     0.11847   0.83784   0.81997   0.00000  Uiso   1.00
O732   O     0.21486   0.82883   0.68003   0.00000  Uiso   1.00
O733   O     0.21485   0.82885   0.81217   0.00000  Uiso   1.00
O734   O     0.11848   0.83781   0.68782   0.00000  Uiso   1.00
Zn735  Zn    0.10231   0.83933   0.75521   0.00000  Uiso   1.00
Zn736  Zn    0.23102   0.82734   0.74479   0.00000  Uiso   1.00
C737   C     0.51510   0.93143   0.74884   0.00000  Uiso   1.00
C738   C     0.51720   0.87900   0.90643   0.00000  Uiso   1.00
C739   C     0.49740   0.83373   0.61613   0.00000  Uiso   1.00
C740   C     0.50260   0.83293   0.88387   0.00000  Uiso   1.00
C741   C     0.51242   0.87976   0.59358   0.00000  Uiso   1.00
C742   C     0.48758   0.78691   0.90642   0.00000  Uiso   1.00
C743   C     0.51329   0.88008   0.54694   0.00000  Uiso   1.00
C744   C     0.48671   0.78658   0.95306   0.00000  Uiso   1.00
C745   C     0.49924   0.83346   0.52345   0.00000  Uiso   1.00
C746   C     0.50076   0.83321   0.97655   0.00000  Uiso   1.00
C747   C     0.48386   0.78705   0.54691   0.00000  Uiso   1.00
C748   C     0.48490   0.73524   0.75116   0.00000  Uiso   1.00
C749   C     0.51614   0.87961   0.95309   0.00000  Uiso   1.00
C750   C     0.52831   0.92593   0.52348   0.00000  Uiso   1.00
C751   C     0.47169   0.74074   0.97652   0.00000  Uiso   1.00
C752   C     0.52970   0.92570   0.97661   0.00000  Uiso   1.00
C753   C     0.47030   0.74097   0.52339   0.00000  Uiso   1.00
C754   C     0.52319   0.98555   0.74822   0.00000  Uiso   1.00
C755   C     0.47681   0.68111   0.75178   0.00000  Uiso   1.00
C756   C     0.50083   0.83332   0.83638   0.00000  Uiso   1.00
C757   C     0.49916   0.83334   0.66362   0.00000  Uiso   1.00
C758   C     0.48280   0.78767   0.59357   0.00000  Uiso   1.00
F759   F     0.57887   0.67223   0.74397   0.00000  Uiso   1.00
F760   F     0.42113   0.99444   0.75603   0.00000  Uiso   1.00
H761   H     0.47160   0.75248   0.61238   0.00000  Uiso   1.00
H762   H     0.66206   0.87242   0.78388   0.00000  Uiso   1.00
H763   H     0.52840   0.91419   0.88762   0.00000  Uiso   1.00
H764   H     0.52368   0.91490   0.61240   0.00000  Uiso   1.00
H765   H     0.47632   0.75177   0.88760   0.00000  Uiso   1.00
H766   H     0.53899   0.96180   0.54135   0.00000  Uiso   1.00
H767   H     0.46101   0.70487   0.95865   0.00000  Uiso   1.00
H768   H     0.54133   0.96142   0.95879   0.00000  Uiso   1.00
H769   H     0.45867   0.70525   0.54121   0.00000  Uiso   1.00
H770   H     0.33794   0.79425   0.71612   0.00000  Uiso   1.00
N771   N     0.65011   0.81932   0.73783   0.00000  Uiso   1.00
N772   N     0.34989   0.84735   0.76217   0.00000  Uiso   1.00
O773   O     0.46308   0.91286   0.75298   0.00000  Uiso   1.00
O774   O     0.53692   0.75381   0.74701   0.00000  Uiso   1.00
O775   O     0.55946   0.90387   0.74519   0.00000  Uiso   1.00
O776   O     0.44054   0.76279   0.75481   0.00000  Uiso   1.00
O777   O     0.45181   0.83784   0.81997   0.00000  Uiso   1.00
O778   O     0.54819   0.82883   0.68003   0.00000  Uiso   1.00
O779   O     0.54819   0.82885   0.81217   0.00000  Uiso   1.00
O780   O     0.45181   0.83781   0.68782   0.00000  Uiso   1.00
Zn781  Zn    0.43565   0.83933   0.75521   0.00000  Uiso   1.00
Zn782  Zn    0.56435   0.82734   0.74479   0.00000  Uiso   1.00
C783   C     0.84843   0.93143   0.74884   0.00000  Uiso   1.00
C784   C     0.85053   0.87900   0.90643   0.00000  Uiso   1.00
C785   C     0.83073   0.83373   0.61613   0.00000  Uiso   1.00
C786   C     0.83593   0.83293   0.88387   0.00000  Uiso   1.00
C787   C     0.84576   0.87976   0.59358   0.00000  Uiso   1.00
C788   C     0.82091   0.78691   0.90642   0.00000  Uiso   1.00
C789   C     0.84662   0.88008   0.54694   0.00000  Uiso   1.00
C790   C     0.82004   0.78658   0.95306   0.00000  Uiso   1.00
C791   C     0.83258   0.83346   0.52345   0.00000  Uiso   1.00
C792   C     0.83409   0.83321   0.97655   0.00000  Uiso   1.00
C793   C     0.81719   0.78705   0.54691   0.00000  Uiso   1.00
C794   C     0.81823   0.73524   0.75116   0.00000  Uiso   1.00
C795   C     0.84948   0.87961   0.95309   0.00000  Uiso   1.00
C796   C     0.86164   0.92593   0.52348   0.00000  Uiso   1.00
C797   C     0.80503   0.74074   0.97652   0.00000  Uiso   1.00
C798   C     0.86304   0.92570   0.97661   0.00000  Uiso   1.00
C799   C     0.80363   0.74097   0.52339   0.00000  Uiso   1.00
C800   C     0.85652   0.98555   0.74822   0.00000  Uiso   1.00
C801   C     0.81014   0.68111   0.75178   0.00000  Uiso   1.00
C802   C     0.83417   0.83332   0.83638   0.00000  Uiso   1.00
C803   C     0.83250   0.83334   0.66362   0.00000  Uiso   1.00
C804   C     0.81613   0.78767   0.59357   0.00000  Uiso   1.00
F805   F     0.91220   0.67223   0.74397   0.00000  Uiso   1.00
F806   F     0.75447   0.99444   0.75603   0.00000  Uiso   1.00
H807   H     0.80493   0.75248   0.61238   0.00000  Uiso   1.00
H808   H     0.99539   0.87242   0.78388   0.00000  Uiso   1.00
H809   H     0.86174   0.91419   0.88762   0.00000  Uiso   1.00
H810   H     0.85701   0.91490   0.61240   0.00000  Uiso   1.00
H811   H     0.80965   0.75177   0.88760   0.00000  Uiso   1.00
H812   H     0.87233   0.96180   0.54135   0.00000  Uiso   1.00
H813   H     0.79434   0.70487   0.95865   0.00000  Uiso   1.00
H814   H     0.87467   0.96142   0.95879   0.00000  Uiso   1.00
H815   H     0.79200   0.70525   0.54121   0.00000  Uiso   1.00
H816   H     0.67127   0.79425   0.71612   0.00000  Uiso   1.00
N817   N     0.98344   0.81932   0.73783   0.00000  Uiso   1.00
N818   N     0.68322   0.84735   0.76217   0.00000  Uiso   1.00
O819   O     0.79642   0.91286   0.75298   0.00000  Uiso   1.00
O820   O     0.87025   0.75381   0.74701   0.00000  Uiso   1.00
O821   O     0.89280   0.90387   0.74519   0.00000  Uiso   1.00
O822   O     0.77387   0.76279   0.75481   0.00000  Uiso   1.00
O823   O     0.78514   0.83784   0.81997   0.00000  Uiso   1.00
O824   O     0.88153   0.82883   0.68003   0.00000  Uiso   1.00
O825   O     0.88152   0.82885   0.81217   0.00000  Uiso   1.00
O826   O     0.78515   0.83781   0.68782   0.00000  Uiso   1.00
Zn827  Zn    0.76898   0.83933   0.75521   0.00000  Uiso   1.00
Zn828  Zn    0.89769   0.82734   0.74479   0.00000  Uiso   1.00
loop_
_geom_bond_atom_site_label_1
_geom_bond_atom_site_label_2
_geom_bond_distance
_geom_bond_site_symmetry_2
_ccdc_geom_bond_type
C1     O37     1.275   .     A
C1     C18     1.401   .     S
C1     O39     1.288   .     A
C2     C4      1.391   .     A
C2     H27     1.086   .     S
C2     C13     1.384   .     A
C3     C21     1.414   .     S
C3     C22     1.391   .     A
C3     C5      1.391   .     A
C4     C6      1.391   .     A
C4     C20     1.414   .     S
C5     H28     1.086   .     S
C5     C7      1.384   .     A
C6     H29     1.086   .     S
C6     C8      1.384   .     A
C7     C9      1.413   .     A
C7     C14     1.400   .     A
C8     C15     1.400   .     A
C8     C10     1.413   .     A
C9     C11     1.414   .     A
C9     C424    1.391   1_554 S
C10    C13     1.414   .     A
C10    C423    1.391   .     S
C11    C22     1.384   .     A
C11    C17     1.400   .     A
C12    O40     1.288   .     A
C12    C19     1.401   .     S
C12    O38     1.275   .     A
C13    C16     1.400   .     A
C14    H30     1.084   .     S
C14    C430    1.390   1_554 S
C15    H31     1.084   .     S
C15    C431    1.390   .     S
C16    H32     1.084   .     S
C16    C428    1.390   .     S
C17    H33     1.084   .     S
C17    C429    1.390   1_554 S
C18    C157    1.348   .     S
C18    F161    1.365   .     S
C19    C294    1.348   1_545 S
C19    F300    1.365   1_545 S
C20    O41     1.285   .     A
C20    O43     1.285   .     A
C21    O44     1.285   .     A
C21    O42     1.285   .     A
C22    H25     1.086   .     S
F23    C294    1.365   1_545 S
F24    C157    1.365   .     S
H26    N82     1.029   .     S
H34    N127    1.029   1_455 S
N35    Zn46    2.018   .     S
N35    H80     1.029   .     S
N35    N82     1.277   .     S
N36    Zn45    2.018   .     S
N36    H118    1.029   1_455 S
N36    N127    1.277   1_455 S
O37    Zn45    1.969   .     S
O38    Zn46    1.969   .     S
O39    Zn46    1.989   .     S
O40    Zn45    1.989   .     S
O41    Zn45    1.987   .     S
O42    Zn46    1.987   .     S
O43    Zn46    2.011   .     S
O44    Zn45    2.011   .     S
C47    O83     1.275   .     A
C47    C64     1.401   .     S
C47    O85     1.288   .     A
C48    C50     1.391   .     A
C48    H73     1.086   .     S
C48    C59     1.384   .     A
C49    C67     1.414   .     S
C49    C68     1.391   .     A
C49    C51     1.391   .     A
C50    C52     1.391   .     A
C50    C66     1.414   .     S
C51    H74     1.086   .     S
C51    C53     1.384   .     A
C52    H75     1.086   .     S
C52    C54     1.384   .     A
C53    C55     1.413   .     A
C53    C60     1.400   .     A
C54    C61     1.400   .     A
C54    C56     1.413   .     A
C55    C57     1.414   .     A
C55    C470    1.391   1_554 S
C56    C59     1.414   .     A
C56    C469    1.391   .     S
C57    C68     1.384   .     A
C57    C63     1.400   .     A
C58    O86     1.288   .     A
C58    C65     1.401   .     S
C58    O84     1.275   .     A
C59    C62     1.400   .     A
C60    H76     1.084   .     S
C60    C476    1.390   1_554 S
C61    H77     1.084   .     S
C61    C477    1.390   .     S
C62    H78     1.084   .     S
C62    C474    1.390   .     S
C63    H79     1.084   .     S
C63    C475    1.390   1_554 S
C64    C203    1.348   .     S
C64    F207    1.365   .     S
C65    C340    1.348   1_545 S
C65    F346    1.365   1_545 S
C66    O87     1.285   .     A
C66    O89     1.285   .     A
C67    O90     1.285   .     A
C67    O88     1.285   .     A
C68    H71     1.086   .     S
F69    C340    1.365   1_545 S
F70    C203    1.365   .     S
H72    N128    1.029   .     S
N81    Zn92    2.018   .     S
N81    H126    1.029   .     S
N81    N128    1.277   .     S
N82    Zn91    2.018   .     S
O83    Zn91    1.969   .     S
O84    Zn92    1.969   .     S
O85    Zn92    1.989   .     S
O86    Zn91    1.989   .     S
O87    Zn91    1.987   .     S
O88    Zn92    1.987   .     S
O89    Zn92    2.011   .     S
O90    Zn91    2.011   .     S
C93    O129    1.275   .     A
C93    C110    1.401   .     S
C93    O131    1.288   .     A
C94    C96     1.391   .     A
C94    H119    1.086   .     S
C94    C105    1.384   .     A
C95    C113    1.414   .     S
C95    C114    1.391   .     A
C95    C97     1.391   .     A
C96    C98     1.391   .     A
C96    C112    1.414   .     S
C97    H120    1.086   .     S
C97    C99     1.384   .     A
C98    H121    1.086   .     S
C98    C100    1.384   .     A
C99    C101    1.413   .     A
C99    C106    1.400   .     A
C100   C107    1.400   .     A
C100   C102    1.413   .     A
C101   C103    1.414   .     A
C101   C516    1.391   1_554 S
C102   C105    1.414   .     A
C102   C515    1.391   .     S
C103   C114    1.384   .     A
C103   C109    1.400   .     A
C104   O132    1.288   .     A
C104   C111    1.401   .     S
C104   O130    1.275   .     A
C105   C108    1.400   .     A
C106   H122    1.084   .     S
C106   C522    1.390   1_554 S
C107   H123    1.084   .     S
C107   C523    1.390   .     S
C108   H124    1.084   .     S
C108   C520    1.390   .     S
C109   H125    1.084   .     S
C109   C521    1.390   1_554 S
C110   C249    1.348   .     S
C110   F253    1.365   .     S
C111   C386    1.348   1_545 S
C111   F392    1.365   1_545 S
C112   O133    1.285   .     A
C112   O135    1.285   .     A
C113   O136    1.285   .     A
C113   O134    1.285   .     A
C114   H117    1.086   .     S
F115   C386    1.365   1_545 S
F116   C249    1.365   .     S
H118   N36     1.029   1_655 S
N127   Zn138   2.018   .     S
N127   H34     1.029   1_655 S
N127   N36     1.277   1_655 S
N128   Zn137   2.018   .     S
O129   Zn137   1.969   .     S
O130   Zn138   1.969   .     S
O131   Zn138   1.989   .     S
O132   Zn137   1.989   .     S
O133   Zn137   1.987   .     S
O134   Zn138   1.987   .     S
O135   Zn138   2.011   .     S
O136   Zn137   2.011   .     S
C139   O175    1.275   .     A
C139   C156    1.401   .     S
C139   O177    1.288   .     A
C140   C142    1.391   .     A
C140   H165    1.086   .     S
C140   C151    1.384   .     A
C141   C159    1.414   .     S
C141   C160    1.391   .     A
C141   C143    1.391   .     A
C142   C144    1.391   .     A
C142   C158    1.414   .     S
C143   H166    1.086   .     S
C143   C145    1.384   .     A
C144   H167    1.086   .     S
C144   C146    1.384   .     A
C145   C147    1.413   .     A
C145   C152    1.400   .     A
C146   C153    1.400   .     A
C146   C148    1.413   .     A
C147   C149    1.414   .     A
C147   C562    1.391   1_554 S
C148   C151    1.414   .     A
C148   C561    1.391   .     S
C149   C160    1.384   .     A
C149   C155    1.400   .     A
C150   O178    1.288   .     A
C150   C157    1.401   .     S
C150   O176    1.275   .     A
C151   C154    1.400   .     A
C152   H168    1.084   .     S
C152   C568    1.390   1_554 S
C153   H169    1.084   .     S
C153   C569    1.390   .     S
C154   H170    1.084   .     S
C154   C566    1.390   .     S
C155   H171    1.084   .     S
C155   C567    1.390   1_554 S
C156   C295    1.348   .     S
C156   F299    1.365   .     S
C158   O179    1.285   .     A
C158   O181    1.285   .     A
C159   O182    1.285   .     A
C159   O180    1.285   .     A
C160   H163    1.086   .     S
F162   C295    1.365   .     S
H164   N220    1.029   .     S
H172   N265    1.029   1_455 S
N173   Zn184   2.018   .     S
N173   H218    1.029   .     S
N173   N220    1.277   .     S
N174   Zn183   2.018   .     S
N174   H256    1.029   1_455 S
N174   N265    1.277   1_455 S
O175   Zn183   1.969   .     S
O176   Zn184   1.969   .     S
O177   Zn184   1.989   .     S
O178   Zn183   1.989   .     S
O179   Zn183   1.987   .     S
O180   Zn184   1.987   .     S
O181   Zn184   2.011   .     S
O182   Zn183   2.011   .     S
C185   O221    1.275   .     A
C185   C202    1.401   .     S
C185   O223    1.288   .     A
C186   C188    1.391   .     A
C186   H211    1.086   .     S
C186   C197    1.384   .     A
C187   C205    1.414   .     S
C187   C206    1.391   .     A
C187   C189    1.391   .     A
C188   C190    1.391   .     A
C188   C204    1.414   .     S
C189   H212    1.086   .     S
C189   C191    1.384   .     A
C190   H213    1.086   .     S
C190   C192    1.384   .     A
C191   C193    1.413   .     A
C191   C198    1.400   .     A
C192   C199    1.400   .     A
C192   C194    1.413   .     A
C193   C195    1.414   .     A
C193   C608    1.391   1_554 S
C194   C197    1.414   .     A
C194   C607    1.391   .     S
C195   C206    1.384   .     A
C195   C201    1.400   .     A
C196   O224    1.288   .     A
C196   C203    1.401   .     S
C196   O222    1.275   .     A
C197   C200    1.400   .     A
C198   H214    1.084   .     S
C198   C614    1.390   1_554 S
C199   H215    1.084   .     S
C199   C615    1.390   .     S
C200   H216    1.084   .     S
C200   C612    1.390   .     S
C201   H217    1.084   .     S
C201   C613    1.390   1_554 S
C202   C341    1.348   .     S
C202   F345    1.365   .     S
C204   O225    1.285   .     A
C204   O227    1.285   .     A
C205   O228    1.285   .     A
C205   O226    1.285   .     A
C206   H209    1.086   .     S
F208   C341    1.365   .     S
H210   N266    1.029   .     S
N219   Zn230   2.018   .     S
N219   H264    1.029   .     S
N219   N266    1.277   .     S
N220   Zn229   2.018   .     S
O221   Zn229   1.969   .     S
O222   Zn230   1.969   .     S
O223   Zn230   1.989   .     S
O224   Zn229   1.989   .     S
O225   Zn229   1.987   .     S
O226   Zn230   1.987   .     S
O227   Zn230   2.011   .     S
O228   Zn229   2.011   .     S
C231   O267    1.275   .     A
C231   C248    1.401   .     S
C231   O269    1.288   .     A
C232   C234    1.391   .     A
C232   H257    1.086   .     S
C232   C243    1.384   .     A
C233   C251    1.414   .     S
C233   C252    1.391   .     A
C233   C235    1.391   .     A
C234   C236    1.391   .     A
C234   C250    1.414   .     S
C235   H258    1.086   .     S
C235   C237    1.384   .     A
C236   H259    1.086   .     S
C236   C238    1.384   .     A
C237   C239    1.413   .     A
C237   C244    1.400   .     A
C238   C245    1.400   .     A
C238   C240    1.413   .     A
C239   C241    1.414   .     A
C239   C654    1.391   1_554 S
C240   C243    1.414   .     A
C240   C653    1.391   .     S
C241   C252    1.384   .     A
C241   C247    1.400   .     A
C242   O270    1.288   .     A
C242   C249    1.401   .     S
C242   O268    1.275   .     A
C243   C246    1.400   .     A
C244   H260    1.084   .     S
C244   C660    1.390   1_554 S
C245   H261    1.084   .     S
C245   C661    1.390   .     S
C246   H262    1.084   .     S
C246   C658    1.390   .     S
C247   H263    1.084   .     S
C247   C659    1.390   1_554 S
C248   C387    1.348   .     S
C248   F391    1.365   .     S
C250   O271    1.285   .     A
C250   O273    1.285   .     A
C251   O274    1.285   .     A
C251   O272    1.285   .     A
C252   H255    1.086   .     S
F254   C387    1.365   .     S
H256   N174    1.029   1_655 S
N265   Zn276   2.018   .     S
N265   H172    1.029   1_655 S
N265   N174    1.277   1_655 S
N266   Zn275   2.018   .     S
O267   Zn275   1.969   .     S
O268   Zn276   1.969   .     S
O269   Zn276   1.989   .     S
O270   Zn275   1.989   .     S
O271   Zn275   1.987   .     S
O272   Zn276   1.987   .     S
O273   Zn276   2.011   .     S
O274   Zn275   2.011   .     S
C277   O313    1.275   .     A
C277   C294    1.401   .     S
C277   O315    1.288   .     A
C278   C280    1.391   .     A
C278   H303    1.086   .     S
C278   C289    1.384   .     A
C279   C297    1.414   .     S
C279   C298    1.391   .     A
C279   C281    1.391   .     A
C280   C282    1.391   .     A
C280   C296    1.414   .     S
C281   H304    1.086   .     S
C281   C283    1.384   .     A
C282   H305    1.086   .     S
C282   C284    1.384   .     A
C283   C285    1.413   .     A
C283   C290    1.400   .     A
C284   C291    1.400   .     A
C284   C286    1.413   .     A
C285   C287    1.414   .     A
C285   C700    1.391   1_554 S
C286   C289    1.414   .     A
C286   C699    1.391   .     S
C287   C298    1.384   .     A
C287   C293    1.400   .     A
C288   O316    1.288   .     A
C288   C295    1.401   .     S
C288   O314    1.275   .     A
C289   C292    1.400   .     A
C290   H306    1.084   .     S
C290   C706    1.390   1_554 S
C291   H307    1.084   .     S
C291   C707    1.390   .     S
C292   H308    1.084   .     S
C292   C704    1.390   .     S
C293   H309    1.084   .     S
C293   C705    1.390   1_554 S
C294   C19     1.348   1_565 S
C294   F23     1.365   1_565 S
C296   O317    1.285   .     A
C296   O319    1.285   .     A
C297   O320    1.285   .     A
C297   O318    1.285   .     A
C298   H301    1.086   .     S
F300   C19     1.365   1_565 S
H302   N358    1.029   .     S
H310   N403    1.029   1_455 S
N311   Zn322   2.018   .     S
N311   H356    1.029   .     S
N311   N358    1.277   .     S
N312   Zn321   2.018   .     S
N312   H394    1.029   1_455 S
N312   N403    1.277   1_455 S
O313   Zn321   1.969   .     S
O314   Zn322   1.969   .     S
O315   Zn322   1.989   .     S
O316   Zn321   1.989   .     S
O317   Zn321   1.987   .     S
O318   Zn322   1.987   .     S
O319   Zn322   2.011   .     S
O320   Zn321   2.011   .     S
C323   O359    1.275   .     A
C323   C340    1.401   .     S
C323   O361    1.288   .     A
C324   C326    1.391   .     A
C324   H349    1.086   .     S
C324   C335    1.384   .     A
C325   C343    1.414   .     S
C325   C344    1.391   .     A
C325   C327    1.391   .     A
C326   C328    1.391   .     A
C326   C342    1.414   .     S
C327   H350    1.086   .     S
C327   C329    1.384   .     A
C328   H351    1.086   .     S
C328   C330    1.384   .     A
C329   C331    1.413   .     A
C329   C336    1.400   .     A
C330   C337    1.400   .     A
C330   C332    1.413   .     A
C331   C333    1.414   .     A
C331   C746    1.391   1_554 S
C332   C335    1.414   .     A
C332   C745    1.391   .     S
C333   C344    1.384   .     A
C333   C339    1.400   .     A
C334   O362    1.288   .     A
C334   C341    1.401   .     S
C334   O360    1.275   .     A
C335   C338    1.400   .     A
C336   H352    1.084   .     S
C336   C752    1.390   1_554 S
C337   H353    1.084   .     S
C337   C753    1.390   .     S
C338   H354    1.084   .     S
C338   C750    1.390   .     S
C339   H355    1.084   .     S
C339   C751    1.390   1_554 S
C340   C65     1.348   1_565 S
C340   F69     1.365   1_565 S
C342   O363    1.285   .     A
C342   O365    1.285   .     A
C343   O366    1.285   .     A
C343   O364    1.285   .     A
C344   H347    1.086   .     S
F346   C65     1.365   1_565 S
H348   N404    1.029   .     S
N357   Zn368   2.018   .     S
N357   H402    1.029   .     S
N357   N404    1.277   .     S
N358   Zn367   2.018   .     S
O359   Zn367   1.969   .     S
O360   Zn368   1.969   .     S
O361   Zn368   1.989   .     S
O362   Zn367   1.989   .     S
O363   Zn367   1.987   .     S
O364   Zn368   1.987   .     S
O365   Zn368   2.011   .     S
O366   Zn367   2.011   .     S
C369   O405    1.275   .     A
C369   C386    1.401   .     S
C369   O407    1.288   .     A
C370   C372    1.391   .     A
C370   H395    1.086   .     S
C370   C381    1.384   .     A
C371   C389    1.414   .     S
C371   C390    1.391   .     A
C371   C373    1.391   .     A
C372   C374    1.391   .     A
C372   C388    1.414   .     S
C373   H396    1.086   .     S
C373   C375    1.384   .     A
C374   H397    1.086   .     S
C374   C376    1.384   .     A
C375   C377    1.413   .     A
C375   C382    1.400   .     A
C376   C383    1.400   .     A
C376   C378    1.413   .     A
C377   C379    1.414   .     A
C377   C792    1.391   1_554 S
C378   C381    1.414   .     A
C378   C791    1.391   .     S
C379   C390    1.384   .     A
C379   C385    1.400   .     A
C380   O408    1.288   .     A
C380   C387    1.401   .     S
C380   O406    1.275   .     A
C381   C384    1.400   .     A
C382   H398    1.084   .     S
C382   C798    1.390   1_554 S
C383   H399    1.084   .     S
C383   C799    1.390   .     S
C384   H400    1.084   .     S
C384   C796    1.390   .     S
C385   H401    1.084   .     S
C385   C797    1.390   1_554 S
C386   C111    1.348   1_565 S
C386   F115    1.365   1_565 S
C388   O409    1.285   .     A
C388   O411    1.285   .     A
C389   O412    1.285   .     A
C389   O410    1.285   .     A
C390   H393    1.086   .     S
F392   C111    1.365   1_565 S
H394   N312    1.029   1_655 S
N403   Zn414   2.018   .     S
N403   H310    1.029   1_655 S
N403   N312    1.277   1_655 S
N404   Zn413   2.018   .     S
O405   Zn413   1.969   .     S
O406   Zn414   1.969   .     S
O407   Zn414   1.989   .     S
O408   Zn413   1.989   .     S
O409   Zn413   1.987   .     S
O410   Zn414   1.987   .     S
O411   Zn414   2.011   .     S
O412   Zn413   2.011   .     S
C415   O451    1.275   .     A
C415   C432    1.401   .     S
C415   O453    1.288   .     A
C416   C418    1.391   .     A
C416   H441    1.086   .     S
C416   C427    1.384   .     A
C417   C435    1.414   .     S
C417   C436    1.391   .     A
C417   C419    1.391   .     A
C418   C420    1.391   .     A
C418   C434    1.414   .     S
C419   H442    1.086   .     S
C419   C421    1.384   .     A
C420   H443    1.086   .     S
C420   C422    1.384   .     A
C421   C423    1.413   .     A
C421   C428    1.400   .     A
C422   C429    1.400   .     A
C422   C424    1.413   .     A
C423   C425    1.414   .     A
C424   C427    1.414   .     A
C424   C9      1.391   1_556 S
C425   C436    1.384   .     A
C425   C431    1.400   .     A
C426   O454    1.288   .     A
C426   C433    1.401   .     S
C426   O452    1.275   .     A
C427   C430    1.400   .     A
C428   H444    1.084   .     S
C429   H445    1.084   .     S
C429   C17     1.390   1_556 S
C430   H446    1.084   .     S
C430   C14     1.390   1_556 S
C431   H447    1.084   .     S
C432   C571    1.348   .     S
C432   F575    1.365   .     S
C433   C708    1.348   1_545 S
C433   F714    1.365   1_545 S
C434   O455    1.285   .     A
C434   O457    1.285   .     A
C435   O458    1.285   .     A
C435   O456    1.285   .     A
C436   H439    1.086   .     S
F437   C708    1.365   1_545 S
F438   C571    1.365   .     S
H440   N496    1.029   .     S
H448   N541    1.029   1_455 S
N449   Zn460   2.018   .     S
N449   H494    1.029   .     S
N449   N496    1.277   .     S
N450   Zn459   2.018   .     S
N450   H532    1.029   1_455 S
N450   N541    1.277   1_455 S
O451   Zn459   1.969   .     S
O452   Zn460   1.969   .     S
O453   Zn460   1.989   .     S
O454   Zn459   1.989   .     S
O455   Zn459   1.987   .     S
O456   Zn460   1.987   .     S
O457   Zn460   2.011   .     S
O458   Zn459   2.011   .     S
C461   O497    1.275   .     A
C461   C478    1.401   .     S
C461   O499    1.288   .     A
C462   C464    1.391   .     A
C462   H487    1.086   .     S
C462   C473    1.384   .     A
C463   C481    1.414   .     S
C463   C482    1.391   .     A
C463   C465    1.391   .     A
C464   C466    1.391   .     A
C464   C480    1.414   .     S
C465   H488    1.086   .     S
C465   C467    1.384   .     A
C466   H489    1.086   .     S
C466   C468    1.384   .     A
C467   C469    1.413   .     A
C467   C474    1.400   .     A
C468   C475    1.400   .     A
C468   C470    1.413   .     A
C469   C471    1.414   .     A
C470   C473    1.414   .     A
C470   C55     1.391   1_556 S
C471   C482    1.384   .     A
C471   C477    1.400   .     A
C472   O500    1.288   .     A
C472   C479    1.401   .     S
C472   O498    1.275   .     A
C473   C476    1.400   .     A
C474   H490    1.084   .     S
C475   H491    1.084   .     S
C475   C63     1.390   1_556 S
C476   H492    1.084   .     S
C476   C60     1.390   1_556 S
C477   H493    1.084   .     S
C478   C617    1.348   .     S
C478   F621    1.365   .     S
C479   C754    1.348   1_545 S
C479   F760    1.365   1_545 S
C480   O501    1.285   .     A
C480   O503    1.285   .     A
C481   O504    1.285   .     A
C481   O502    1.285   .     A
C482   H485    1.086   .     S
F483   C754    1.365   1_545 S
F484   C617    1.365   .     S
H486   N542    1.029   .     S
N495   Zn506   2.018   .     S
N495   H540    1.029   .     S
N495   N542    1.277   .     S
N496   Zn505   2.018   .     S
O497   Zn505   1.969   .     S
O498   Zn506   1.969   .     S
O499   Zn506   1.989   .     S
O500   Zn505   1.989   .     S
O501   Zn505   1.987   .     S
O502   Zn506   1.987   .     S
O503   Zn506   2.011   .     S
O504   Zn505   2.011   .     S
C507   O543    1.275   .     A
C507   C524    1.401   .     S
C507   O545    1.288   .     A
C508   C510    1.391   .     A
C508   H533    1.086   .     S
C508   C519    1.384   .     A
C509   C527    1.414   .     S
C509   C528    1.391   .     A
C509   C511    1.391   .     A
C510   C512    1.391   .     A
C510   C526    1.414   .     S
C511   H534    1.086   .     S
C511   C513    1.384   .     A
C512   H535    1.086   .     S
C512   C514    1.384   .     A
C513   C515    1.413   .     A
C513   C520    1.400   .     A
C514   C521    1.400   .     A
C514   C516    1.413   .     A
C515   C517    1.414   .     A
C516   C519    1.414   .     A
C516   C101    1.391   1_556 S
C517   C528    1.384   .     A
C517   C523    1.400   .     A
C518   O546    1.288   .     A
C518   C525    1.401   .     S
C518   O544    1.275   .     A
C519   C522    1.400   .     A
C520   H536    1.084   .     S
C521   H537    1.084   .     S
C521   C109    1.390   1_556 S
C522   H538    1.084   .     S
C522   C106    1.390   1_556 S
C523   H539    1.084   .     S
C524   C663    1.348   .     S
C524   F667    1.365   .     S
C525   C800    1.348   1_545 S
C525   F806    1.365   1_545 S
C526   O547    1.285   .     A
C526   O549    1.285   .     A
C527   O550    1.285   .     A
C527   O548    1.285   .     A
C528   H531    1.086   .     S
F529   C800    1.365   1_545 S
F530   C663    1.365   .     S
H532   N450    1.029   1_655 S
N541   Zn552   2.018   .     S
N541   H448    1.029   1_655 S
N541   N450    1.277   1_655 S
N542   Zn551   2.018   .     S
O543   Zn551   1.969   .     S
O544   Zn552   1.969   .     S
O545   Zn552   1.989   .     S
O546   Zn551   1.989   .     S
O547   Zn551   1.987   .     S
O548   Zn552   1.987   .     S
O549   Zn552   2.011   .     S
O550   Zn551   2.011   .     S
C553   O589    1.275   .     A
C553   C570    1.401   .     S
C553   O591    1.288   .     A
C554   C556    1.391   .     A
C554   H579    1.086   .     S
C554   C565    1.384   .     A
C555   C573    1.414   .     S
C555   C574    1.391   .     A
C555   C557    1.391   .     A
C556   C558    1.391   .     A
C556   C572    1.414   .     S
C557   H580    1.086   .     S
C557   C559    1.384   .     A
C558   H581    1.086   .     S
C558   C560    1.384   .     A
C559   C561    1.413   .     A
C559   C566    1.400   .     A
C560   C567    1.400   .     A
C560   C562    1.413   .     A
C561   C563    1.414   .     A
C562   C565    1.414   .     A
C562   C147    1.391   1_556 S
C563   C574    1.384   .     A
C563   C569    1.400   .     A
C564   O592    1.288   .     A
C564   C571    1.401   .     S
C564   O590    1.275   .     A
C565   C568    1.400   .     A
C566   H582    1.084   .     S
C567   H583    1.084   .     S
C567   C155    1.390   1_556 S
C568   H584    1.084   .     S
C568   C152    1.390   1_556 S
C569   H585    1.084   .     S
C570   C709    1.348   .     S
C570   F713    1.365   .     S
C572   O593    1.285   .     A
C572   O595    1.285   .     A
C573   O596    1.285   .     A
C573   O594    1.285   .     A
C574   H577    1.086   .     S
F576   C709    1.365   .     S
H578   N634    1.029   .     S
H586   N679    1.029   1_455 S
N587   Zn598   2.018   .     S
N587   H632    1.029   .     S
N587   N634    1.277   .     S
N588   Zn597   2.018   .     S
N588   H670    1.029   1_455 S
N588   N679    1.277   1_455 S
O589   Zn597   1.969   .     S
O590   Zn598   1.969   .     S
O591   Zn598   1.989   .     S
O592   Zn597   1.989   .     S
O593   Zn597   1.987   .     S
O594   Zn598   1.987   .     S
O595   Zn598   2.011   .     S
O596   Zn597   2.011   .     S
C599   O635    1.275   .     A
C599   C616    1.401   .     S
C599   O637    1.288   .     A
C600   C602    1.391   .     A
C600   H625    1.086   .     S
C600   C611    1.384   .     A
C601   C619    1.414   .     S
C601   C620    1.391   .     A
C601   C603    1.391   .     A
C602   C604    1.391   .     A
C602   C618    1.414   .     S
C603   H626    1.086   .     S
C603   C605    1.384   .     A
C604   H627    1.086   .     S
C604   C606    1.384   .     A
C605   C607    1.413   .     A
C605   C612    1.400   .     A
C606   C613    1.400   .     A
C606   C608    1.413   .     A
C607   C609    1.414   .     A
C608   C611    1.414   .     A
C608   C193    1.391   1_556 S
C609   C620    1.384   .     A
C609   C615    1.400   .     A
C610   O638    1.288   .     A
C610   C617    1.401   .     S
C610   O636    1.275   .     A
C611   C614    1.400   .     A
C612   H628    1.084   .     S
C613   H629    1.084   .     S
C613   C201    1.390   1_556 S
C614   H630    1.084   .     S
C614   C198    1.390   1_556 S
C615   H631    1.084   .     S
C616   C755    1.348   .     S
C616   F759    1.365   .     S
C618   O639    1.285   .     A
C618   O641    1.285   .     A
C619   O642    1.285   .     A
C619   O640    1.285   .     A
C620   H623    1.086   .     S
F622   C755    1.365   .     S
H624   N680    1.029   .     S
N633   Zn644   2.018   .     S
N633   H678    1.029   .     S
N633   N680    1.277   .     S
N634   Zn643   2.018   .     S
O635   Zn643   1.969   .     S
O636   Zn644   1.969   .     S
O637   Zn644   1.989   .     S
O638   Zn643   1.989   .     S
O639   Zn643   1.987   .     S
O640   Zn644   1.987   .     S
O641   Zn644   2.011   .     S
O642   Zn643   2.011   .     S
C645   O681    1.275   .     A
C645   C662    1.401   .     S
C645   O683    1.288   .     A
C646   C648    1.391   .     A
C646   H671    1.086   .     S
C646   C657    1.384   .     A
C647   C665    1.414   .     S
C647   C666    1.391   .     A
C647   C649    1.391   .     A
C648   C650    1.391   .     A
C648   C664    1.414   .     S
C649   H672    1.086   .     S
C649   C651    1.384   .     A
C650   H673    1.086   .     S
C650   C652    1.384   .     A
C651   C653    1.413   .     A
C651   C658    1.400   .     A
C652   C659    1.400   .     A
C652   C654    1.413   .     A
C653   C655    1.414   .     A
C654   C657    1.414   .     A
C654   C239    1.391   1_556 S
C655   C666    1.384   .     A
C655   C661    1.400   .     A
C656   O684    1.288   .     A
C656   C663    1.401   .     S
C656   O682    1.275   .     A
C657   C660    1.400   .     A
C658   H674    1.084   .     S
C659   H675    1.084   .     S
C659   C247    1.390   1_556 S
C660   H676    1.084   .     S
C660   C244    1.390   1_556 S
C661   H677    1.084   .     S
C662   C801    1.348   .     S
C662   F805    1.365   .     S
C664   O685    1.285   .     A
C664   O687    1.285   .     A
C665   O688    1.285   .     A
C665   O686    1.285   .     A
C666   H669    1.086   .     S
F668   C801    1.365   .     S
H670   N588    1.029   1_655 S
N679   Zn690   2.018   .     S
N679   H586    1.029   1_655 S
N679   N588    1.277   1_655 S
N680   Zn689   2.018   .     S
O681   Zn689   1.969   .     S
O682   Zn690   1.969   .     S
O683   Zn690   1.989   .     S
O684   Zn689   1.989   .     S
O685   Zn689   1.987   .     S
O686   Zn690   1.987   .     S
O687   Zn690   2.011   .     S
O688   Zn689   2.011   .     S
C691   O727    1.275   .     A
C691   C708    1.401   .     S
C691   O729    1.288   .     A
C692   C694    1.391   .     A
C692   H717    1.086   .     S
C692   C703    1.384   .     A
C693   C711    1.414   .     S
C693   C712    1.391   .     A
C693   C695    1.391   .     A
C694   C696    1.391   .     A
C694   C710    1.414   .     S
C695   H718    1.086   .     S
C695   C697    1.384   .     A
C696   H719    1.086   .     S
C696   C698    1.384   .     A
C697   C699    1.413   .     A
C697   C704    1.400   .     A
C698   C705    1.400   .     A
C698   C700    1.413   .     A
C699   C701    1.414   .     A
C700   C703    1.414   .     A
C700   C285    1.391   1_556 S
C701   C712    1.384   .     A
C701   C707    1.400   .     A
C702   O730    1.288   .     A
C702   C709    1.401   .     S
C702   O728    1.275   .     A
C703   C706    1.400   .     A
C704   H720    1.084   .     S
C705   H721    1.084   .     S
C705   C293    1.390   1_556 S
C706   H722    1.084   .     S
C706   C290    1.390   1_556 S
C707   H723    1.084   .     S
C708   C433    1.348   1_565 S
C708   F437    1.365   1_565 S
C710   O731    1.285   .     A
C710   O733    1.285   .     A
C711   O734    1.285   .     A
C711   O732    1.285   .     A
C712   H715    1.086   .     S
F714   C433    1.365   1_565 S
H716   N772    1.029   .     S
H724   N817    1.029   1_455 S
N725   Zn736   2.018   .     S
N725   H770    1.029   .     S
N725   N772    1.277   .     S
N726   Zn735   2.018   .     S
N726   H808    1.029   1_455 S
N726   N817    1.277   1_455 S
O727   Zn735   1.969   .     S
O728   Zn736   1.969   .     S
O729   Zn736   1.989   .     S
O730   Zn735   1.989   .     S
O731   Zn735   1.987   .     S
O732   Zn736   1.987   .     S
O733   Zn736   2.011   .     S
O734   Zn735   2.011   .     S
C737   O773    1.275   .     A
C737   C754    1.401   .     S
C737   O775    1.288   .     A
C738   C740    1.391   .     A
C738   H763    1.086   .     S
C738   C749    1.384   .     A
C739   C757    1.414   .     S
C739   C758    1.391   .     A
C739   C741    1.391   .     A
C740   C742    1.391   .     A
C740   C756    1.414   .     S
C741   H764    1.086   .     S
C741   C743    1.384   .     A
C742   H765    1.086   .     S
C742   C744    1.384   .     A
C743   C745    1.413   .     A
C743   C750    1.400   .     A
C744   C751    1.400   .     A
C744   C746    1.413   .     A
C745   C747    1.414   .     A
C746   C749    1.414   .     A
C746   C331    1.391   1_556 S
C747   C758    1.384   .     A
C747   C753    1.400   .     A
C748   O776    1.288   .     A
C748   C755    1.401   .     S
C748   O774    1.275   .     A
C749   C752    1.400   .     A
C750   H766    1.084   .     S
C751   H767    1.084   .     S
C751   C339    1.390   1_556 S
C752   H768    1.084   .     S
C752   C336    1.390   1_556 S
C753   H769    1.084   .     S
C754   C479    1.348   1_565 S
C754   F483    1.365   1_565 S
C756   O777    1.285   .     A
C756   O779    1.285   .     A
C757   O780    1.285   .     A
C757   O778    1.285   .     A
C758   H761    1.086   .     S
F760   C479    1.365   1_565 S
H762   N818    1.029   .     S
N771   Zn782   2.018   .     S
N771   H816    1.029   .     S
N771   N818    1.277   .     S
N772   Zn781   2.018   .     S
O773   Zn781   1.969   .     S
O774   Zn782   1.969   .     S
O775   Zn782   1.989   .     S
O776   Zn781   1.989   .     S
O777   Zn781   1.987   .     S
O778   Zn782   1.987   .     S
O779   Zn782   2.011   .     S
O780   Zn781   2.011   .     S
C783   O819    1.275   .     A
C783   C800    1.401   .     S
C783   O821    1.288   .     A
C784   C786    1.391   .     A
C784   H809    1.086   .     S
C784   C795    1.384   .     A
C785   C803    1.414   .     S
C785   C804    1.391   .     A
C785   C787    1.391   .     A
C786   C788    1.391   .     A
C786   C802    1.414   .     S
C787   H810    1.086   .     S
C787   C789    1.384   .     A
C788   H811    1.086   .     S
C788   C790    1.384   .     A
C789   C791    1.413   .     A
C789   C796    1.400   .     A
C790   C797    1.400   .     A
C790   C792    1.413   .     A
C791   C793    1.414   .     A
C792   C795    1.414   .     A
C792   C377    1.391   1_556 S
C793   C804    1.384   .     A
C793   C799    1.400   .     A
C794   O822    1.288   .     A
C794   C801    1.401   .     S
C794   O820    1.275   .     A
C795   C798    1.400   .     A
C796   H812    1.084   .     S
C797   H813    1.084   .     S
C797   C385    1.390   1_556 S
C798   H814    1.084   .     S
C798   C382    1.390   1_556 S
C799   H815    1.084   .     S
C800   C525    1.348   1_565 S
C800   F529    1.365   1_565 S
C802   O823    1.285   .     A
C802   O825    1.285   .     A
C803   O826    1.285   .     A
C803   O824    1.285   .     A
C804   H807    1.086   .     S
F806   C525    1.365   1_565 S
H808   N726    1.029   1_655 S
N817   Zn828   2.018   .     S
N817   H724    1.029   1_655 S
N817   N726    1.277   1_655 S
N818   Zn827   2.018   .     S
O819   Zn827   1.969   .     S
O820   Zn828   1.969   .     S
O821   Zn828   1.989   .     S
O822   Zn827   1.989   .     S
O823   Zn827   1.987   .     S
O824   Zn828   1.987   .     S
O825   Zn828   2.011   .     S
O826   Zn827   2.011   .     S
