data_str_m2_o1_o2_pcu_sym.99
_audit_creation_date              2020-01-03
_audit_creation_method            'Materials Studio'
_symmetry_space_group_name_H-M    'P1'
_symmetry_Int_Tables_number       1
_symmetry_cell_setting            triclinic
loop_
_symmetry_equiv_pos_as_xyz
  x,y,z
_cell_length_a                    32.6423
_cell_length_b                    28.8257
_cell_length_c                    30.4314
_cell_angle_alpha                 89.8896
_cell_angle_beta                  95.1243
_cell_angle_gamma                 91.0080
loop_
_atom_site_label
_atom_site_type_symbol
_atom_site_fract_x
_atom_site_fract_y
_atom_site_fract_z
_atom_site_U_iso_or_equiv
_atom_site_adp_type
_atom_site_occupancy
C1     C     0.08729   0.16656   0.24880   0.00000  Uiso   1.00
C2     C     0.31281   0.20987   0.24798   0.00000  Uiso   1.00
C3     C     0.30974   0.12831   0.22829   0.00000  Uiso   1.00
C4     C     0.02244   0.20791   0.25804   0.00000  Uiso   1.00
C5     C     0.18990   0.20318   0.04871   0.00000  Uiso   1.00
C6     C     0.17941   0.12625   0.45247   0.00000  Uiso   1.00
C7     C     0.15195   0.20413   0.45264   0.00000  Uiso   1.00
C8     C     0.15791   0.12636   0.04816   0.00000  Uiso   1.00
C9     C     0.18690   0.20627   0.09486   0.00000  Uiso   1.00
C10    C     0.16932   0.12451   0.40703   0.00000  Uiso   1.00
C11    C     0.15301   0.20636   0.40644   0.00000  Uiso   1.00
C12    C     0.24566   0.16704   0.24721   0.00000  Uiso   1.00
C13    C     0.16688   0.12478   0.09363   0.00000  Uiso   1.00
C14    C     0.17414   0.16639   0.11741   0.00000  Uiso   1.00
C15    C     0.16210   0.16599   0.38320   0.00000  Uiso   1.00
C16    C     0.17158   0.16503   0.02490   0.00000  Uiso   1.00
C17    C     0.16814   0.16526   0.47607   0.00000  Uiso   1.00
C18    C     0.29005   0.16797   0.24217   0.00000  Uiso   1.00
C19    C     0.04224   0.16751   0.24553   0.00000  Uiso   1.00
C20    C     0.10129   0.04546   0.16139   0.00000  Uiso   1.00
C21    C     0.25917   0.28922   0.31380   0.00000  Uiso   1.00
C22    C     0.23508   0.05486   0.33669   0.00000  Uiso   1.00
C23    C     0.16948   0.16674   0.16536   0.00000  Uiso   1.00
C24    C     0.09901   0.26904   0.16893   0.00000  Uiso   1.00
C25    C     0.25229   0.22854   0.03066   0.00000  Uiso   1.00
C26    C     0.23861   0.08672   0.46730   0.00000  Uiso   1.00
C27    C     0.09391   0.23416   0.47577   0.00000  Uiso   1.00
C28    C     0.09732   0.08808   0.03091   0.00000  Uiso   1.00
C29    C     0.18795   0.28664   0.10051   0.00000  Uiso   1.00
C30    C     0.12409   0.06748   0.38428   0.00000  Uiso   1.00
C31    C     0.16802   0.28272   0.39396   0.00000  Uiso   1.00
C32    C     0.21297   0.07199   0.12091   0.00000  Uiso   1.00
C33    C     0.02790   0.12537   0.15146   0.00000  Uiso   1.00
C34    C     0.16462   0.16656   0.33483   0.00000  Uiso   1.00
C35    C     0.28962   0.25619   0.19117   0.00000  Uiso   1.00
C36    C     0.30122   0.04879   0.22657   0.00000  Uiso   1.00
C37    C     0.03352   0.28690   0.27688   0.00000  Uiso   1.00
C38    C     0.13587   0.02425   0.22698   0.00000  Uiso   1.00
C39    C     0.19589   0.30835   0.27606   0.00000  Uiso   1.00
C40    C     0.19706   0.02529   0.27454   0.00000  Uiso   1.00
C41    C     0.13571   0.30804   0.22681   0.00000  Uiso   1.00
C42    C     0.01884   0.13161   0.22386   0.00000  Uiso   1.00
Cu43   Cu    0.16667   0.21355   0.25000   0.00000  Uiso   1.00
Cu44   Cu    0.16667   0.11978   0.25000   0.00000  Uiso   1.00
H45    H     0.10402   0.08126   0.14877   0.00000  Uiso   1.00
H46    H     0.09233   0.23122   0.16822   0.00000  Uiso   1.00
H47    H     0.12792   0.27564   0.15348   0.00000  Uiso   1.00
H48    H     0.07338   0.28513   0.14835   0.00000  Uiso   1.00
H49    H     0.25868   0.19447   0.01585   0.00000  Uiso   1.00
H50    H     0.26532   0.22996   0.06571   0.00000  Uiso   1.00
H51    H     0.26826   0.25572   0.01239   0.00000  Uiso   1.00
H52    H     0.25502   0.11908   0.47923   0.00000  Uiso   1.00
H53    H     0.24321   0.08061   0.43204   0.00000  Uiso   1.00
H54    H     0.25262   0.05743   0.48659   0.00000  Uiso   1.00
H55    H     0.08671   0.20195   0.49396   0.00000  Uiso   1.00
H56    H     0.07095   0.03139   0.14793   0.00000  Uiso   1.00
H57    H     0.07803   0.23339   0.44184   0.00000  Uiso   1.00
H58    H     0.08163   0.26374   0.49346   0.00000  Uiso   1.00
H59    H     0.08296   0.12012   0.01667   0.00000  Uiso   1.00
H60    H     0.09080   0.08395   0.06596   0.00000  Uiso   1.00
H61    H     0.08279   0.05813   0.01231   0.00000  Uiso   1.00
H62    H     0.15757   0.28341   0.08073   0.00000  Uiso   1.00
H63    H     0.21140   0.30221   0.08045   0.00000  Uiso   1.00
H64    H     0.18409   0.31107   0.12767   0.00000  Uiso   1.00
H65    H     0.11503   0.05819   0.41761   0.00000  Uiso   1.00
H66    H     0.10320   0.09430   0.36887   0.00000  Uiso   1.00
H67    H     0.12564   0.02439   0.14815   0.00000  Uiso   1.00
H68    H     0.11977   0.03628   0.36308   0.00000  Uiso   1.00
H69    H     0.20074   0.27174   0.39709   0.00000  Uiso   1.00
H70    H     0.16065   0.30076   0.42437   0.00000  Uiso   1.00
H71    H     0.16458   0.30821   0.36679   0.00000  Uiso   1.00
H72    H     0.21733   0.04500   0.14678   0.00000  Uiso   1.00
H73    H     0.22414   0.05861   0.08998   0.00000  Uiso   1.00
H74    H     0.23250   0.10222   0.13316   0.00000  Uiso   1.00
H75    H     0.04755   0.15703   0.14903   0.00000  Uiso   1.00
H76    H     0.32823   0.13405   0.14377   0.00000  Uiso   1.00
H77    H     0.03538   0.10089   0.12547   0.00000  Uiso   1.00
H78    H     0.27278   0.25433   0.31376   0.00000  Uiso   1.00
H79    H     0.27286   0.28845   0.18240   0.00000  Uiso   1.00
H80    H     0.32013   0.25874   0.17759   0.00000  Uiso   1.00
H81    H     0.27114   0.22712   0.17501   0.00000  Uiso   1.00
H82    H     0.31274   0.05042   0.26216   0.00000  Uiso   1.00
H83    H     0.32536   0.03578   0.20654   0.00000  Uiso   1.00
H84    H     0.27550   0.02318   0.22334   0.00000  Uiso   1.00
H85    H     0.02743   0.29531   0.24129   0.00000  Uiso   1.00
H86    H     0.00709   0.29462   0.29577   0.00000  Uiso   1.00
H87    H     0.05922   0.31005   0.29004   0.00000  Uiso   1.00
H88    H     0.26981   0.30398   0.34647   0.00000  Uiso   1.00
H89    H     0.27110   0.31064   0.28733   0.00000  Uiso   1.00
H90    H     0.22902   0.09127   0.34481   0.00000  Uiso   1.00
H91    H     0.26741   0.04941   0.34985   0.00000  Uiso   1.00
H92    H     0.21523   0.03055   0.35401   0.00000  Uiso   1.00
N93    N     0.16667   0.28402   0.25000   0.00000  Uiso   1.00
N94    N     0.16667   0.04931   0.25000   0.00000  Uiso   1.00
O95    O     0.10655   0.20625   0.24999   0.00000  Uiso   1.00
O96    O     0.21616   0.28377   0.31052   0.00000  Uiso   1.00
O97    O     0.23233   0.04936   0.29055   0.00000  Uiso   1.00
O98    O     0.09922   0.28526   0.21266   0.00000  Uiso   1.00
O99    O     0.20983   0.23761   0.02662   0.00000  Uiso   1.00
O100   O     0.19649   0.08793   0.47402   0.00000  Uiso   1.00
O101   O     0.13669   0.24087   0.47497   0.00000  Uiso   1.00
O102   O     0.13991   0.08803   0.02645   0.00000  Uiso   1.00
O103   O     0.20214   0.24443   0.11940   0.00000  Uiso   1.00
O104   O     0.16583   0.08177   0.38662   0.00000  Uiso   1.00
O105   O     0.14002   0.24570   0.38343   0.00000  Uiso   1.00
O106   O     0.22679   0.12709   0.25001   0.00000  Uiso   1.00
O107   O     0.17062   0.08211   0.11400   0.00000  Uiso   1.00
O108   O     0.03577   0.10424   0.19335   0.00000  Uiso   1.00
O109   O     0.29411   0.25156   0.23762   0.00000  Uiso   1.00
O110   O     0.28608   0.09152   0.21000   0.00000  Uiso   1.00
O111   O     0.04562   0.24067   0.28396   0.00000  Uiso   1.00
O112   O     0.22679   0.20625   0.25001   0.00000  Uiso   1.00
O113   O     0.10655   0.12709   0.24999   0.00000  Uiso   1.00
O114   O     0.16666   0.20626   0.18573   0.00000  Uiso   1.00
O115   O     0.16667   0.12707   0.31427   0.00000  Uiso   1.00
O116   O     0.16667   0.20626   0.31427   0.00000  Uiso   1.00
O117   O     0.16666   0.12707   0.18573   0.00000  Uiso   1.00
O118   O     0.10224   0.04728   0.20781   0.00000  Uiso   1.00
C119   C     0.42063   0.16656   0.24880   0.00000  Uiso   1.00
C120   C     0.64614   0.20987   0.24798   0.00000  Uiso   1.00
C121   C     0.64307   0.12831   0.22829   0.00000  Uiso   1.00
C122   C     0.35577   0.20791   0.25804   0.00000  Uiso   1.00
C123   C     0.52324   0.20318   0.04871   0.00000  Uiso   1.00
C124   C     0.51274   0.12625   0.45247   0.00000  Uiso   1.00
C125   C     0.48528   0.20413   0.45264   0.00000  Uiso   1.00
C126   C     0.49125   0.12636   0.04816   0.00000  Uiso   1.00
C127   C     0.52024   0.20627   0.09486   0.00000  Uiso   1.00
C128   C     0.50266   0.12451   0.40703   0.00000  Uiso   1.00
C129   C     0.48635   0.20636   0.40644   0.00000  Uiso   1.00
C130   C     0.57900   0.16704   0.24721   0.00000  Uiso   1.00
C131   C     0.50021   0.12478   0.09363   0.00000  Uiso   1.00
C132   C     0.50748   0.16639   0.11741   0.00000  Uiso   1.00
C133   C     0.49543   0.16599   0.38320   0.00000  Uiso   1.00
C134   C     0.50491   0.16503   0.02490   0.00000  Uiso   1.00
C135   C     0.50147   0.16526   0.47607   0.00000  Uiso   1.00
C136   C     0.62338   0.16797   0.24217   0.00000  Uiso   1.00
C137   C     0.37557   0.16751   0.24553   0.00000  Uiso   1.00
C138   C     0.43462   0.04546   0.16139   0.00000  Uiso   1.00
C139   C     0.59251   0.28922   0.31380   0.00000  Uiso   1.00
C140   C     0.56842   0.05486   0.33669   0.00000  Uiso   1.00
C141   C     0.50282   0.16674   0.16536   0.00000  Uiso   1.00
C142   C     0.43235   0.26904   0.16893   0.00000  Uiso   1.00
C143   C     0.58562   0.22854   0.03066   0.00000  Uiso   1.00
C144   C     0.57194   0.08672   0.46730   0.00000  Uiso   1.00
C145   C     0.42725   0.23416   0.47577   0.00000  Uiso   1.00
C146   C     0.43066   0.08808   0.03091   0.00000  Uiso   1.00
C147   C     0.52128   0.28664   0.10051   0.00000  Uiso   1.00
C148   C     0.45742   0.06748   0.38428   0.00000  Uiso   1.00
C149   C     0.50135   0.28272   0.39396   0.00000  Uiso   1.00
C150   C     0.54631   0.07199   0.12091   0.00000  Uiso   1.00
C151   C     0.36124   0.12537   0.15146   0.00000  Uiso   1.00
C152   C     0.49795   0.16656   0.33483   0.00000  Uiso   1.00
C153   C     0.62295   0.25619   0.19117   0.00000  Uiso   1.00
C154   C     0.63455   0.04879   0.22657   0.00000  Uiso   1.00
C155   C     0.36685   0.28690   0.27688   0.00000  Uiso   1.00
C156   C     0.46920   0.02425   0.22698   0.00000  Uiso   1.00
C157   C     0.52922   0.30835   0.27606   0.00000  Uiso   1.00
C158   C     0.53039   0.02529   0.27454   0.00000  Uiso   1.00
C159   C     0.46904   0.30804   0.22681   0.00000  Uiso   1.00
C160   C     0.35217   0.13161   0.22386   0.00000  Uiso   1.00
Cu161  Cu    0.50000   0.21355   0.25000   0.00000  Uiso   1.00
Cu162  Cu    0.50000   0.11978   0.25000   0.00000  Uiso   1.00
H163   H     0.43735   0.08126   0.14877   0.00000  Uiso   1.00
H164   H     0.42567   0.23122   0.16822   0.00000  Uiso   1.00
H165   H     0.46125   0.27564   0.15348   0.00000  Uiso   1.00
H166   H     0.40671   0.28513   0.14835   0.00000  Uiso   1.00
H167   H     0.59202   0.19447   0.01585   0.00000  Uiso   1.00
H168   H     0.59865   0.22996   0.06571   0.00000  Uiso   1.00
H169   H     0.60159   0.25572   0.01239   0.00000  Uiso   1.00
H170   H     0.58835   0.11908   0.47923   0.00000  Uiso   1.00
H171   H     0.57654   0.08061   0.43204   0.00000  Uiso   1.00
H172   H     0.58596   0.05743   0.48659   0.00000  Uiso   1.00
H173   H     0.42005   0.20195   0.49396   0.00000  Uiso   1.00
H174   H     0.40428   0.03139   0.14793   0.00000  Uiso   1.00
H175   H     0.41136   0.23339   0.44184   0.00000  Uiso   1.00
H176   H     0.41496   0.26374   0.49346   0.00000  Uiso   1.00
H177   H     0.41630   0.12012   0.01667   0.00000  Uiso   1.00
H178   H     0.42413   0.08395   0.06596   0.00000  Uiso   1.00
H179   H     0.41612   0.05813   0.01231   0.00000  Uiso   1.00
H180   H     0.49091   0.28341   0.08073   0.00000  Uiso   1.00
H181   H     0.54473   0.30221   0.08045   0.00000  Uiso   1.00
H182   H     0.51743   0.31107   0.12767   0.00000  Uiso   1.00
H183   H     0.44836   0.05819   0.41761   0.00000  Uiso   1.00
H184   H     0.43653   0.09430   0.36887   0.00000  Uiso   1.00
H185   H     0.45898   0.02439   0.14815   0.00000  Uiso   1.00
H186   H     0.45310   0.03628   0.36308   0.00000  Uiso   1.00
H187   H     0.53408   0.27174   0.39709   0.00000  Uiso   1.00
H188   H     0.49398   0.30076   0.42437   0.00000  Uiso   1.00
H189   H     0.49791   0.30821   0.36679   0.00000  Uiso   1.00
H190   H     0.55066   0.04500   0.14678   0.00000  Uiso   1.00
H191   H     0.55747   0.05861   0.08998   0.00000  Uiso   1.00
H192   H     0.56583   0.10222   0.13316   0.00000  Uiso   1.00
H193   H     0.38088   0.15703   0.14903   0.00000  Uiso   1.00
H194   H     0.66156   0.13405   0.14377   0.00000  Uiso   1.00
H195   H     0.36871   0.10089   0.12547   0.00000  Uiso   1.00
H196   H     0.60612   0.25433   0.31376   0.00000  Uiso   1.00
H197   H     0.60619   0.28845   0.18240   0.00000  Uiso   1.00
H198   H     0.65346   0.25874   0.17759   0.00000  Uiso   1.00
H199   H     0.60447   0.22712   0.17501   0.00000  Uiso   1.00
H200   H     0.64607   0.05042   0.26216   0.00000  Uiso   1.00
H201   H     0.65870   0.03578   0.20654   0.00000  Uiso   1.00
H202   H     0.60883   0.02318   0.22334   0.00000  Uiso   1.00
H203   H     0.36076   0.29531   0.24129   0.00000  Uiso   1.00
H204   H     0.34042   0.29462   0.29577   0.00000  Uiso   1.00
H205   H     0.39256   0.31005   0.29004   0.00000  Uiso   1.00
H206   H     0.60315   0.30398   0.34647   0.00000  Uiso   1.00
H207   H     0.60443   0.31064   0.28733   0.00000  Uiso   1.00
H208   H     0.56235   0.09127   0.34481   0.00000  Uiso   1.00
H209   H     0.60074   0.04941   0.34985   0.00000  Uiso   1.00
H210   H     0.54856   0.03055   0.35401   0.00000  Uiso   1.00
N211   N     0.50000   0.28402   0.25000   0.00000  Uiso   1.00
N212   N     0.50000   0.04931   0.25000   0.00000  Uiso   1.00
O213   O     0.43988   0.20625   0.24999   0.00000  Uiso   1.00
O214   O     0.54949   0.28377   0.31052   0.00000  Uiso   1.00
O215   O     0.56567   0.04936   0.29055   0.00000  Uiso   1.00
O216   O     0.43255   0.28526   0.21266   0.00000  Uiso   1.00
O217   O     0.54316   0.23761   0.02662   0.00000  Uiso   1.00
O218   O     0.52982   0.08793   0.47402   0.00000  Uiso   1.00
O219   O     0.47002   0.24087   0.47497   0.00000  Uiso   1.00
O220   O     0.47325   0.08803   0.02645   0.00000  Uiso   1.00
O221   O     0.53547   0.24443   0.11940   0.00000  Uiso   1.00
O222   O     0.49916   0.08177   0.38662   0.00000  Uiso   1.00
O223   O     0.47336   0.24570   0.38343   0.00000  Uiso   1.00
O224   O     0.56012   0.12709   0.25001   0.00000  Uiso   1.00
O225   O     0.50396   0.08211   0.11400   0.00000  Uiso   1.00
O226   O     0.36910   0.10424   0.19335   0.00000  Uiso   1.00
O227   O     0.62744   0.25156   0.23762   0.00000  Uiso   1.00
O228   O     0.61942   0.09152   0.21000   0.00000  Uiso   1.00
O229   O     0.37895   0.24067   0.28396   0.00000  Uiso   1.00
O230   O     0.56012   0.20625   0.25001   0.00000  Uiso   1.00
O231   O     0.43988   0.12709   0.24999   0.00000  Uiso   1.00
O232   O     0.50000   0.20626   0.18573   0.00000  Uiso   1.00
O233   O     0.50000   0.12707   0.31427   0.00000  Uiso   1.00
O234   O     0.50000   0.20626   0.31427   0.00000  Uiso   1.00
O235   O     0.50000   0.12707   0.18573   0.00000  Uiso   1.00
O236   O     0.43557   0.04728   0.20781   0.00000  Uiso   1.00
C237   C     0.75396   0.16656   0.24880   0.00000  Uiso   1.00
C238   C     0.97948   0.20987   0.24798   0.00000  Uiso   1.00
C239   C     0.97640   0.12831   0.22829   0.00000  Uiso   1.00
C240   C     0.68910   0.20791   0.25804   0.00000  Uiso   1.00
C241   C     0.85657   0.20318   0.04871   0.00000  Uiso   1.00
C242   C     0.84607   0.12625   0.45247   0.00000  Uiso   1.00
C243   C     0.81861   0.20413   0.45264   0.00000  Uiso   1.00
C244   C     0.82458   0.12636   0.04816   0.00000  Uiso   1.00
C245   C     0.85357   0.20627   0.09486   0.00000  Uiso   1.00
C246   C     0.83599   0.12451   0.40703   0.00000  Uiso   1.00
C247   C     0.81968   0.20636   0.40644   0.00000  Uiso   1.00
C248   C     0.91233   0.16704   0.24721   0.00000  Uiso   1.00
C249   C     0.83355   0.12478   0.09363   0.00000  Uiso   1.00
C250   C     0.84081   0.16639   0.11741   0.00000  Uiso   1.00
C251   C     0.82876   0.16599   0.38320   0.00000  Uiso   1.00
C252   C     0.83825   0.16503   0.02490   0.00000  Uiso   1.00
C253   C     0.83481   0.16526   0.47607   0.00000  Uiso   1.00
C254   C     0.95671   0.16797   0.24217   0.00000  Uiso   1.00
C255   C     0.70891   0.16751   0.24553   0.00000  Uiso   1.00
C256   C     0.76796   0.04546   0.16139   0.00000  Uiso   1.00
C257   C     0.92584   0.28922   0.31380   0.00000  Uiso   1.00
C258   C     0.90175   0.05486   0.33669   0.00000  Uiso   1.00
C259   C     0.83615   0.16674   0.16536   0.00000  Uiso   1.00
C260   C     0.76568   0.26904   0.16893   0.00000  Uiso   1.00
C261   C     0.91895   0.22854   0.03066   0.00000  Uiso   1.00
C262   C     0.90528   0.08672   0.46730   0.00000  Uiso   1.00
C263   C     0.76058   0.23416   0.47577   0.00000  Uiso   1.00
C264   C     0.76399   0.08808   0.03091   0.00000  Uiso   1.00
C265   C     0.85461   0.28664   0.10051   0.00000  Uiso   1.00
C266   C     0.79075   0.06748   0.38428   0.00000  Uiso   1.00
C267   C     0.83468   0.28272   0.39396   0.00000  Uiso   1.00
C268   C     0.87964   0.07199   0.12091   0.00000  Uiso   1.00
C269   C     0.69457   0.12537   0.15146   0.00000  Uiso   1.00
C270   C     0.83129   0.16656   0.33483   0.00000  Uiso   1.00
C271   C     0.95628   0.25619   0.19117   0.00000  Uiso   1.00
C272   C     0.96788   0.04879   0.22657   0.00000  Uiso   1.00
C273   C     0.70019   0.28690   0.27688   0.00000  Uiso   1.00
C274   C     0.80254   0.02425   0.22698   0.00000  Uiso   1.00
C275   C     0.86256   0.30835   0.27606   0.00000  Uiso   1.00
C276   C     0.86373   0.02529   0.27454   0.00000  Uiso   1.00
C277   C     0.80238   0.30804   0.22681   0.00000  Uiso   1.00
C278   C     0.68551   0.13161   0.22386   0.00000  Uiso   1.00
Cu279  Cu    0.83333   0.21355   0.25000   0.00000  Uiso   1.00
Cu280  Cu    0.83333   0.11978   0.25000   0.00000  Uiso   1.00
H281   H     0.77069   0.08126   0.14877   0.00000  Uiso   1.00
H282   H     0.75900   0.23122   0.16822   0.00000  Uiso   1.00
H283   H     0.79459   0.27564   0.15348   0.00000  Uiso   1.00
H284   H     0.74005   0.28513   0.14835   0.00000  Uiso   1.00
H285   H     0.92535   0.19447   0.01585   0.00000  Uiso   1.00
H286   H     0.93199   0.22996   0.06571   0.00000  Uiso   1.00
H287   H     0.93492   0.25572   0.01239   0.00000  Uiso   1.00
H288   H     0.92169   0.11908   0.47923   0.00000  Uiso   1.00
H289   H     0.90987   0.08061   0.43204   0.00000  Uiso   1.00
H290   H     0.91929   0.05743   0.48659   0.00000  Uiso   1.00
H291   H     0.75338   0.20195   0.49396   0.00000  Uiso   1.00
H292   H     0.73762   0.03139   0.14793   0.00000  Uiso   1.00
H293   H     0.74469   0.23339   0.44184   0.00000  Uiso   1.00
H294   H     0.74829   0.26374   0.49346   0.00000  Uiso   1.00
H295   H     0.74963   0.12012   0.01667   0.00000  Uiso   1.00
H296   H     0.75746   0.08395   0.06596   0.00000  Uiso   1.00
H297   H     0.74946   0.05813   0.01231   0.00000  Uiso   1.00
H298   H     0.82424   0.28341   0.08073   0.00000  Uiso   1.00
H299   H     0.87806   0.30221   0.08045   0.00000  Uiso   1.00
H300   H     0.85076   0.31107   0.12767   0.00000  Uiso   1.00
H301   H     0.78169   0.05819   0.41761   0.00000  Uiso   1.00
H302   H     0.76987   0.09430   0.36887   0.00000  Uiso   1.00
H303   H     0.79231   0.02439   0.14815   0.00000  Uiso   1.00
H304   H     0.78644   0.03628   0.36308   0.00000  Uiso   1.00
H305   H     0.86741   0.27174   0.39709   0.00000  Uiso   1.00
H306   H     0.82732   0.30076   0.42437   0.00000  Uiso   1.00
H307   H     0.83124   0.30821   0.36679   0.00000  Uiso   1.00
H308   H     0.88400   0.04500   0.14678   0.00000  Uiso   1.00
H309   H     0.89080   0.05861   0.08998   0.00000  Uiso   1.00
H310   H     0.89916   0.10222   0.13316   0.00000  Uiso   1.00
H311   H     0.71421   0.15703   0.14903   0.00000  Uiso   1.00
H312   H     0.99489   0.13405   0.14377   0.00000  Uiso   1.00
H313   H     0.70205   0.10089   0.12547   0.00000  Uiso   1.00
H314   H     0.93945   0.25433   0.31376   0.00000  Uiso   1.00
H315   H     0.93952   0.28845   0.18240   0.00000  Uiso   1.00
H316   H     0.98679   0.25874   0.17759   0.00000  Uiso   1.00
H317   H     0.93780   0.22712   0.17501   0.00000  Uiso   1.00
H318   H     0.97940   0.05042   0.26216   0.00000  Uiso   1.00
H319   H     0.99203   0.03578   0.20654   0.00000  Uiso   1.00
H320   H     0.94216   0.02318   0.22334   0.00000  Uiso   1.00
H321   H     0.69410   0.29531   0.24129   0.00000  Uiso   1.00
H322   H     0.67376   0.29462   0.29577   0.00000  Uiso   1.00
H323   H     0.72589   0.31005   0.29004   0.00000  Uiso   1.00
H324   H     0.93648   0.30398   0.34647   0.00000  Uiso   1.00
H325   H     0.93777   0.31064   0.28733   0.00000  Uiso   1.00
H326   H     0.89568   0.09127   0.34481   0.00000  Uiso   1.00
H327   H     0.93407   0.04941   0.34985   0.00000  Uiso   1.00
H328   H     0.88189   0.03055   0.35401   0.00000  Uiso   1.00
N329   N     0.83333   0.28402   0.25000   0.00000  Uiso   1.00
N330   N     0.83333   0.04931   0.25000   0.00000  Uiso   1.00
O331   O     0.77321   0.20625   0.24999   0.00000  Uiso   1.00
O332   O     0.88282   0.28377   0.31052   0.00000  Uiso   1.00
O333   O     0.89900   0.04936   0.29055   0.00000  Uiso   1.00
O334   O     0.76589   0.28526   0.21266   0.00000  Uiso   1.00
O335   O     0.87650   0.23761   0.02662   0.00000  Uiso   1.00
O336   O     0.86316   0.08793   0.47402   0.00000  Uiso   1.00
O337   O     0.80336   0.24087   0.47497   0.00000  Uiso   1.00
O338   O     0.80658   0.08803   0.02645   0.00000  Uiso   1.00
O339   O     0.86881   0.24443   0.11940   0.00000  Uiso   1.00
O340   O     0.83249   0.08177   0.38662   0.00000  Uiso   1.00
O341   O     0.80669   0.24570   0.38343   0.00000  Uiso   1.00
O342   O     0.89345   0.12709   0.25001   0.00000  Uiso   1.00
O343   O     0.83729   0.08211   0.11400   0.00000  Uiso   1.00
O344   O     0.70244   0.10424   0.19335   0.00000  Uiso   1.00
O345   O     0.96077   0.25156   0.23762   0.00000  Uiso   1.00
O346   O     0.95275   0.09152   0.21000   0.00000  Uiso   1.00
O347   O     0.71229   0.24067   0.28396   0.00000  Uiso   1.00
O348   O     0.89345   0.20625   0.25001   0.00000  Uiso   1.00
O349   O     0.77321   0.12709   0.24999   0.00000  Uiso   1.00
O350   O     0.83333   0.20626   0.18573   0.00000  Uiso   1.00
O351   O     0.83334   0.12707   0.31427   0.00000  Uiso   1.00
O352   O     0.83334   0.20626   0.31427   0.00000  Uiso   1.00
O353   O     0.83333   0.12707   0.18573   0.00000  Uiso   1.00
O354   O     0.76891   0.04728   0.20781   0.00000  Uiso   1.00
C355   C     0.08729   0.49990   0.24880   0.00000  Uiso   1.00
C356   C     0.31281   0.54320   0.24798   0.00000  Uiso   1.00
C357   C     0.30974   0.46164   0.22829   0.00000  Uiso   1.00
C358   C     0.02244   0.54124   0.25804   0.00000  Uiso   1.00
C359   C     0.18990   0.53651   0.04871   0.00000  Uiso   1.00
C360   C     0.17941   0.45958   0.45247   0.00000  Uiso   1.00
C361   C     0.15195   0.53746   0.45264   0.00000  Uiso   1.00
C362   C     0.15791   0.45969   0.04816   0.00000  Uiso   1.00
C363   C     0.18690   0.53961   0.09486   0.00000  Uiso   1.00
C364   C     0.16932   0.45784   0.40703   0.00000  Uiso   1.00
C365   C     0.15301   0.53969   0.40644   0.00000  Uiso   1.00
C366   C     0.24566   0.50037   0.24721   0.00000  Uiso   1.00
C367   C     0.16688   0.45812   0.09363   0.00000  Uiso   1.00
C368   C     0.17414   0.49973   0.11741   0.00000  Uiso   1.00
C369   C     0.16210   0.49932   0.38320   0.00000  Uiso   1.00
C370   C     0.17158   0.49837   0.02490   0.00000  Uiso   1.00
C371   C     0.16814   0.49859   0.47607   0.00000  Uiso   1.00
C372   C     0.29005   0.50130   0.24217   0.00000  Uiso   1.00
C373   C     0.04224   0.50084   0.24553   0.00000  Uiso   1.00
C374   C     0.10129   0.37879   0.16139   0.00000  Uiso   1.00
C375   C     0.25917   0.62256   0.31380   0.00000  Uiso   1.00
C376   C     0.23508   0.38819   0.33669   0.00000  Uiso   1.00
C377   C     0.16948   0.50008   0.16536   0.00000  Uiso   1.00
C378   C     0.09901   0.60238   0.16893   0.00000  Uiso   1.00
C379   C     0.25229   0.56188   0.03066   0.00000  Uiso   1.00
C380   C     0.23861   0.42006   0.46730   0.00000  Uiso   1.00
C381   C     0.09391   0.56749   0.47577   0.00000  Uiso   1.00
C382   C     0.09732   0.42142   0.03091   0.00000  Uiso   1.00
C383   C     0.18795   0.61997   0.10051   0.00000  Uiso   1.00
C384   C     0.12409   0.40082   0.38428   0.00000  Uiso   1.00
C385   C     0.16802   0.61605   0.39396   0.00000  Uiso   1.00
C386   C     0.21297   0.40533   0.12091   0.00000  Uiso   1.00
C387   C     0.02790   0.45870   0.15146   0.00000  Uiso   1.00
C388   C     0.16462   0.49989   0.33483   0.00000  Uiso   1.00
C389   C     0.28962   0.58953   0.19117   0.00000  Uiso   1.00
C390   C     0.30122   0.38212   0.22657   0.00000  Uiso   1.00
C391   C     0.03352   0.62023   0.27688   0.00000  Uiso   1.00
C392   C     0.13587   0.35759   0.22698   0.00000  Uiso   1.00
C393   C     0.19589   0.64168   0.27606   0.00000  Uiso   1.00
C394   C     0.19706   0.35862   0.27454   0.00000  Uiso   1.00
C395   C     0.13571   0.64138   0.22681   0.00000  Uiso   1.00
C396   C     0.01884   0.46494   0.22386   0.00000  Uiso   1.00
Cu397  Cu    0.16667   0.54689   0.25000   0.00000  Uiso   1.00
Cu398  Cu    0.16667   0.45311   0.25000   0.00000  Uiso   1.00
H399   H     0.10402   0.41459   0.14877   0.00000  Uiso   1.00
H400   H     0.09233   0.56455   0.16822   0.00000  Uiso   1.00
H401   H     0.12792   0.60898   0.15348   0.00000  Uiso   1.00
H402   H     0.07338   0.61846   0.14835   0.00000  Uiso   1.00
H403   H     0.25868   0.52780   0.01585   0.00000  Uiso   1.00
H404   H     0.26532   0.56329   0.06571   0.00000  Uiso   1.00
H405   H     0.26826   0.58905   0.01239   0.00000  Uiso   1.00
H406   H     0.25502   0.45242   0.47923   0.00000  Uiso   1.00
H407   H     0.24321   0.41395   0.43204   0.00000  Uiso   1.00
H408   H     0.25262   0.39076   0.48659   0.00000  Uiso   1.00
H409   H     0.08671   0.53528   0.49396   0.00000  Uiso   1.00
H410   H     0.07095   0.36472   0.14793   0.00000  Uiso   1.00
H411   H     0.07803   0.56672   0.44184   0.00000  Uiso   1.00
H412   H     0.08163   0.59707   0.49346   0.00000  Uiso   1.00
H413   H     0.08296   0.45346   0.01667   0.00000  Uiso   1.00
H414   H     0.09080   0.41729   0.06596   0.00000  Uiso   1.00
H415   H     0.08279   0.39146   0.01231   0.00000  Uiso   1.00
H416   H     0.15757   0.61675   0.08073   0.00000  Uiso   1.00
H417   H     0.21140   0.63554   0.08045   0.00000  Uiso   1.00
H418   H     0.18409   0.64441   0.12767   0.00000  Uiso   1.00
H419   H     0.11503   0.39152   0.41761   0.00000  Uiso   1.00
H420   H     0.10320   0.42763   0.36887   0.00000  Uiso   1.00
H421   H     0.12564   0.35773   0.14815   0.00000  Uiso   1.00
H422   H     0.11977   0.36961   0.36308   0.00000  Uiso   1.00
H423   H     0.20074   0.60507   0.39709   0.00000  Uiso   1.00
H424   H     0.16065   0.63410   0.42437   0.00000  Uiso   1.00
H425   H     0.16458   0.64154   0.36679   0.00000  Uiso   1.00
H426   H     0.21733   0.37834   0.14678   0.00000  Uiso   1.00
H427   H     0.22414   0.39194   0.08998   0.00000  Uiso   1.00
H428   H     0.23250   0.43555   0.13316   0.00000  Uiso   1.00
H429   H     0.04755   0.49036   0.14903   0.00000  Uiso   1.00
H430   H     0.32823   0.46738   0.14377   0.00000  Uiso   1.00
H431   H     0.03538   0.43422   0.12547   0.00000  Uiso   1.00
H432   H     0.27278   0.58766   0.31376   0.00000  Uiso   1.00
H433   H     0.27286   0.62179   0.18240   0.00000  Uiso   1.00
H434   H     0.32013   0.59207   0.17759   0.00000  Uiso   1.00
H435   H     0.27114   0.56046   0.17501   0.00000  Uiso   1.00
H436   H     0.31274   0.38375   0.26216   0.00000  Uiso   1.00
H437   H     0.32536   0.36912   0.20654   0.00000  Uiso   1.00
H438   H     0.27550   0.35651   0.22334   0.00000  Uiso   1.00
H439   H     0.02743   0.62864   0.24129   0.00000  Uiso   1.00
H440   H     0.00709   0.62796   0.29577   0.00000  Uiso   1.00
H441   H     0.05922   0.64338   0.29004   0.00000  Uiso   1.00
H442   H     0.26981   0.63731   0.34647   0.00000  Uiso   1.00
H443   H     0.27110   0.64397   0.28733   0.00000  Uiso   1.00
H444   H     0.22902   0.42460   0.34481   0.00000  Uiso   1.00
H445   H     0.26741   0.38274   0.34985   0.00000  Uiso   1.00
H446   H     0.21523   0.36388   0.35401   0.00000  Uiso   1.00
N447   N     0.16667   0.61736   0.25000   0.00000  Uiso   1.00
N448   N     0.16667   0.38264   0.25000   0.00000  Uiso   1.00
O449   O     0.10655   0.53958   0.24999   0.00000  Uiso   1.00
O450   O     0.21616   0.61710   0.31052   0.00000  Uiso   1.00
O451   O     0.23233   0.38269   0.29055   0.00000  Uiso   1.00
O452   O     0.09922   0.61859   0.21266   0.00000  Uiso   1.00
O453   O     0.20983   0.57094   0.02662   0.00000  Uiso   1.00
O454   O     0.19649   0.42127   0.47402   0.00000  Uiso   1.00
O455   O     0.13669   0.57420   0.47497   0.00000  Uiso   1.00
O456   O     0.13991   0.42136   0.02645   0.00000  Uiso   1.00
O457   O     0.20214   0.57777   0.11940   0.00000  Uiso   1.00
O458   O     0.16583   0.41510   0.38662   0.00000  Uiso   1.00
O459   O     0.14002   0.57903   0.38343   0.00000  Uiso   1.00
O460   O     0.22679   0.46042   0.25001   0.00000  Uiso   1.00
O461   O     0.17062   0.41544   0.11400   0.00000  Uiso   1.00
O462   O     0.03577   0.43758   0.19335   0.00000  Uiso   1.00
O463   O     0.29411   0.58490   0.23762   0.00000  Uiso   1.00
O464   O     0.28608   0.42486   0.21000   0.00000  Uiso   1.00
O465   O     0.04562   0.57401   0.28396   0.00000  Uiso   1.00
O466   O     0.22679   0.53958   0.25001   0.00000  Uiso   1.00
O467   O     0.10655   0.46042   0.24999   0.00000  Uiso   1.00
O468   O     0.16666   0.53959   0.18573   0.00000  Uiso   1.00
O469   O     0.16667   0.46041   0.31427   0.00000  Uiso   1.00
O470   O     0.16667   0.53959   0.31427   0.00000  Uiso   1.00
O471   O     0.16666   0.46041   0.18573   0.00000  Uiso   1.00
O472   O     0.10224   0.38061   0.20781   0.00000  Uiso   1.00
C473   C     0.42063   0.49990   0.24880   0.00000  Uiso   1.00
C474   C     0.64614   0.54320   0.24798   0.00000  Uiso   1.00
C475   C     0.64307   0.46164   0.22829   0.00000  Uiso   1.00
C476   C     0.35577   0.54124   0.25804   0.00000  Uiso   1.00
C477   C     0.52324   0.53651   0.04871   0.00000  Uiso   1.00
C478   C     0.51274   0.45958   0.45247   0.00000  Uiso   1.00
C479   C     0.48528   0.53746   0.45264   0.00000  Uiso   1.00
C480   C     0.49125   0.45969   0.04816   0.00000  Uiso   1.00
C481   C     0.52024   0.53961   0.09486   0.00000  Uiso   1.00
C482   C     0.50266   0.45784   0.40703   0.00000  Uiso   1.00
C483   C     0.48635   0.53969   0.40644   0.00000  Uiso   1.00
C484   C     0.57900   0.50037   0.24721   0.00000  Uiso   1.00
C485   C     0.50021   0.45812   0.09363   0.00000  Uiso   1.00
C486   C     0.50748   0.49973   0.11741   0.00000  Uiso   1.00
C487   C     0.49543   0.49932   0.38320   0.00000  Uiso   1.00
C488   C     0.50491   0.49837   0.02490   0.00000  Uiso   1.00
C489   C     0.50147   0.49859   0.47607   0.00000  Uiso   1.00
C490   C     0.62338   0.50130   0.24217   0.00000  Uiso   1.00
C491   C     0.37557   0.50084   0.24553   0.00000  Uiso   1.00
C492   C     0.43462   0.37879   0.16139   0.00000  Uiso   1.00
C493   C     0.59251   0.62256   0.31380   0.00000  Uiso   1.00
C494   C     0.56842   0.38819   0.33669   0.00000  Uiso   1.00
C495   C     0.50282   0.50008   0.16536   0.00000  Uiso   1.00
C496   C     0.43235   0.60238   0.16893   0.00000  Uiso   1.00
C497   C     0.58562   0.56188   0.03066   0.00000  Uiso   1.00
C498   C     0.57194   0.42006   0.46730   0.00000  Uiso   1.00
C499   C     0.42725   0.56749   0.47577   0.00000  Uiso   1.00
C500   C     0.43066   0.42142   0.03091   0.00000  Uiso   1.00
C501   C     0.52128   0.61997   0.10051   0.00000  Uiso   1.00
C502   C     0.45742   0.40082   0.38428   0.00000  Uiso   1.00
C503   C     0.50135   0.61605   0.39396   0.00000  Uiso   1.00
C504   C     0.54631   0.40533   0.12091   0.00000  Uiso   1.00
C505   C     0.36124   0.45870   0.15146   0.00000  Uiso   1.00
C506   C     0.49795   0.49989   0.33483   0.00000  Uiso   1.00
C507   C     0.62295   0.58953   0.19117   0.00000  Uiso   1.00
C508   C     0.63455   0.38212   0.22657   0.00000  Uiso   1.00
C509   C     0.36685   0.62023   0.27688   0.00000  Uiso   1.00
C510   C     0.46920   0.35759   0.22698   0.00000  Uiso   1.00
C511   C     0.52922   0.64168   0.27606   0.00000  Uiso   1.00
C512   C     0.53039   0.35862   0.27454   0.00000  Uiso   1.00
C513   C     0.46904   0.64138   0.22681   0.00000  Uiso   1.00
C514   C     0.35217   0.46494   0.22386   0.00000  Uiso   1.00
Cu515  Cu    0.50000   0.54689   0.25000   0.00000  Uiso   1.00
Cu516  Cu    0.50000   0.45311   0.25000   0.00000  Uiso   1.00
H517   H     0.43735   0.41459   0.14877   0.00000  Uiso   1.00
H518   H     0.42567   0.56455   0.16822   0.00000  Uiso   1.00
H519   H     0.46125   0.60898   0.15348   0.00000  Uiso   1.00
H520   H     0.40671   0.61846   0.14835   0.00000  Uiso   1.00
H521   H     0.59202   0.52780   0.01585   0.00000  Uiso   1.00
H522   H     0.59865   0.56329   0.06571   0.00000  Uiso   1.00
H523   H     0.60159   0.58905   0.01239   0.00000  Uiso   1.00
H524   H     0.58835   0.45242   0.47923   0.00000  Uiso   1.00
H525   H     0.57654   0.41395   0.43204   0.00000  Uiso   1.00
H526   H     0.58596   0.39076   0.48659   0.00000  Uiso   1.00
H527   H     0.42005   0.53528   0.49396   0.00000  Uiso   1.00
H528   H     0.40428   0.36472   0.14793   0.00000  Uiso   1.00
H529   H     0.41136   0.56672   0.44184   0.00000  Uiso   1.00
H530   H     0.41496   0.59707   0.49346   0.00000  Uiso   1.00
H531   H     0.41630   0.45346   0.01667   0.00000  Uiso   1.00
H532   H     0.42413   0.41729   0.06596   0.00000  Uiso   1.00
H533   H     0.41612   0.39146   0.01231   0.00000  Uiso   1.00
H534   H     0.49091   0.61675   0.08073   0.00000  Uiso   1.00
H535   H     0.54473   0.63554   0.08045   0.00000  Uiso   1.00
H536   H     0.51743   0.64441   0.12767   0.00000  Uiso   1.00
H537   H     0.44836   0.39152   0.41761   0.00000  Uiso   1.00
H538   H     0.43653   0.42763   0.36887   0.00000  Uiso   1.00
H539   H     0.45898   0.35773   0.14815   0.00000  Uiso   1.00
H540   H     0.45310   0.36961   0.36308   0.00000  Uiso   1.00
H541   H     0.53408   0.60507   0.39709   0.00000  Uiso   1.00
H542   H     0.49398   0.63410   0.42437   0.00000  Uiso   1.00
H543   H     0.49791   0.64154   0.36679   0.00000  Uiso   1.00
H544   H     0.55066   0.37834   0.14678   0.00000  Uiso   1.00
H545   H     0.55747   0.39194   0.08998   0.00000  Uiso   1.00
H546   H     0.56583   0.43555   0.13316   0.00000  Uiso   1.00
H547   H     0.38088   0.49036   0.14903   0.00000  Uiso   1.00
H548   H     0.66156   0.46738   0.14377   0.00000  Uiso   1.00
H549   H     0.36871   0.43422   0.12547   0.00000  Uiso   1.00
H550   H     0.60612   0.58766   0.31376   0.00000  Uiso   1.00
H551   H     0.60619   0.62179   0.18240   0.00000  Uiso   1.00
H552   H     0.65346   0.59207   0.17759   0.00000  Uiso   1.00
H553   H     0.60447   0.56046   0.17501   0.00000  Uiso   1.00
H554   H     0.64607   0.38375   0.26216   0.00000  Uiso   1.00
H555   H     0.65870   0.36912   0.20654   0.00000  Uiso   1.00
H556   H     0.60883   0.35651   0.22334   0.00000  Uiso   1.00
H557   H     0.36076   0.62864   0.24129   0.00000  Uiso   1.00
H558   H     0.34042   0.62796   0.29577   0.00000  Uiso   1.00
H559   H     0.39256   0.64338   0.29004   0.00000  Uiso   1.00
H560   H     0.60315   0.63731   0.34647   0.00000  Uiso   1.00
H561   H     0.60443   0.64397   0.28733   0.00000  Uiso   1.00
H562   H     0.56235   0.42460   0.34481   0.00000  Uiso   1.00
H563   H     0.60074   0.38274   0.34985   0.00000  Uiso   1.00
H564   H     0.54856   0.36388   0.35401   0.00000  Uiso   1.00
N565   N     0.50000   0.61736   0.25000   0.00000  Uiso   1.00
N566   N     0.50000   0.38264   0.25000   0.00000  Uiso   1.00
O567   O     0.43988   0.53958   0.24999   0.00000  Uiso   1.00
O568   O     0.54949   0.61710   0.31052   0.00000  Uiso   1.00
O569   O     0.56567   0.38269   0.29055   0.00000  Uiso   1.00
O570   O     0.43255   0.61859   0.21266   0.00000  Uiso   1.00
O571   O     0.54316   0.57094   0.02662   0.00000  Uiso   1.00
O572   O     0.52982   0.42127   0.47402   0.00000  Uiso   1.00
O573   O     0.47002   0.57420   0.47497   0.00000  Uiso   1.00
O574   O     0.47325   0.42136   0.02645   0.00000  Uiso   1.00
O575   O     0.53547   0.57777   0.11940   0.00000  Uiso   1.00
O576   O     0.49916   0.41510   0.38662   0.00000  Uiso   1.00
O577   O     0.47336   0.57903   0.38343   0.00000  Uiso   1.00
O578   O     0.56012   0.46042   0.25001   0.00000  Uiso   1.00
O579   O     0.50396   0.41544   0.11400   0.00000  Uiso   1.00
O580   O     0.36910   0.43758   0.19335   0.00000  Uiso   1.00
O581   O     0.62744   0.58490   0.23762   0.00000  Uiso   1.00
O582   O     0.61942   0.42486   0.21000   0.00000  Uiso   1.00
O583   O     0.37895   0.57401   0.28396   0.00000  Uiso   1.00
O584   O     0.56012   0.53958   0.25001   0.00000  Uiso   1.00
O585   O     0.43988   0.46042   0.24999   0.00000  Uiso   1.00
O586   O     0.50000   0.53959   0.18573   0.00000  Uiso   1.00
O587   O     0.50000   0.46041   0.31427   0.00000  Uiso   1.00
O588   O     0.50000   0.53959   0.31427   0.00000  Uiso   1.00
O589   O     0.50000   0.46041   0.18573   0.00000  Uiso   1.00
O590   O     0.43557   0.38061   0.20781   0.00000  Uiso   1.00
C591   C     0.75396   0.49990   0.24880   0.00000  Uiso   1.00
C592   C     0.97948   0.54320   0.24798   0.00000  Uiso   1.00
C593   C     0.97640   0.46164   0.22829   0.00000  Uiso   1.00
C594   C     0.68910   0.54124   0.25804   0.00000  Uiso   1.00
C595   C     0.85657   0.53651   0.04871   0.00000  Uiso   1.00
C596   C     0.84607   0.45958   0.45247   0.00000  Uiso   1.00
C597   C     0.81861   0.53746   0.45264   0.00000  Uiso   1.00
C598   C     0.82458   0.45969   0.04816   0.00000  Uiso   1.00
C599   C     0.85357   0.53961   0.09486   0.00000  Uiso   1.00
C600   C     0.83599   0.45784   0.40703   0.00000  Uiso   1.00
C601   C     0.81968   0.53969   0.40644   0.00000  Uiso   1.00
C602   C     0.91233   0.50037   0.24721   0.00000  Uiso   1.00
C603   C     0.83355   0.45812   0.09363   0.00000  Uiso   1.00
C604   C     0.84081   0.49973   0.11741   0.00000  Uiso   1.00
C605   C     0.82876   0.49932   0.38320   0.00000  Uiso   1.00
C606   C     0.83825   0.49837   0.02490   0.00000  Uiso   1.00
C607   C     0.83481   0.49859   0.47607   0.00000  Uiso   1.00
C608   C     0.95671   0.50130   0.24217   0.00000  Uiso   1.00
C609   C     0.70891   0.50084   0.24553   0.00000  Uiso   1.00
C610   C     0.76796   0.37879   0.16139   0.00000  Uiso   1.00
C611   C     0.92584   0.62256   0.31380   0.00000  Uiso   1.00
C612   C     0.90175   0.38819   0.33669   0.00000  Uiso   1.00
C613   C     0.83615   0.50008   0.16536   0.00000  Uiso   1.00
C614   C     0.76568   0.60238   0.16893   0.00000  Uiso   1.00
C615   C     0.91895   0.56188   0.03066   0.00000  Uiso   1.00
C616   C     0.90528   0.42006   0.46730   0.00000  Uiso   1.00
C617   C     0.76058   0.56749   0.47577   0.00000  Uiso   1.00
C618   C     0.76399   0.42142   0.03091   0.00000  Uiso   1.00
C619   C     0.85461   0.61997   0.10051   0.00000  Uiso   1.00
C620   C     0.79075   0.40082   0.38428   0.00000  Uiso   1.00
C621   C     0.83468   0.61605   0.39396   0.00000  Uiso   1.00
C622   C     0.87964   0.40533   0.12091   0.00000  Uiso   1.00
C623   C     0.69457   0.45870   0.15146   0.00000  Uiso   1.00
C624   C     0.83129   0.49989   0.33483   0.00000  Uiso   1.00
C625   C     0.95628   0.58953   0.19117   0.00000  Uiso   1.00
C626   C     0.96788   0.38212   0.22657   0.00000  Uiso   1.00
C627   C     0.70019   0.62023   0.27688   0.00000  Uiso   1.00
C628   C     0.80254   0.35759   0.22698   0.00000  Uiso   1.00
C629   C     0.86256   0.64168   0.27606   0.00000  Uiso   1.00
C630   C     0.86373   0.35862   0.27454   0.00000  Uiso   1.00
C631   C     0.80238   0.64138   0.22681   0.00000  Uiso   1.00
C632   C     0.68551   0.46494   0.22386   0.00000  Uiso   1.00
Cu633  Cu    0.83333   0.54689   0.25000   0.00000  Uiso   1.00
Cu634  Cu    0.83333   0.45311   0.25000   0.00000  Uiso   1.00
H635   H     0.77069   0.41459   0.14877   0.00000  Uiso   1.00
H636   H     0.75900   0.56455   0.16822   0.00000  Uiso   1.00
H637   H     0.79459   0.60898   0.15348   0.00000  Uiso   1.00
H638   H     0.74005   0.61846   0.14835   0.00000  Uiso   1.00
H639   H     0.92535   0.52780   0.01585   0.00000  Uiso   1.00
H640   H     0.93199   0.56329   0.06571   0.00000  Uiso   1.00
H641   H     0.93492   0.58905   0.01239   0.00000  Uiso   1.00
H642   H     0.92169   0.45242   0.47923   0.00000  Uiso   1.00
H643   H     0.90987   0.41395   0.43204   0.00000  Uiso   1.00
H644   H     0.91929   0.39076   0.48659   0.00000  Uiso   1.00
H645   H     0.75338   0.53528   0.49396   0.00000  Uiso   1.00
H646   H     0.73762   0.36472   0.14793   0.00000  Uiso   1.00
H647   H     0.74469   0.56672   0.44184   0.00000  Uiso   1.00
H648   H     0.74829   0.59707   0.49346   0.00000  Uiso   1.00
H649   H     0.74963   0.45346   0.01667   0.00000  Uiso   1.00
H650   H     0.75746   0.41729   0.06596   0.00000  Uiso   1.00
H651   H     0.74946   0.39146   0.01231   0.00000  Uiso   1.00
H652   H     0.82424   0.61675   0.08073   0.00000  Uiso   1.00
H653   H     0.87806   0.63554   0.08045   0.00000  Uiso   1.00
H654   H     0.85076   0.64441   0.12767   0.00000  Uiso   1.00
H655   H     0.78169   0.39152   0.41761   0.00000  Uiso   1.00
H656   H     0.76987   0.42763   0.36887   0.00000  Uiso   1.00
H657   H     0.79231   0.35773   0.14815   0.00000  Uiso   1.00
H658   H     0.78644   0.36961   0.36308   0.00000  Uiso   1.00
H659   H     0.86741   0.60507   0.39709   0.00000  Uiso   1.00
H660   H     0.82732   0.63410   0.42437   0.00000  Uiso   1.00
H661   H     0.83124   0.64154   0.36679   0.00000  Uiso   1.00
H662   H     0.88400   0.37834   0.14678   0.00000  Uiso   1.00
H663   H     0.89080   0.39194   0.08998   0.00000  Uiso   1.00
H664   H     0.89916   0.43555   0.13316   0.00000  Uiso   1.00
H665   H     0.71421   0.49036   0.14903   0.00000  Uiso   1.00
H666   H     0.99489   0.46738   0.14377   0.00000  Uiso   1.00
H667   H     0.70205   0.43422   0.12547   0.00000  Uiso   1.00
H668   H     0.93945   0.58766   0.31376   0.00000  Uiso   1.00
H669   H     0.93952   0.62179   0.18240   0.00000  Uiso   1.00
H670   H     0.98679   0.59207   0.17759   0.00000  Uiso   1.00
H671   H     0.93780   0.56046   0.17501   0.00000  Uiso   1.00
H672   H     0.97940   0.38375   0.26216   0.00000  Uiso   1.00
H673   H     0.99203   0.36912   0.20654   0.00000  Uiso   1.00
H674   H     0.94216   0.35651   0.22334   0.00000  Uiso   1.00
H675   H     0.69410   0.62864   0.24129   0.00000  Uiso   1.00
H676   H     0.67376   0.62796   0.29577   0.00000  Uiso   1.00
H677   H     0.72589   0.64338   0.29004   0.00000  Uiso   1.00
H678   H     0.93648   0.63731   0.34647   0.00000  Uiso   1.00
H679   H     0.93777   0.64397   0.28733   0.00000  Uiso   1.00
H680   H     0.89568   0.42460   0.34481   0.00000  Uiso   1.00
H681   H     0.93407   0.38274   0.34985   0.00000  Uiso   1.00
H682   H     0.88189   0.36388   0.35401   0.00000  Uiso   1.00
N683   N     0.83333   0.61736   0.25000   0.00000  Uiso   1.00
N684   N     0.83333   0.38264   0.25000   0.00000  Uiso   1.00
O685   O     0.77321   0.53958   0.24999   0.00000  Uiso   1.00
O686   O     0.88282   0.61710   0.31052   0.00000  Uiso   1.00
O687   O     0.89900   0.38269   0.29055   0.00000  Uiso   1.00
O688   O     0.76589   0.61859   0.21266   0.00000  Uiso   1.00
O689   O     0.87650   0.57094   0.02662   0.00000  Uiso   1.00
O690   O     0.86316   0.42127   0.47402   0.00000  Uiso   1.00
O691   O     0.80336   0.57420   0.47497   0.00000  Uiso   1.00
O692   O     0.80658   0.42136   0.02645   0.00000  Uiso   1.00
O693   O     0.86881   0.57777   0.11940   0.00000  Uiso   1.00
O694   O     0.83249   0.41510   0.38662   0.00000  Uiso   1.00
O695   O     0.80669   0.57903   0.38343   0.00000  Uiso   1.00
O696   O     0.89345   0.46042   0.25001   0.00000  Uiso   1.00
O697   O     0.83729   0.41544   0.11400   0.00000  Uiso   1.00
O698   O     0.70244   0.43758   0.19335   0.00000  Uiso   1.00
O699   O     0.96077   0.58490   0.23762   0.00000  Uiso   1.00
O700   O     0.95275   0.42486   0.21000   0.00000  Uiso   1.00
O701   O     0.71229   0.57401   0.28396   0.00000  Uiso   1.00
O702   O     0.89345   0.53958   0.25001   0.00000  Uiso   1.00
O703   O     0.77321   0.46042   0.24999   0.00000  Uiso   1.00
O704   O     0.83333   0.53959   0.18573   0.00000  Uiso   1.00
O705   O     0.83334   0.46041   0.31427   0.00000  Uiso   1.00
O706   O     0.83334   0.53959   0.31427   0.00000  Uiso   1.00
O707   O     0.83333   0.46041   0.18573   0.00000  Uiso   1.00
O708   O     0.76891   0.38061   0.20781   0.00000  Uiso   1.00
C709   C     0.08729   0.83323   0.24880   0.00000  Uiso   1.00
C710   C     0.31281   0.87653   0.24798   0.00000  Uiso   1.00
C711   C     0.30974   0.79498   0.22829   0.00000  Uiso   1.00
C712   C     0.02244   0.87457   0.25804   0.00000  Uiso   1.00
C713   C     0.18990   0.86985   0.04871   0.00000  Uiso   1.00
C714   C     0.17941   0.79291   0.45247   0.00000  Uiso   1.00
C715   C     0.15195   0.87080   0.45264   0.00000  Uiso   1.00
C716   C     0.15791   0.79302   0.04816   0.00000  Uiso   1.00
C717   C     0.18690   0.87294   0.09486   0.00000  Uiso   1.00
C718   C     0.16932   0.79117   0.40703   0.00000  Uiso   1.00
C719   C     0.15301   0.87302   0.40644   0.00000  Uiso   1.00
C720   C     0.24566   0.83371   0.24721   0.00000  Uiso   1.00
C721   C     0.16688   0.79145   0.09363   0.00000  Uiso   1.00
C722   C     0.17414   0.83306   0.11741   0.00000  Uiso   1.00
C723   C     0.16210   0.83265   0.38320   0.00000  Uiso   1.00
C724   C     0.17158   0.83170   0.02490   0.00000  Uiso   1.00
C725   C     0.16814   0.83193   0.47607   0.00000  Uiso   1.00
C726   C     0.29005   0.83463   0.24217   0.00000  Uiso   1.00
C727   C     0.04224   0.83418   0.24553   0.00000  Uiso   1.00
C728   C     0.10129   0.71213   0.16139   0.00000  Uiso   1.00
C729   C     0.25917   0.95589   0.31380   0.00000  Uiso   1.00
C730   C     0.23508   0.72153   0.33669   0.00000  Uiso   1.00
C731   C     0.16948   0.83341   0.16536   0.00000  Uiso   1.00
C732   C     0.09901   0.93571   0.16893   0.00000  Uiso   1.00
C733   C     0.25229   0.89521   0.03066   0.00000  Uiso   1.00
C734   C     0.23861   0.75339   0.46730   0.00000  Uiso   1.00
C735   C     0.09391   0.90082   0.47577   0.00000  Uiso   1.00
C736   C     0.09732   0.75475   0.03091   0.00000  Uiso   1.00
C737   C     0.18795   0.95330   0.10051   0.00000  Uiso   1.00
C738   C     0.12409   0.73415   0.38428   0.00000  Uiso   1.00
C739   C     0.16802   0.94939   0.39396   0.00000  Uiso   1.00
C740   C     0.21297   0.73866   0.12091   0.00000  Uiso   1.00
C741   C     0.02790   0.79204   0.15146   0.00000  Uiso   1.00
C742   C     0.16462   0.83322   0.33483   0.00000  Uiso   1.00
C743   C     0.28962   0.92286   0.19117   0.00000  Uiso   1.00
C744   C     0.30122   0.71545   0.22657   0.00000  Uiso   1.00
C745   C     0.03352   0.95356   0.27688   0.00000  Uiso   1.00
C746   C     0.13587   0.69092   0.22698   0.00000  Uiso   1.00
C747   C     0.19589   0.97502   0.27606   0.00000  Uiso   1.00
C748   C     0.19706   0.69196   0.27454   0.00000  Uiso   1.00
C749   C     0.13571   0.97471   0.22681   0.00000  Uiso   1.00
C750   C     0.01884   0.79828   0.22386   0.00000  Uiso   1.00
Cu751  Cu    0.16667   0.88022   0.25000   0.00000  Uiso   1.00
Cu752  Cu    0.16667   0.78645   0.25000   0.00000  Uiso   1.00
H753   H     0.10402   0.74793   0.14877   0.00000  Uiso   1.00
H754   H     0.09233   0.89789   0.16822   0.00000  Uiso   1.00
H755   H     0.12792   0.94231   0.15348   0.00000  Uiso   1.00
H756   H     0.07338   0.95179   0.14835   0.00000  Uiso   1.00
H757   H     0.25868   0.86114   0.01585   0.00000  Uiso   1.00
H758   H     0.26532   0.89662   0.06571   0.00000  Uiso   1.00
H759   H     0.26826   0.92239   0.01239   0.00000  Uiso   1.00
H760   H     0.25502   0.78575   0.47923   0.00000  Uiso   1.00
H761   H     0.24321   0.74728   0.43204   0.00000  Uiso   1.00
H762   H     0.25262   0.72410   0.48659   0.00000  Uiso   1.00
H763   H     0.08671   0.86862   0.49396   0.00000  Uiso   1.00
H764   H     0.07095   0.69805   0.14793   0.00000  Uiso   1.00
H765   H     0.07803   0.90006   0.44184   0.00000  Uiso   1.00
H766   H     0.08163   0.93041   0.49346   0.00000  Uiso   1.00
H767   H     0.08296   0.78679   0.01667   0.00000  Uiso   1.00
H768   H     0.09080   0.75062   0.06596   0.00000  Uiso   1.00
H769   H     0.08279   0.72480   0.01231   0.00000  Uiso   1.00
H770   H     0.15757   0.95008   0.08073   0.00000  Uiso   1.00
H771   H     0.21140   0.96888   0.08045   0.00000  Uiso   1.00
H772   H     0.18409   0.97774   0.12767   0.00000  Uiso   1.00
H773   H     0.11503   0.72486   0.41761   0.00000  Uiso   1.00
H774   H     0.10320   0.76096   0.36887   0.00000  Uiso   1.00
H775   H     0.12564   0.69106   0.14815   0.00000  Uiso   1.00
H776   H     0.11977   0.70294   0.36308   0.00000  Uiso   1.00
H777   H     0.20074   0.93841   0.39709   0.00000  Uiso   1.00
H778   H     0.16065   0.96743   0.42437   0.00000  Uiso   1.00
H779   H     0.16458   0.97488   0.36679   0.00000  Uiso   1.00
H780   H     0.21733   0.71167   0.14678   0.00000  Uiso   1.00
H781   H     0.22414   0.72528   0.08998   0.00000  Uiso   1.00
H782   H     0.23250   0.76889   0.13316   0.00000  Uiso   1.00
H783   H     0.04755   0.82370   0.14903   0.00000  Uiso   1.00
H784   H     0.32823   0.80071   0.14377   0.00000  Uiso   1.00
H785   H     0.03538   0.76756   0.12547   0.00000  Uiso   1.00
H786   H     0.27278   0.92100   0.31376   0.00000  Uiso   1.00
H787   H     0.27286   0.95512   0.18240   0.00000  Uiso   1.00
H788   H     0.32013   0.92540   0.17759   0.00000  Uiso   1.00
H789   H     0.27114   0.89379   0.17501   0.00000  Uiso   1.00
H790   H     0.31274   0.71709   0.26216   0.00000  Uiso   1.00
H791   H     0.32536   0.70245   0.20654   0.00000  Uiso   1.00
H792   H     0.27550   0.68984   0.22334   0.00000  Uiso   1.00
H793   H     0.02743   0.96198   0.24129   0.00000  Uiso   1.00
H794   H     0.00709   0.96129   0.29577   0.00000  Uiso   1.00
H795   H     0.05922   0.97671   0.29004   0.00000  Uiso   1.00
H796   H     0.26981   0.97065   0.34647   0.00000  Uiso   1.00
H797   H     0.27110   0.97731   0.28733   0.00000  Uiso   1.00
H798   H     0.22902   0.75793   0.34481   0.00000  Uiso   1.00
H799   H     0.26741   0.71608   0.34985   0.00000  Uiso   1.00
H800   H     0.21523   0.69721   0.35401   0.00000  Uiso   1.00
N801   N     0.16667   0.95069   0.25000   0.00000  Uiso   1.00
N802   N     0.16667   0.71598   0.25000   0.00000  Uiso   1.00
O803   O     0.10655   0.87291   0.24999   0.00000  Uiso   1.00
O804   O     0.21616   0.95043   0.31052   0.00000  Uiso   1.00
O805   O     0.23233   0.71602   0.29055   0.00000  Uiso   1.00
O806   O     0.09922   0.95193   0.21266   0.00000  Uiso   1.00
O807   O     0.20983   0.90428   0.02662   0.00000  Uiso   1.00
O808   O     0.19649   0.75460   0.47402   0.00000  Uiso   1.00
O809   O     0.13669   0.90753   0.47497   0.00000  Uiso   1.00
O810   O     0.13991   0.75470   0.02645   0.00000  Uiso   1.00
O811   O     0.20214   0.91110   0.11940   0.00000  Uiso   1.00
O812   O     0.16583   0.74844   0.38662   0.00000  Uiso   1.00
O813   O     0.14002   0.91236   0.38343   0.00000  Uiso   1.00
O814   O     0.22679   0.79375   0.25001   0.00000  Uiso   1.00
O815   O     0.17062   0.74878   0.11400   0.00000  Uiso   1.00
O816   O     0.03577   0.77091   0.19335   0.00000  Uiso   1.00
O817   O     0.29411   0.91823   0.23762   0.00000  Uiso   1.00
O818   O     0.28608   0.75819   0.21000   0.00000  Uiso   1.00
O819   O     0.04562   0.90734   0.28396   0.00000  Uiso   1.00
O820   O     0.22679   0.87291   0.25001   0.00000  Uiso   1.00
O821   O     0.10655   0.79375   0.24999   0.00000  Uiso   1.00
O822   O     0.16666   0.87293   0.18573   0.00000  Uiso   1.00
O823   O     0.16667   0.79374   0.31427   0.00000  Uiso   1.00
O824   O     0.16667   0.87293   0.31427   0.00000  Uiso   1.00
O825   O     0.16666   0.79374   0.18573   0.00000  Uiso   1.00
O826   O     0.10224   0.71394   0.20781   0.00000  Uiso   1.00
C827   C     0.42063   0.83323   0.24880   0.00000  Uiso   1.00
C828   C     0.64614   0.87653   0.24798   0.00000  Uiso   1.00
C829   C     0.64307   0.79498   0.22829   0.00000  Uiso   1.00
C830   C     0.35577   0.87457   0.25804   0.00000  Uiso   1.00
C831   C     0.52324   0.86985   0.04871   0.00000  Uiso   1.00
C832   C     0.51274   0.79291   0.45247   0.00000  Uiso   1.00
C833   C     0.48528   0.87080   0.45264   0.00000  Uiso   1.00
C834   C     0.49125   0.79302   0.04816   0.00000  Uiso   1.00
C835   C     0.52024   0.87294   0.09486   0.00000  Uiso   1.00
C836   C     0.50266   0.79117   0.40703   0.00000  Uiso   1.00
C837   C     0.48635   0.87302   0.40644   0.00000  Uiso   1.00
C838   C     0.57900   0.83371   0.24721   0.00000  Uiso   1.00
C839   C     0.50021   0.79145   0.09363   0.00000  Uiso   1.00
C840   C     0.50748   0.83306   0.11741   0.00000  Uiso   1.00
C841   C     0.49543   0.83265   0.38320   0.00000  Uiso   1.00
C842   C     0.50491   0.83170   0.02490   0.00000  Uiso   1.00
C843   C     0.50147   0.83193   0.47607   0.00000  Uiso   1.00
C844   C     0.62338   0.83463   0.24217   0.00000  Uiso   1.00
C845   C     0.37557   0.83418   0.24553   0.00000  Uiso   1.00
C846   C     0.43462   0.71213   0.16139   0.00000  Uiso   1.00
C847   C     0.59251   0.95589   0.31380   0.00000  Uiso   1.00
C848   C     0.56842   0.72153   0.33669   0.00000  Uiso   1.00
C849   C     0.50282   0.83341   0.16536   0.00000  Uiso   1.00
C850   C     0.43235   0.93571   0.16893   0.00000  Uiso   1.00
C851   C     0.58562   0.89521   0.03066   0.00000  Uiso   1.00
C852   C     0.57194   0.75339   0.46730   0.00000  Uiso   1.00
C853   C     0.42725   0.90082   0.47577   0.00000  Uiso   1.00
C854   C     0.43066   0.75475   0.03091   0.00000  Uiso   1.00
C855   C     0.52128   0.95330   0.10051   0.00000  Uiso   1.00
C856   C     0.45742   0.73415   0.38428   0.00000  Uiso   1.00
C857   C     0.50135   0.94939   0.39396   0.00000  Uiso   1.00
C858   C     0.54631   0.73866   0.12091   0.00000  Uiso   1.00
C859   C     0.36124   0.79204   0.15146   0.00000  Uiso   1.00
C860   C     0.49795   0.83322   0.33483   0.00000  Uiso   1.00
C861   C     0.62295   0.92286   0.19117   0.00000  Uiso   1.00
C862   C     0.63455   0.71545   0.22657   0.00000  Uiso   1.00
C863   C     0.36685   0.95356   0.27688   0.00000  Uiso   1.00
C864   C     0.46920   0.69092   0.22698   0.00000  Uiso   1.00
C865   C     0.52922   0.97502   0.27606   0.00000  Uiso   1.00
C866   C     0.53039   0.69196   0.27454   0.00000  Uiso   1.00
C867   C     0.46904   0.97471   0.22681   0.00000  Uiso   1.00
C868   C     0.35217   0.79828   0.22386   0.00000  Uiso   1.00
Cu869  Cu    0.50000   0.88022   0.25000   0.00000  Uiso   1.00
Cu870  Cu    0.50000   0.78645   0.25000   0.00000  Uiso   1.00
H871   H     0.43735   0.74793   0.14877   0.00000  Uiso   1.00
H872   H     0.42567   0.89789   0.16822   0.00000  Uiso   1.00
H873   H     0.46125   0.94231   0.15348   0.00000  Uiso   1.00
H874   H     0.40671   0.95179   0.14835   0.00000  Uiso   1.00
H875   H     0.59202   0.86114   0.01585   0.00000  Uiso   1.00
H876   H     0.59865   0.89662   0.06571   0.00000  Uiso   1.00
H877   H     0.60159   0.92239   0.01239   0.00000  Uiso   1.00
H878   H     0.58835   0.78575   0.47923   0.00000  Uiso   1.00
H879   H     0.57654   0.74728   0.43204   0.00000  Uiso   1.00
H880   H     0.58596   0.72410   0.48659   0.00000  Uiso   1.00
H881   H     0.42005   0.86862   0.49396   0.00000  Uiso   1.00
H882   H     0.40428   0.69805   0.14793   0.00000  Uiso   1.00
H883   H     0.41136   0.90006   0.44184   0.00000  Uiso   1.00
H884   H     0.41496   0.93041   0.49346   0.00000  Uiso   1.00
H885   H     0.41630   0.78679   0.01667   0.00000  Uiso   1.00
H886   H     0.42413   0.75062   0.06596   0.00000  Uiso   1.00
H887   H     0.41612   0.72480   0.01231   0.00000  Uiso   1.00
H888   H     0.49091   0.95008   0.08073   0.00000  Uiso   1.00
H889   H     0.54473   0.96888   0.08045   0.00000  Uiso   1.00
H890   H     0.51743   0.97774   0.12767   0.00000  Uiso   1.00
H891   H     0.44836   0.72486   0.41761   0.00000  Uiso   1.00
H892   H     0.43653   0.76096   0.36887   0.00000  Uiso   1.00
H893   H     0.45898   0.69106   0.14815   0.00000  Uiso   1.00
H894   H     0.45310   0.70294   0.36308   0.00000  Uiso   1.00
H895   H     0.53408   0.93841   0.39709   0.00000  Uiso   1.00
H896   H     0.49398   0.96743   0.42437   0.00000  Uiso   1.00
H897   H     0.49791   0.97488   0.36679   0.00000  Uiso   1.00
H898   H     0.55066   0.71167   0.14678   0.00000  Uiso   1.00
H899   H     0.55747   0.72528   0.08998   0.00000  Uiso   1.00
H900   H     0.56583   0.76889   0.13316   0.00000  Uiso   1.00
H901   H     0.38088   0.82370   0.14903   0.00000  Uiso   1.00
H902   H     0.66156   0.80071   0.14377   0.00000  Uiso   1.00
H903   H     0.36871   0.76756   0.12547   0.00000  Uiso   1.00
H904   H     0.60612   0.92100   0.31376   0.00000  Uiso   1.00
H905   H     0.60619   0.95512   0.18240   0.00000  Uiso   1.00
H906   H     0.65346   0.92540   0.17759   0.00000  Uiso   1.00
H907   H     0.60447   0.89379   0.17501   0.00000  Uiso   1.00
H908   H     0.64607   0.71709   0.26216   0.00000  Uiso   1.00
H909   H     0.65870   0.70245   0.20654   0.00000  Uiso   1.00
H910   H     0.60883   0.68984   0.22334   0.00000  Uiso   1.00
H911   H     0.36076   0.96198   0.24129   0.00000  Uiso   1.00
H912   H     0.34042   0.96129   0.29577   0.00000  Uiso   1.00
H913   H     0.39256   0.97671   0.29004   0.00000  Uiso   1.00
H914   H     0.60315   0.97065   0.34647   0.00000  Uiso   1.00
H915   H     0.60443   0.97731   0.28733   0.00000  Uiso   1.00
H916   H     0.56235   0.75793   0.34481   0.00000  Uiso   1.00
H917   H     0.60074   0.71608   0.34985   0.00000  Uiso   1.00
H918   H     0.54856   0.69721   0.35401   0.00000  Uiso   1.00
N919   N     0.50000   0.95069   0.25000   0.00000  Uiso   1.00
N920   N     0.50000   0.71598   0.25000   0.00000  Uiso   1.00
O921   O     0.43988   0.87291   0.24999   0.00000  Uiso   1.00
O922   O     0.54949   0.95043   0.31052   0.00000  Uiso   1.00
O923   O     0.56567   0.71602   0.29055   0.00000  Uiso   1.00
O924   O     0.43255   0.95193   0.21266   0.00000  Uiso   1.00
O925   O     0.54316   0.90428   0.02662   0.00000  Uiso   1.00
O926   O     0.52982   0.75460   0.47402   0.00000  Uiso   1.00
O927   O     0.47002   0.90753   0.47497   0.00000  Uiso   1.00
O928   O     0.47325   0.75470   0.02645   0.00000  Uiso   1.00
O929   O     0.53547   0.91110   0.11940   0.00000  Uiso   1.00
O930   O     0.49916   0.74844   0.38662   0.00000  Uiso   1.00
O931   O     0.47336   0.91236   0.38343   0.00000  Uiso   1.00
O932   O     0.56012   0.79375   0.25001   0.00000  Uiso   1.00
O933   O     0.50396   0.74878   0.11400   0.00000  Uiso   1.00
O934   O     0.36910   0.77091   0.19335   0.00000  Uiso   1.00
O935   O     0.62744   0.91823   0.23762   0.00000  Uiso   1.00
O936   O     0.61942   0.75819   0.21000   0.00000  Uiso   1.00
O937   O     0.37895   0.90734   0.28396   0.00000  Uiso   1.00
O938   O     0.56012   0.87291   0.25001   0.00000  Uiso   1.00
O939   O     0.43988   0.79375   0.24999   0.00000  Uiso   1.00
O940   O     0.50000   0.87293   0.18573   0.00000  Uiso   1.00
O941   O     0.50000   0.79374   0.31427   0.00000  Uiso   1.00
O942   O     0.50000   0.87293   0.31427   0.00000  Uiso   1.00
O943   O     0.50000   0.79374   0.18573   0.00000  Uiso   1.00
O944   O     0.43557   0.71394   0.20781   0.00000  Uiso   1.00
C945   C     0.75396   0.83323   0.24880   0.00000  Uiso   1.00
C946   C     0.97948   0.87653   0.24798   0.00000  Uiso   1.00
C947   C     0.97640   0.79498   0.22829   0.00000  Uiso   1.00
C948   C     0.68910   0.87457   0.25804   0.00000  Uiso   1.00
C949   C     0.85657   0.86985   0.04871   0.00000  Uiso   1.00
C950   C     0.84607   0.79291   0.45247   0.00000  Uiso   1.00
C951   C     0.81861   0.87080   0.45264   0.00000  Uiso   1.00
C952   C     0.82458   0.79302   0.04816   0.00000  Uiso   1.00
C953   C     0.85357   0.87294   0.09486   0.00000  Uiso   1.00
C954   C     0.83599   0.79117   0.40703   0.00000  Uiso   1.00
C955   C     0.81968   0.87302   0.40644   0.00000  Uiso   1.00
C956   C     0.91233   0.83371   0.24721   0.00000  Uiso   1.00
C957   C     0.83355   0.79145   0.09363   0.00000  Uiso   1.00
C958   C     0.84081   0.83306   0.11741   0.00000  Uiso   1.00
C959   C     0.82876   0.83265   0.38320   0.00000  Uiso   1.00
C960   C     0.83825   0.83170   0.02490   0.00000  Uiso   1.00
C961   C     0.83481   0.83193   0.47607   0.00000  Uiso   1.00
C962   C     0.95671   0.83463   0.24217   0.00000  Uiso   1.00
C963   C     0.70891   0.83418   0.24553   0.00000  Uiso   1.00
C964   C     0.76796   0.71213   0.16139   0.00000  Uiso   1.00
C965   C     0.92584   0.95589   0.31380   0.00000  Uiso   1.00
C966   C     0.90175   0.72153   0.33669   0.00000  Uiso   1.00
C967   C     0.83615   0.83341   0.16536   0.00000  Uiso   1.00
C968   C     0.76568   0.93571   0.16893   0.00000  Uiso   1.00
C969   C     0.91895   0.89521   0.03066   0.00000  Uiso   1.00
C970   C     0.90528   0.75339   0.46730   0.00000  Uiso   1.00
C971   C     0.76058   0.90082   0.47577   0.00000  Uiso   1.00
C972   C     0.76399   0.75475   0.03091   0.00000  Uiso   1.00
C973   C     0.85461   0.95330   0.10051   0.00000  Uiso   1.00
C974   C     0.79075   0.73415   0.38428   0.00000  Uiso   1.00
C975   C     0.83468   0.94939   0.39396   0.00000  Uiso   1.00
C976   C     0.87964   0.73866   0.12091   0.00000  Uiso   1.00
C977   C     0.69457   0.79204   0.15146   0.00000  Uiso   1.00
C978   C     0.83129   0.83322   0.33483   0.00000  Uiso   1.00
C979   C     0.95628   0.92286   0.19117   0.00000  Uiso   1.00
C980   C     0.96788   0.71545   0.22657   0.00000  Uiso   1.00
C981   C     0.70019   0.95356   0.27688   0.00000  Uiso   1.00
C982   C     0.80254   0.69092   0.22698   0.00000  Uiso   1.00
C983   C     0.86256   0.97502   0.27606   0.00000  Uiso   1.00
C984   C     0.86373   0.69196   0.27454   0.00000  Uiso   1.00
C985   C     0.80238   0.97471   0.22681   0.00000  Uiso   1.00
C986   C     0.68551   0.79828   0.22386   0.00000  Uiso   1.00
Cu987  Cu    0.83333   0.88022   0.25000   0.00000  Uiso   1.00
Cu988  Cu    0.83333   0.78645   0.25000   0.00000  Uiso   1.00
H989   H     0.77069   0.74793   0.14877   0.00000  Uiso   1.00
H990   H     0.75900   0.89789   0.16822   0.00000  Uiso   1.00
H991   H     0.79459   0.94231   0.15348   0.00000  Uiso   1.00
H992   H     0.74005   0.95179   0.14835   0.00000  Uiso   1.00
H993   H     0.92535   0.86114   0.01585   0.00000  Uiso   1.00
H994   H     0.93199   0.89662   0.06571   0.00000  Uiso   1.00
H995   H     0.93492   0.92239   0.01239   0.00000  Uiso   1.00
H996   H     0.92169   0.78575   0.47923   0.00000  Uiso   1.00
H997   H     0.90987   0.74728   0.43204   0.00000  Uiso   1.00
H998   H     0.91929   0.72410   0.48659   0.00000  Uiso   1.00
H999   H     0.75338   0.86862   0.49396   0.00000  Uiso   1.00
H1000  H     0.73762   0.69805   0.14793   0.00000  Uiso   1.00
H1001  H     0.74469   0.90006   0.44184   0.00000  Uiso   1.00
H1002  H     0.74829   0.93041   0.49346   0.00000  Uiso   1.00
H1003  H     0.74963   0.78679   0.01667   0.00000  Uiso   1.00
H1004  H     0.75746   0.75062   0.06596   0.00000  Uiso   1.00
H1005  H     0.74946   0.72480   0.01231   0.00000  Uiso   1.00
H1006  H     0.82424   0.95008   0.08073   0.00000  Uiso   1.00
H1007  H     0.87806   0.96888   0.08045   0.00000  Uiso   1.00
H1008  H     0.85076   0.97774   0.12767   0.00000  Uiso   1.00
H1009  H     0.78169   0.72486   0.41761   0.00000  Uiso   1.00
H1010  H     0.76987   0.76096   0.36887   0.00000  Uiso   1.00
H1011  H     0.79231   0.69106   0.14815   0.00000  Uiso   1.00
H1012  H     0.78644   0.70294   0.36308   0.00000  Uiso   1.00
H1013  H     0.86741   0.93841   0.39709   0.00000  Uiso   1.00
H1014  H     0.82732   0.96743   0.42437   0.00000  Uiso   1.00
H1015  H     0.83124   0.97488   0.36679   0.00000  Uiso   1.00
H1016  H     0.88400   0.71167   0.14678   0.00000  Uiso   1.00
H1017  H     0.89080   0.72528   0.08998   0.00000  Uiso   1.00
H1018  H     0.89916   0.76889   0.13316   0.00000  Uiso   1.00
H1019  H     0.71421   0.82370   0.14903   0.00000  Uiso   1.00
H1020  H     0.99489   0.80071   0.14377   0.00000  Uiso   1.00
H1021  H     0.70205   0.76756   0.12547   0.00000  Uiso   1.00
H1022  H     0.93945   0.92100   0.31376   0.00000  Uiso   1.00
H1023  H     0.93952   0.95512   0.18240   0.00000  Uiso   1.00
H1024  H     0.98679   0.92540   0.17759   0.00000  Uiso   1.00
H1025  H     0.93780   0.89379   0.17501   0.00000  Uiso   1.00
H1026  H     0.97940   0.71709   0.26216   0.00000  Uiso   1.00
H1027  H     0.99203   0.70245   0.20654   0.00000  Uiso   1.00
H1028  H     0.94216   0.68984   0.22334   0.00000  Uiso   1.00
H1029  H     0.69410   0.96198   0.24129   0.00000  Uiso   1.00
H1030  H     0.67376   0.96129   0.29577   0.00000  Uiso   1.00
H1031  H     0.72589   0.97671   0.29004   0.00000  Uiso   1.00
H1032  H     0.93648   0.97065   0.34647   0.00000  Uiso   1.00
H1033  H     0.93777   0.97731   0.28733   0.00000  Uiso   1.00
H1034  H     0.89568   0.75793   0.34481   0.00000  Uiso   1.00
H1035  H     0.93407   0.71608   0.34985   0.00000  Uiso   1.00
H1036  H     0.88189   0.69721   0.35401   0.00000  Uiso   1.00
N1037  N     0.83333   0.95069   0.25000   0.00000  Uiso   1.00
N1038  N     0.83333   0.71598   0.25000   0.00000  Uiso   1.00
O1039  O     0.77321   0.87291   0.24999   0.00000  Uiso   1.00
O1040  O     0.88282   0.95043   0.31052   0.00000  Uiso   1.00
O1041  O     0.89900   0.71602   0.29055   0.00000  Uiso   1.00
O1042  O     0.76589   0.95193   0.21266   0.00000  Uiso   1.00
O1043  O     0.87650   0.90428   0.02662   0.00000  Uiso   1.00
O1044  O     0.86316   0.75460   0.47402   0.00000  Uiso   1.00
O1045  O     0.80336   0.90753   0.47497   0.00000  Uiso   1.00
O1046  O     0.80658   0.75470   0.02645   0.00000  Uiso   1.00
O1047  O     0.86881   0.91110   0.11940   0.00000  Uiso   1.00
O1048  O     0.83249   0.74844   0.38662   0.00000  Uiso   1.00
O1049  O     0.80669   0.91236   0.38343   0.00000  Uiso   1.00
O1050  O     0.89345   0.79375   0.25001   0.00000  Uiso   1.00
O1051  O     0.83729   0.74878   0.11400   0.00000  Uiso   1.00
O1052  O     0.70244   0.77091   0.19335   0.00000  Uiso   1.00
O1053  O     0.96077   0.91823   0.23762   0.00000  Uiso   1.00
O1054  O     0.95275   0.75819   0.21000   0.00000  Uiso   1.00
O1055  O     0.71229   0.90734   0.28396   0.00000  Uiso   1.00
O1056  O     0.89345   0.87291   0.25001   0.00000  Uiso   1.00
O1057  O     0.77321   0.79375   0.24999   0.00000  Uiso   1.00
O1058  O     0.83333   0.87293   0.18573   0.00000  Uiso   1.00
O1059  O     0.83334   0.79374   0.31427   0.00000  Uiso   1.00
O1060  O     0.83334   0.87293   0.31427   0.00000  Uiso   1.00
O1061  O     0.83333   0.79374   0.18573   0.00000  Uiso   1.00
O1062  O     0.76891   0.71394   0.20781   0.00000  Uiso   1.00
C1063  C     0.08729   0.16656   0.74880   0.00000  Uiso   1.00
C1064  C     0.31281   0.20987   0.74798   0.00000  Uiso   1.00
C1065  C     0.30974   0.12831   0.72829   0.00000  Uiso   1.00
C1066  C     0.02244   0.20791   0.75804   0.00000  Uiso   1.00
C1067  C     0.18990   0.20318   0.54871   0.00000  Uiso   1.00
C1068  C     0.17941   0.12625   0.95247   0.00000  Uiso   1.00
C1069  C     0.15195   0.20413   0.95264   0.00000  Uiso   1.00
C1070  C     0.15791   0.12636   0.54816   0.00000  Uiso   1.00
C1071  C     0.18690   0.20627   0.59486   0.00000  Uiso   1.00
C1072  C     0.16932   0.12451   0.90703   0.00000  Uiso   1.00
C1073  C     0.15301   0.20636   0.90644   0.00000  Uiso   1.00
C1074  C     0.24566   0.16704   0.74721   0.00000  Uiso   1.00
C1075  C     0.16688   0.12478   0.59363   0.00000  Uiso   1.00
C1076  C     0.17414   0.16639   0.61741   0.00000  Uiso   1.00
C1077  C     0.16210   0.16599   0.88320   0.00000  Uiso   1.00
C1078  C     0.17158   0.16503   0.52490   0.00000  Uiso   1.00
C1079  C     0.16814   0.16526   0.97607   0.00000  Uiso   1.00
C1080  C     0.29005   0.16797   0.74217   0.00000  Uiso   1.00
C1081  C     0.04224   0.16751   0.74553   0.00000  Uiso   1.00
C1082  C     0.10129   0.04546   0.66139   0.00000  Uiso   1.00
C1083  C     0.25917   0.28922   0.81380   0.00000  Uiso   1.00
C1084  C     0.23508   0.05486   0.83669   0.00000  Uiso   1.00
C1085  C     0.16948   0.16674   0.66536   0.00000  Uiso   1.00
C1086  C     0.09901   0.26904   0.66893   0.00000  Uiso   1.00
C1087  C     0.25229   0.22854   0.53066   0.00000  Uiso   1.00
C1088  C     0.23861   0.08672   0.96730   0.00000  Uiso   1.00
C1089  C     0.09391   0.23416   0.97577   0.00000  Uiso   1.00
C1090  C     0.09732   0.08808   0.53091   0.00000  Uiso   1.00
C1091  C     0.18795   0.28664   0.60051   0.00000  Uiso   1.00
C1092  C     0.12409   0.06748   0.88428   0.00000  Uiso   1.00
C1093  C     0.16802   0.28272   0.89396   0.00000  Uiso   1.00
C1094  C     0.21297   0.07199   0.62091   0.00000  Uiso   1.00
C1095  C     0.02790   0.12537   0.65146   0.00000  Uiso   1.00
C1096  C     0.16462   0.16656   0.83483   0.00000  Uiso   1.00
C1097  C     0.28962   0.25619   0.69117   0.00000  Uiso   1.00
C1098  C     0.30122   0.04879   0.72657   0.00000  Uiso   1.00
C1099  C     0.03352   0.28690   0.77688   0.00000  Uiso   1.00
C1100  C     0.13587   0.02425   0.72698   0.00000  Uiso   1.00
C1101  C     0.19589   0.30835   0.77606   0.00000  Uiso   1.00
C1102  C     0.19706   0.02529   0.77454   0.00000  Uiso   1.00
C1103  C     0.13571   0.30804   0.72681   0.00000  Uiso   1.00
C1104  C     0.01884   0.13161   0.72386   0.00000  Uiso   1.00
Cu1105 Cu    0.16667   0.21355   0.75000   0.00000  Uiso   1.00
Cu1106 Cu    0.16667   0.11978   0.75000   0.00000  Uiso   1.00
H1107  H     0.10402   0.08126   0.64877   0.00000  Uiso   1.00
H1108  H     0.09233   0.23122   0.66822   0.00000  Uiso   1.00
H1109  H     0.12792   0.27564   0.65348   0.00000  Uiso   1.00
H1110  H     0.07338   0.28513   0.64835   0.00000  Uiso   1.00
H1111  H     0.25868   0.19447   0.51585   0.00000  Uiso   1.00
H1112  H     0.26532   0.22996   0.56571   0.00000  Uiso   1.00
H1113  H     0.26826   0.25572   0.51239   0.00000  Uiso   1.00
H1114  H     0.25502   0.11908   0.97923   0.00000  Uiso   1.00
H1115  H     0.24321   0.08061   0.93204   0.00000  Uiso   1.00
H1116  H     0.25262   0.05743   0.98659   0.00000  Uiso   1.00
H1117  H     0.08671   0.20195   0.99396   0.00000  Uiso   1.00
H1118  H     0.07095   0.03139   0.64793   0.00000  Uiso   1.00
H1119  H     0.07803   0.23339   0.94184   0.00000  Uiso   1.00
H1120  H     0.08163   0.26374   0.99346   0.00000  Uiso   1.00
H1121  H     0.08296   0.12012   0.51667   0.00000  Uiso   1.00
H1122  H     0.09080   0.08395   0.56596   0.00000  Uiso   1.00
H1123  H     0.08279   0.05813   0.51231   0.00000  Uiso   1.00
H1124  H     0.15757   0.28341   0.58073   0.00000  Uiso   1.00
H1125  H     0.21140   0.30221   0.58045   0.00000  Uiso   1.00
H1126  H     0.18409   0.31107   0.62767   0.00000  Uiso   1.00
H1127  H     0.11503   0.05819   0.91761   0.00000  Uiso   1.00
H1128  H     0.10320   0.09430   0.86887   0.00000  Uiso   1.00
H1129  H     0.12564   0.02439   0.64815   0.00000  Uiso   1.00
H1130  H     0.11977   0.03628   0.86308   0.00000  Uiso   1.00
H1131  H     0.20074   0.27174   0.89709   0.00000  Uiso   1.00
H1132  H     0.16065   0.30076   0.92437   0.00000  Uiso   1.00
H1133  H     0.16458   0.30821   0.86679   0.00000  Uiso   1.00
H1134  H     0.21733   0.04500   0.64678   0.00000  Uiso   1.00
H1135  H     0.22414   0.05861   0.58998   0.00000  Uiso   1.00
H1136  H     0.23250   0.10222   0.63316   0.00000  Uiso   1.00
H1137  H     0.04755   0.15703   0.64903   0.00000  Uiso   1.00
H1138  H     0.32823   0.13405   0.64377   0.00000  Uiso   1.00
H1139  H     0.03538   0.10089   0.62547   0.00000  Uiso   1.00
H1140  H     0.27278   0.25433   0.81376   0.00000  Uiso   1.00
H1141  H     0.27286   0.28845   0.68240   0.00000  Uiso   1.00
H1142  H     0.32013   0.25874   0.67759   0.00000  Uiso   1.00
H1143  H     0.27114   0.22712   0.67501   0.00000  Uiso   1.00
H1144  H     0.31274   0.05042   0.76216   0.00000  Uiso   1.00
H1145  H     0.32536   0.03578   0.70654   0.00000  Uiso   1.00
H1146  H     0.27550   0.02318   0.72334   0.00000  Uiso   1.00
H1147  H     0.02743   0.29531   0.74129   0.00000  Uiso   1.00
H1148  H     0.00709   0.29462   0.79577   0.00000  Uiso   1.00
H1149  H     0.05922   0.31005   0.79004   0.00000  Uiso   1.00
H1150  H     0.26981   0.30398   0.84647   0.00000  Uiso   1.00
H1151  H     0.27110   0.31064   0.78733   0.00000  Uiso   1.00
H1152  H     0.22902   0.09127   0.84481   0.00000  Uiso   1.00
H1153  H     0.26741   0.04941   0.84985   0.00000  Uiso   1.00
H1154  H     0.21523   0.03055   0.85401   0.00000  Uiso   1.00
N1155  N     0.16667   0.28402   0.75000   0.00000  Uiso   1.00
N1156  N     0.16667   0.04931   0.75000   0.00000  Uiso   1.00
O1157  O     0.10655   0.20625   0.74999   0.00000  Uiso   1.00
O1158  O     0.21616   0.28377   0.81052   0.00000  Uiso   1.00
O1159  O     0.23233   0.04936   0.79055   0.00000  Uiso   1.00
O1160  O     0.09922   0.28526   0.71266   0.00000  Uiso   1.00
O1161  O     0.20983   0.23761   0.52662   0.00000  Uiso   1.00
O1162  O     0.19649   0.08793   0.97402   0.00000  Uiso   1.00
O1163  O     0.13669   0.24087   0.97497   0.00000  Uiso   1.00
O1164  O     0.13991   0.08803   0.52645   0.00000  Uiso   1.00
O1165  O     0.20214   0.24443   0.61940   0.00000  Uiso   1.00
O1166  O     0.16583   0.08177   0.88662   0.00000  Uiso   1.00
O1167  O     0.14002   0.24570   0.88343   0.00000  Uiso   1.00
O1168  O     0.22679   0.12709   0.75001   0.00000  Uiso   1.00
O1169  O     0.17062   0.08211   0.61400   0.00000  Uiso   1.00
O1170  O     0.03577   0.10424   0.69335   0.00000  Uiso   1.00
O1171  O     0.29411   0.25156   0.73762   0.00000  Uiso   1.00
O1172  O     0.28608   0.09152   0.71000   0.00000  Uiso   1.00
O1173  O     0.04562   0.24067   0.78396   0.00000  Uiso   1.00
O1174  O     0.22679   0.20625   0.75001   0.00000  Uiso   1.00
O1175  O     0.10655   0.12709   0.74999   0.00000  Uiso   1.00
O1176  O     0.16666   0.20626   0.68573   0.00000  Uiso   1.00
O1177  O     0.16667   0.12707   0.81427   0.00000  Uiso   1.00
O1178  O     0.16667   0.20626   0.81427   0.00000  Uiso   1.00
O1179  O     0.16666   0.12707   0.68573   0.00000  Uiso   1.00
O1180  O     0.10224   0.04728   0.70781   0.00000  Uiso   1.00
C1181  C     0.42063   0.16656   0.74880   0.00000  Uiso   1.00
C1182  C     0.64614   0.20987   0.74798   0.00000  Uiso   1.00
C1183  C     0.64307   0.12831   0.72829   0.00000  Uiso   1.00
C1184  C     0.35577   0.20791   0.75804   0.00000  Uiso   1.00
C1185  C     0.52324   0.20318   0.54871   0.00000  Uiso   1.00
C1186  C     0.51274   0.12625   0.95247   0.00000  Uiso   1.00
C1187  C     0.48528   0.20413   0.95264   0.00000  Uiso   1.00
C1188  C     0.49125   0.12636   0.54816   0.00000  Uiso   1.00
C1189  C     0.52024   0.20627   0.59486   0.00000  Uiso   1.00
C1190  C     0.50266   0.12451   0.90703   0.00000  Uiso   1.00
C1191  C     0.48635   0.20636   0.90644   0.00000  Uiso   1.00
C1192  C     0.57900   0.16704   0.74721   0.00000  Uiso   1.00
C1193  C     0.50021   0.12478   0.59363   0.00000  Uiso   1.00
C1194  C     0.50748   0.16639   0.61741   0.00000  Uiso   1.00
C1195  C     0.49543   0.16599   0.88320   0.00000  Uiso   1.00
C1196  C     0.50491   0.16503   0.52490   0.00000  Uiso   1.00
C1197  C     0.50147   0.16526   0.97607   0.00000  Uiso   1.00
C1198  C     0.62338   0.16797   0.74217   0.00000  Uiso   1.00
C1199  C     0.37557   0.16751   0.74553   0.00000  Uiso   1.00
C1200  C     0.43462   0.04546   0.66139   0.00000  Uiso   1.00
C1201  C     0.59251   0.28922   0.81380   0.00000  Uiso   1.00
C1202  C     0.56842   0.05486   0.83669   0.00000  Uiso   1.00
C1203  C     0.50282   0.16674   0.66536   0.00000  Uiso   1.00
C1204  C     0.43235   0.26904   0.66893   0.00000  Uiso   1.00
C1205  C     0.58562   0.22854   0.53066   0.00000  Uiso   1.00
C1206  C     0.57194   0.08672   0.96730   0.00000  Uiso   1.00
C1207  C     0.42725   0.23416   0.97577   0.00000  Uiso   1.00
C1208  C     0.43066   0.08808   0.53091   0.00000  Uiso   1.00
C1209  C     0.52128   0.28664   0.60051   0.00000  Uiso   1.00
C1210  C     0.45742   0.06748   0.88428   0.00000  Uiso   1.00
C1211  C     0.50135   0.28272   0.89396   0.00000  Uiso   1.00
C1212  C     0.54631   0.07199   0.62091   0.00000  Uiso   1.00
C1213  C     0.36124   0.12537   0.65146   0.00000  Uiso   1.00
C1214  C     0.49795   0.16656   0.83483   0.00000  Uiso   1.00
C1215  C     0.62295   0.25619   0.69117   0.00000  Uiso   1.00
C1216  C     0.63455   0.04879   0.72657   0.00000  Uiso   1.00
C1217  C     0.36685   0.28690   0.77688   0.00000  Uiso   1.00
C1218  C     0.46920   0.02425   0.72698   0.00000  Uiso   1.00
C1219  C     0.52922   0.30835   0.77606   0.00000  Uiso   1.00
C1220  C     0.53039   0.02529   0.77454   0.00000  Uiso   1.00
C1221  C     0.46904   0.30804   0.72681   0.00000  Uiso   1.00
C1222  C     0.35217   0.13161   0.72386   0.00000  Uiso   1.00
Cu1223 Cu    0.50000   0.21355   0.75000   0.00000  Uiso   1.00
Cu1224 Cu    0.50000   0.11978   0.75000   0.00000  Uiso   1.00
H1225  H     0.43735   0.08126   0.64877   0.00000  Uiso   1.00
H1226  H     0.42567   0.23122   0.66822   0.00000  Uiso   1.00
H1227  H     0.46125   0.27564   0.65348   0.00000  Uiso   1.00
H1228  H     0.40671   0.28513   0.64835   0.00000  Uiso   1.00
H1229  H     0.59202   0.19447   0.51585   0.00000  Uiso   1.00
H1230  H     0.59865   0.22996   0.56571   0.00000  Uiso   1.00
H1231  H     0.60159   0.25572   0.51239   0.00000  Uiso   1.00
H1232  H     0.58835   0.11908   0.97923   0.00000  Uiso   1.00
H1233  H     0.57654   0.08061   0.93204   0.00000  Uiso   1.00
H1234  H     0.58596   0.05743   0.98659   0.00000  Uiso   1.00
H1235  H     0.42005   0.20195   0.99396   0.00000  Uiso   1.00
H1236  H     0.40428   0.03139   0.64793   0.00000  Uiso   1.00
H1237  H     0.41136   0.23339   0.94184   0.00000  Uiso   1.00
H1238  H     0.41496   0.26374   0.99346   0.00000  Uiso   1.00
H1239  H     0.41630   0.12012   0.51667   0.00000  Uiso   1.00
H1240  H     0.42413   0.08395   0.56596   0.00000  Uiso   1.00
H1241  H     0.41612   0.05813   0.51231   0.00000  Uiso   1.00
H1242  H     0.49091   0.28341   0.58073   0.00000  Uiso   1.00
H1243  H     0.54473   0.30221   0.58045   0.00000  Uiso   1.00
H1244  H     0.51743   0.31107   0.62767   0.00000  Uiso   1.00
H1245  H     0.44836   0.05819   0.91761   0.00000  Uiso   1.00
H1246  H     0.43653   0.09430   0.86887   0.00000  Uiso   1.00
H1247  H     0.45898   0.02439   0.64815   0.00000  Uiso   1.00
H1248  H     0.45310   0.03628   0.86308   0.00000  Uiso   1.00
H1249  H     0.53408   0.27174   0.89709   0.00000  Uiso   1.00
H1250  H     0.49398   0.30076   0.92437   0.00000  Uiso   1.00
H1251  H     0.49791   0.30821   0.86679   0.00000  Uiso   1.00
H1252  H     0.55066   0.04500   0.64678   0.00000  Uiso   1.00
H1253  H     0.55747   0.05861   0.58998   0.00000  Uiso   1.00
H1254  H     0.56583   0.10222   0.63316   0.00000  Uiso   1.00
H1255  H     0.38088   0.15703   0.64903   0.00000  Uiso   1.00
H1256  H     0.66156   0.13405   0.64377   0.00000  Uiso   1.00
H1257  H     0.36871   0.10089   0.62547   0.00000  Uiso   1.00
H1258  H     0.60612   0.25433   0.81376   0.00000  Uiso   1.00
H1259  H     0.60619   0.28845   0.68240   0.00000  Uiso   1.00
H1260  H     0.65346   0.25874   0.67759   0.00000  Uiso   1.00
H1261  H     0.60447   0.22712   0.67501   0.00000  Uiso   1.00
H1262  H     0.64607   0.05042   0.76216   0.00000  Uiso   1.00
H1263  H     0.65870   0.03578   0.70654   0.00000  Uiso   1.00
H1264  H     0.60883   0.02318   0.72334   0.00000  Uiso   1.00
H1265  H     0.36076   0.29531   0.74129   0.00000  Uiso   1.00
H1266  H     0.34042   0.29462   0.79577   0.00000  Uiso   1.00
H1267  H     0.39256   0.31005   0.79004   0.00000  Uiso   1.00
H1268  H     0.60315   0.30398   0.84647   0.00000  Uiso   1.00
H1269  H     0.60443   0.31064   0.78733   0.00000  Uiso   1.00
H1270  H     0.56235   0.09127   0.84481   0.00000  Uiso   1.00
H1271  H     0.60074   0.04941   0.84985   0.00000  Uiso   1.00
H1272  H     0.54856   0.03055   0.85401   0.00000  Uiso   1.00
N1273  N     0.50000   0.28402   0.75000   0.00000  Uiso   1.00
N1274  N     0.50000   0.04931   0.75000   0.00000  Uiso   1.00
O1275  O     0.43988   0.20625   0.74999   0.00000  Uiso   1.00
O1276  O     0.54949   0.28377   0.81052   0.00000  Uiso   1.00
O1277  O     0.56567   0.04936   0.79055   0.00000  Uiso   1.00
O1278  O     0.43255   0.28526   0.71266   0.00000  Uiso   1.00
O1279  O     0.54316   0.23761   0.52662   0.00000  Uiso   1.00
O1280  O     0.52982   0.08793   0.97402   0.00000  Uiso   1.00
O1281  O     0.47002   0.24087   0.97497   0.00000  Uiso   1.00
O1282  O     0.47325   0.08803   0.52645   0.00000  Uiso   1.00
O1283  O     0.53547   0.24443   0.61940   0.00000  Uiso   1.00
O1284  O     0.49916   0.08177   0.88662   0.00000  Uiso   1.00
O1285  O     0.47336   0.24570   0.88343   0.00000  Uiso   1.00
O1286  O     0.56012   0.12709   0.75001   0.00000  Uiso   1.00
O1287  O     0.50396   0.08211   0.61400   0.00000  Uiso   1.00
O1288  O     0.36910   0.10424   0.69335   0.00000  Uiso   1.00
O1289  O     0.62744   0.25156   0.73762   0.00000  Uiso   1.00
O1290  O     0.61942   0.09152   0.71000   0.00000  Uiso   1.00
O1291  O     0.37895   0.24067   0.78396   0.00000  Uiso   1.00
O1292  O     0.56012   0.20625   0.75001   0.00000  Uiso   1.00
O1293  O     0.43988   0.12709   0.74999   0.00000  Uiso   1.00
O1294  O     0.50000   0.20626   0.68573   0.00000  Uiso   1.00
O1295  O     0.50000   0.12707   0.81427   0.00000  Uiso   1.00
O1296  O     0.50000   0.20626   0.81427   0.00000  Uiso   1.00
O1297  O     0.50000   0.12707   0.68573   0.00000  Uiso   1.00
O1298  O     0.43557   0.04728   0.70781   0.00000  Uiso   1.00
C1299  C     0.75396   0.16656   0.74880   0.00000  Uiso   1.00
C1300  C     0.97948   0.20987   0.74798   0.00000  Uiso   1.00
C1301  C     0.97640   0.12831   0.72829   0.00000  Uiso   1.00
C1302  C     0.68910   0.20791   0.75804   0.00000  Uiso   1.00
C1303  C     0.85657   0.20318   0.54871   0.00000  Uiso   1.00
C1304  C     0.84607   0.12625   0.95247   0.00000  Uiso   1.00
C1305  C     0.81861   0.20413   0.95264   0.00000  Uiso   1.00
C1306  C     0.82458   0.12636   0.54816   0.00000  Uiso   1.00
C1307  C     0.85357   0.20627   0.59486   0.00000  Uiso   1.00
C1308  C     0.83599   0.12451   0.90703   0.00000  Uiso   1.00
C1309  C     0.81968   0.20636   0.90644   0.00000  Uiso   1.00
C1310  C     0.91233   0.16704   0.74721   0.00000  Uiso   1.00
C1311  C     0.83355   0.12478   0.59363   0.00000  Uiso   1.00
C1312  C     0.84081   0.16639   0.61741   0.00000  Uiso   1.00
C1313  C     0.82876   0.16599   0.88320   0.00000  Uiso   1.00
C1314  C     0.83825   0.16503   0.52490   0.00000  Uiso   1.00
C1315  C     0.83481   0.16526   0.97607   0.00000  Uiso   1.00
C1316  C     0.95671   0.16797   0.74217   0.00000  Uiso   1.00
C1317  C     0.70891   0.16751   0.74553   0.00000  Uiso   1.00
C1318  C     0.76796   0.04546   0.66139   0.00000  Uiso   1.00
C1319  C     0.92584   0.28922   0.81380   0.00000  Uiso   1.00
C1320  C     0.90175   0.05486   0.83669   0.00000  Uiso   1.00
C1321  C     0.83615   0.16674   0.66536   0.00000  Uiso   1.00
C1322  C     0.76568   0.26904   0.66893   0.00000  Uiso   1.00
C1323  C     0.91895   0.22854   0.53066   0.00000  Uiso   1.00
C1324  C     0.90528   0.08672   0.96730   0.00000  Uiso   1.00
C1325  C     0.76058   0.23416   0.97577   0.00000  Uiso   1.00
C1326  C     0.76399   0.08808   0.53091   0.00000  Uiso   1.00
C1327  C     0.85461   0.28664   0.60051   0.00000  Uiso   1.00
C1328  C     0.79075   0.06748   0.88428   0.00000  Uiso   1.00
C1329  C     0.83468   0.28272   0.89396   0.00000  Uiso   1.00
C1330  C     0.87964   0.07199   0.62091   0.00000  Uiso   1.00
C1331  C     0.69457   0.12537   0.65146   0.00000  Uiso   1.00
C1332  C     0.83129   0.16656   0.83483   0.00000  Uiso   1.00
C1333  C     0.95628   0.25619   0.69117   0.00000  Uiso   1.00
C1334  C     0.96788   0.04879   0.72657   0.00000  Uiso   1.00
C1335  C     0.70019   0.28690   0.77688   0.00000  Uiso   1.00
C1336  C     0.80254   0.02425   0.72698   0.00000  Uiso   1.00
C1337  C     0.86256   0.30835   0.77606   0.00000  Uiso   1.00
C1338  C     0.86373   0.02529   0.77454   0.00000  Uiso   1.00
C1339  C     0.80238   0.30804   0.72681   0.00000  Uiso   1.00
C1340  C     0.68551   0.13161   0.72386   0.00000  Uiso   1.00
Cu1341 Cu    0.83333   0.21355   0.75000   0.00000  Uiso   1.00
Cu1342 Cu    0.83333   0.11978   0.75000   0.00000  Uiso   1.00
H1343  H     0.77069   0.08126   0.64877   0.00000  Uiso   1.00
H1344  H     0.75900   0.23122   0.66822   0.00000  Uiso   1.00
H1345  H     0.79459   0.27564   0.65348   0.00000  Uiso   1.00
H1346  H     0.74005   0.28513   0.64835   0.00000  Uiso   1.00
H1347  H     0.92535   0.19447   0.51585   0.00000  Uiso   1.00
H1348  H     0.93199   0.22996   0.56571   0.00000  Uiso   1.00
H1349  H     0.93492   0.25572   0.51239   0.00000  Uiso   1.00
H1350  H     0.92169   0.11908   0.97923   0.00000  Uiso   1.00
H1351  H     0.90987   0.08061   0.93204   0.00000  Uiso   1.00
H1352  H     0.91929   0.05743   0.98659   0.00000  Uiso   1.00
H1353  H     0.75338   0.20195   0.99396   0.00000  Uiso   1.00
H1354  H     0.73762   0.03139   0.64793   0.00000  Uiso   1.00
H1355  H     0.74469   0.23339   0.94184   0.00000  Uiso   1.00
H1356  H     0.74829   0.26374   0.99346   0.00000  Uiso   1.00
H1357  H     0.74963   0.12012   0.51667   0.00000  Uiso   1.00
H1358  H     0.75746   0.08395   0.56596   0.00000  Uiso   1.00
H1359  H     0.74946   0.05813   0.51231   0.00000  Uiso   1.00
H1360  H     0.82424   0.28341   0.58073   0.00000  Uiso   1.00
H1361  H     0.87806   0.30221   0.58045   0.00000  Uiso   1.00
H1362  H     0.85076   0.31107   0.62767   0.00000  Uiso   1.00
H1363  H     0.78169   0.05819   0.91761   0.00000  Uiso   1.00
H1364  H     0.76987   0.09430   0.86887   0.00000  Uiso   1.00
H1365  H     0.79231   0.02439   0.64815   0.00000  Uiso   1.00
H1366  H     0.78644   0.03628   0.86308   0.00000  Uiso   1.00
H1367  H     0.86741   0.27174   0.89709   0.00000  Uiso   1.00
H1368  H     0.82732   0.30076   0.92437   0.00000  Uiso   1.00
H1369  H     0.83124   0.30821   0.86679   0.00000  Uiso   1.00
H1370  H     0.88400   0.04500   0.64678   0.00000  Uiso   1.00
H1371  H     0.89080   0.05861   0.58998   0.00000  Uiso   1.00
H1372  H     0.89916   0.10222   0.63316   0.00000  Uiso   1.00
H1373  H     0.71421   0.15703   0.64903   0.00000  Uiso   1.00
H1374  H     0.99489   0.13405   0.64377   0.00000  Uiso   1.00
H1375  H     0.70205   0.10089   0.62547   0.00000  Uiso   1.00
H1376  H     0.93945   0.25433   0.81376   0.00000  Uiso   1.00
H1377  H     0.93952   0.28845   0.68240   0.00000  Uiso   1.00
H1378  H     0.98679   0.25874   0.67759   0.00000  Uiso   1.00
H1379  H     0.93780   0.22712   0.67501   0.00000  Uiso   1.00
H1380  H     0.97940   0.05042   0.76216   0.00000  Uiso   1.00
H1381  H     0.99203   0.03578   0.70654   0.00000  Uiso   1.00
H1382  H     0.94216   0.02318   0.72334   0.00000  Uiso   1.00
H1383  H     0.69410   0.29531   0.74129   0.00000  Uiso   1.00
H1384  H     0.67376   0.29462   0.79577   0.00000  Uiso   1.00
H1385  H     0.72589   0.31005   0.79004   0.00000  Uiso   1.00
H1386  H     0.93648   0.30398   0.84647   0.00000  Uiso   1.00
H1387  H     0.93777   0.31064   0.78733   0.00000  Uiso   1.00
H1388  H     0.89568   0.09127   0.84481   0.00000  Uiso   1.00
H1389  H     0.93407   0.04941   0.84985   0.00000  Uiso   1.00
H1390  H     0.88189   0.03055   0.85401   0.00000  Uiso   1.00
N1391  N     0.83333   0.28402   0.75000   0.00000  Uiso   1.00
N1392  N     0.83333   0.04931   0.75000   0.00000  Uiso   1.00
O1393  O     0.77321   0.20625   0.74999   0.00000  Uiso   1.00
O1394  O     0.88282   0.28377   0.81052   0.00000  Uiso   1.00
O1395  O     0.89900   0.04936   0.79055   0.00000  Uiso   1.00
O1396  O     0.76589   0.28526   0.71266   0.00000  Uiso   1.00
O1397  O     0.87650   0.23761   0.52662   0.00000  Uiso   1.00
O1398  O     0.86316   0.08793   0.97402   0.00000  Uiso   1.00
O1399  O     0.80336   0.24087   0.97497   0.00000  Uiso   1.00
O1400  O     0.80658   0.08803   0.52645   0.00000  Uiso   1.00
O1401  O     0.86881   0.24443   0.61940   0.00000  Uiso   1.00
O1402  O     0.83249   0.08177   0.88662   0.00000  Uiso   1.00
O1403  O     0.80669   0.24570   0.88343   0.00000  Uiso   1.00
O1404  O     0.89345   0.12709   0.75001   0.00000  Uiso   1.00
O1405  O     0.83729   0.08211   0.61400   0.00000  Uiso   1.00
O1406  O     0.70244   0.10424   0.69335   0.00000  Uiso   1.00
O1407  O     0.96077   0.25156   0.73762   0.00000  Uiso   1.00
O1408  O     0.95275   0.09152   0.71000   0.00000  Uiso   1.00
O1409  O     0.71229   0.24067   0.78396   0.00000  Uiso   1.00
O1410  O     0.89345   0.20625   0.75001   0.00000  Uiso   1.00
O1411  O     0.77321   0.12709   0.74999   0.00000  Uiso   1.00
O1412  O     0.83333   0.20626   0.68573   0.00000  Uiso   1.00
O1413  O     0.83334   0.12707   0.81427   0.00000  Uiso   1.00
O1414  O     0.83334   0.20626   0.81427   0.00000  Uiso   1.00
O1415  O     0.83333   0.12707   0.68573   0.00000  Uiso   1.00
O1416  O     0.76891   0.04728   0.70781   0.00000  Uiso   1.00
C1417  C     0.08729   0.49990   0.74880   0.00000  Uiso   1.00
C1418  C     0.31281   0.54320   0.74798   0.00000  Uiso   1.00
C1419  C     0.30974   0.46164   0.72829   0.00000  Uiso   1.00
C1420  C     0.02244   0.54124   0.75804   0.00000  Uiso   1.00
C1421  C     0.18990   0.53651   0.54871   0.00000  Uiso   1.00
C1422  C     0.17941   0.45958   0.95247   0.00000  Uiso   1.00
C1423  C     0.15195   0.53746   0.95264   0.00000  Uiso   1.00
C1424  C     0.15791   0.45969   0.54816   0.00000  Uiso   1.00
C1425  C     0.18690   0.53961   0.59486   0.00000  Uiso   1.00
C1426  C     0.16932   0.45784   0.90703   0.00000  Uiso   1.00
C1427  C     0.15301   0.53969   0.90644   0.00000  Uiso   1.00
C1428  C     0.24566   0.50037   0.74721   0.00000  Uiso   1.00
C1429  C     0.16688   0.45812   0.59363   0.00000  Uiso   1.00
C1430  C     0.17414   0.49973   0.61741   0.00000  Uiso   1.00
C1431  C     0.16210   0.49932   0.88320   0.00000  Uiso   1.00
C1432  C     0.17158   0.49837   0.52490   0.00000  Uiso   1.00
C1433  C     0.16814   0.49859   0.97607   0.00000  Uiso   1.00
C1434  C     0.29005   0.50130   0.74217   0.00000  Uiso   1.00
C1435  C     0.04224   0.50084   0.74553   0.00000  Uiso   1.00
C1436  C     0.10129   0.37879   0.66139   0.00000  Uiso   1.00
C1437  C     0.25917   0.62256   0.81380   0.00000  Uiso   1.00
C1438  C     0.23508   0.38819   0.83669   0.00000  Uiso   1.00
C1439  C     0.16948   0.50008   0.66536   0.00000  Uiso   1.00
C1440  C     0.09901   0.60238   0.66893   0.00000  Uiso   1.00
C1441  C     0.25229   0.56188   0.53066   0.00000  Uiso   1.00
C1442  C     0.23861   0.42006   0.96730   0.00000  Uiso   1.00
C1443  C     0.09391   0.56749   0.97577   0.00000  Uiso   1.00
C1444  C     0.09732   0.42142   0.53091   0.00000  Uiso   1.00
C1445  C     0.18795   0.61997   0.60051   0.00000  Uiso   1.00
C1446  C     0.12409   0.40082   0.88428   0.00000  Uiso   1.00
C1447  C     0.16802   0.61605   0.89396   0.00000  Uiso   1.00
C1448  C     0.21297   0.40533   0.62091   0.00000  Uiso   1.00
C1449  C     0.02790   0.45870   0.65146   0.00000  Uiso   1.00
C1450  C     0.16462   0.49989   0.83483   0.00000  Uiso   1.00
C1451  C     0.28962   0.58953   0.69117   0.00000  Uiso   1.00
C1452  C     0.30122   0.38212   0.72657   0.00000  Uiso   1.00
C1453  C     0.03352   0.62023   0.77688   0.00000  Uiso   1.00
C1454  C     0.13587   0.35759   0.72698   0.00000  Uiso   1.00
C1455  C     0.19589   0.64168   0.77606   0.00000  Uiso   1.00
C1456  C     0.19706   0.35862   0.77454   0.00000  Uiso   1.00
C1457  C     0.13571   0.64138   0.72681   0.00000  Uiso   1.00
C1458  C     0.01884   0.46494   0.72386   0.00000  Uiso   1.00
Cu1459 Cu    0.16667   0.54689   0.75000   0.00000  Uiso   1.00
Cu1460 Cu    0.16667   0.45311   0.75000   0.00000  Uiso   1.00
H1461  H     0.10402   0.41459   0.64877   0.00000  Uiso   1.00
H1462  H     0.09233   0.56455   0.66822   0.00000  Uiso   1.00
H1463  H     0.12792   0.60898   0.65348   0.00000  Uiso   1.00
H1464  H     0.07338   0.61846   0.64835   0.00000  Uiso   1.00
H1465  H     0.25868   0.52780   0.51585   0.00000  Uiso   1.00
H1466  H     0.26532   0.56329   0.56571   0.00000  Uiso   1.00
H1467  H     0.26826   0.58905   0.51239   0.00000  Uiso   1.00
H1468  H     0.25502   0.45242   0.97923   0.00000  Uiso   1.00
H1469  H     0.24321   0.41395   0.93204   0.00000  Uiso   1.00
H1470  H     0.25262   0.39076   0.98659   0.00000  Uiso   1.00
H1471  H     0.08671   0.53528   0.99396   0.00000  Uiso   1.00
H1472  H     0.07095   0.36472   0.64793   0.00000  Uiso   1.00
H1473  H     0.07803   0.56672   0.94184   0.00000  Uiso   1.00
H1474  H     0.08163   0.59707   0.99346   0.00000  Uiso   1.00
H1475  H     0.08296   0.45346   0.51667   0.00000  Uiso   1.00
H1476  H     0.09080   0.41729   0.56596   0.00000  Uiso   1.00
H1477  H     0.08279   0.39146   0.51231   0.00000  Uiso   1.00
H1478  H     0.15757   0.61675   0.58073   0.00000  Uiso   1.00
H1479  H     0.21140   0.63554   0.58045   0.00000  Uiso   1.00
H1480  H     0.18409   0.64441   0.62767   0.00000  Uiso   1.00
H1481  H     0.11503   0.39152   0.91761   0.00000  Uiso   1.00
H1482  H     0.10320   0.42763   0.86887   0.00000  Uiso   1.00
H1483  H     0.12564   0.35773   0.64815   0.00000  Uiso   1.00
H1484  H     0.11977   0.36961   0.86308   0.00000  Uiso   1.00
H1485  H     0.20074   0.60507   0.89709   0.00000  Uiso   1.00
H1486  H     0.16065   0.63410   0.92437   0.00000  Uiso   1.00
H1487  H     0.16458   0.64154   0.86679   0.00000  Uiso   1.00
H1488  H     0.21733   0.37834   0.64678   0.00000  Uiso   1.00
H1489  H     0.22414   0.39194   0.58998   0.00000  Uiso   1.00
H1490  H     0.23250   0.43555   0.63316   0.00000  Uiso   1.00
H1491  H     0.04755   0.49036   0.64903   0.00000  Uiso   1.00
H1492  H     0.32823   0.46738   0.64377   0.00000  Uiso   1.00
H1493  H     0.03538   0.43422   0.62547   0.00000  Uiso   1.00
H1494  H     0.27278   0.58766   0.81376   0.00000  Uiso   1.00
H1495  H     0.27286   0.62179   0.68240   0.00000  Uiso   1.00
H1496  H     0.32013   0.59207   0.67759   0.00000  Uiso   1.00
H1497  H     0.27114   0.56046   0.67501   0.00000  Uiso   1.00
H1498  H     0.31274   0.38375   0.76216   0.00000  Uiso   1.00
H1499  H     0.32536   0.36912   0.70654   0.00000  Uiso   1.00
H1500  H     0.27550   0.35651   0.72334   0.00000  Uiso   1.00
H1501  H     0.02743   0.62864   0.74129   0.00000  Uiso   1.00
H1502  H     0.00709   0.62796   0.79577   0.00000  Uiso   1.00
H1503  H     0.05922   0.64338   0.79004   0.00000  Uiso   1.00
H1504  H     0.26981   0.63731   0.84647   0.00000  Uiso   1.00
H1505  H     0.27110   0.64397   0.78733   0.00000  Uiso   1.00
H1506  H     0.22902   0.42460   0.84481   0.00000  Uiso   1.00
H1507  H     0.26741   0.38274   0.84985   0.00000  Uiso   1.00
H1508  H     0.21523   0.36388   0.85401   0.00000  Uiso   1.00
N1509  N     0.16667   0.61736   0.75000   0.00000  Uiso   1.00
N1510  N     0.16667   0.38264   0.75000   0.00000  Uiso   1.00
O1511  O     0.10655   0.53958   0.74999   0.00000  Uiso   1.00
O1512  O     0.21616   0.61710   0.81052   0.00000  Uiso   1.00
O1513  O     0.23233   0.38269   0.79055   0.00000  Uiso   1.00
O1514  O     0.09922   0.61859   0.71266   0.00000  Uiso   1.00
O1515  O     0.20983   0.57094   0.52662   0.00000  Uiso   1.00
O1516  O     0.19649   0.42127   0.97402   0.00000  Uiso   1.00
O1517  O     0.13669   0.57420   0.97497   0.00000  Uiso   1.00
O1518  O     0.13991   0.42136   0.52645   0.00000  Uiso   1.00
O1519  O     0.20214   0.57777   0.61940   0.00000  Uiso   1.00
O1520  O     0.16583   0.41510   0.88662   0.00000  Uiso   1.00
O1521  O     0.14002   0.57903   0.88343   0.00000  Uiso   1.00
O1522  O     0.22679   0.46042   0.75001   0.00000  Uiso   1.00
O1523  O     0.17062   0.41544   0.61400   0.00000  Uiso   1.00
O1524  O     0.03577   0.43758   0.69335   0.00000  Uiso   1.00
O1525  O     0.29411   0.58490   0.73762   0.00000  Uiso   1.00
O1526  O     0.28608   0.42486   0.71000   0.00000  Uiso   1.00
O1527  O     0.04562   0.57401   0.78396   0.00000  Uiso   1.00
O1528  O     0.22679   0.53958   0.75001   0.00000  Uiso   1.00
O1529  O     0.10655   0.46042   0.74999   0.00000  Uiso   1.00
O1530  O     0.16666   0.53959   0.68573   0.00000  Uiso   1.00
O1531  O     0.16667   0.46041   0.81427   0.00000  Uiso   1.00
O1532  O     0.16667   0.53959   0.81427   0.00000  Uiso   1.00
O1533  O     0.16666   0.46041   0.68573   0.00000  Uiso   1.00
O1534  O     0.10224   0.38061   0.70781   0.00000  Uiso   1.00
C1535  C     0.42063   0.49990   0.74880   0.00000  Uiso   1.00
C1536  C     0.64614   0.54320   0.74798   0.00000  Uiso   1.00
C1537  C     0.64307   0.46164   0.72829   0.00000  Uiso   1.00
C1538  C     0.35577   0.54124   0.75804   0.00000  Uiso   1.00
C1539  C     0.52324   0.53651   0.54871   0.00000  Uiso   1.00
C1540  C     0.51274   0.45958   0.95247   0.00000  Uiso   1.00
C1541  C     0.48528   0.53746   0.95264   0.00000  Uiso   1.00
C1542  C     0.49125   0.45969   0.54816   0.00000  Uiso   1.00
C1543  C     0.52024   0.53961   0.59486   0.00000  Uiso   1.00
C1544  C     0.50266   0.45784   0.90703   0.00000  Uiso   1.00
C1545  C     0.48635   0.53969   0.90644   0.00000  Uiso   1.00
C1546  C     0.57900   0.50037   0.74721   0.00000  Uiso   1.00
C1547  C     0.50021   0.45812   0.59363   0.00000  Uiso   1.00
C1548  C     0.50748   0.49973   0.61741   0.00000  Uiso   1.00
C1549  C     0.49543   0.49932   0.88320   0.00000  Uiso   1.00
C1550  C     0.50491   0.49837   0.52490   0.00000  Uiso   1.00
C1551  C     0.50147   0.49859   0.97607   0.00000  Uiso   1.00
C1552  C     0.62338   0.50130   0.74217   0.00000  Uiso   1.00
C1553  C     0.37557   0.50084   0.74553   0.00000  Uiso   1.00
C1554  C     0.43462   0.37879   0.66139   0.00000  Uiso   1.00
C1555  C     0.59251   0.62256   0.81380   0.00000  Uiso   1.00
C1556  C     0.56842   0.38819   0.83669   0.00000  Uiso   1.00
C1557  C     0.50282   0.50008   0.66536   0.00000  Uiso   1.00
C1558  C     0.43235   0.60238   0.66893   0.00000  Uiso   1.00
C1559  C     0.58562   0.56188   0.53066   0.00000  Uiso   1.00
C1560  C     0.57194   0.42006   0.96730   0.00000  Uiso   1.00
C1561  C     0.42725   0.56749   0.97577   0.00000  Uiso   1.00
C1562  C     0.43066   0.42142   0.53091   0.00000  Uiso   1.00
C1563  C     0.52128   0.61997   0.60051   0.00000  Uiso   1.00
C1564  C     0.45742   0.40082   0.88428   0.00000  Uiso   1.00
C1565  C     0.50135   0.61605   0.89396   0.00000  Uiso   1.00
C1566  C     0.54631   0.40533   0.62091   0.00000  Uiso   1.00
C1567  C     0.36124   0.45870   0.65146   0.00000  Uiso   1.00
C1568  C     0.49795   0.49989   0.83483   0.00000  Uiso   1.00
C1569  C     0.62295   0.58953   0.69117   0.00000  Uiso   1.00
C1570  C     0.63455   0.38212   0.72657   0.00000  Uiso   1.00
C1571  C     0.36685   0.62023   0.77688   0.00000  Uiso   1.00
C1572  C     0.46920   0.35759   0.72698   0.00000  Uiso   1.00
C1573  C     0.52922   0.64168   0.77606   0.00000  Uiso   1.00
C1574  C     0.53039   0.35862   0.77454   0.00000  Uiso   1.00
C1575  C     0.46904   0.64138   0.72681   0.00000  Uiso   1.00
C1576  C     0.35217   0.46494   0.72386   0.00000  Uiso   1.00
Cu1577 Cu    0.50000   0.54689   0.75000   0.00000  Uiso   1.00
Cu1578 Cu    0.50000   0.45311   0.75000   0.00000  Uiso   1.00
H1579  H     0.43735   0.41459   0.64877   0.00000  Uiso   1.00
H1580  H     0.42567   0.56455   0.66822   0.00000  Uiso   1.00
H1581  H     0.46125   0.60898   0.65348   0.00000  Uiso   1.00
H1582  H     0.40671   0.61846   0.64835   0.00000  Uiso   1.00
H1583  H     0.59202   0.52780   0.51585   0.00000  Uiso   1.00
H1584  H     0.59865   0.56329   0.56571   0.00000  Uiso   1.00
H1585  H     0.60159   0.58905   0.51239   0.00000  Uiso   1.00
H1586  H     0.58835   0.45242   0.97923   0.00000  Uiso   1.00
H1587  H     0.57654   0.41395   0.93204   0.00000  Uiso   1.00
H1588  H     0.58596   0.39076   0.98659   0.00000  Uiso   1.00
H1589  H     0.42005   0.53528   0.99396   0.00000  Uiso   1.00
H1590  H     0.40428   0.36472   0.64793   0.00000  Uiso   1.00
H1591  H     0.41136   0.56672   0.94184   0.00000  Uiso   1.00
H1592  H     0.41496   0.59707   0.99346   0.00000  Uiso   1.00
H1593  H     0.41630   0.45346   0.51667   0.00000  Uiso   1.00
H1594  H     0.42413   0.41729   0.56596   0.00000  Uiso   1.00
H1595  H     0.41612   0.39146   0.51231   0.00000  Uiso   1.00
H1596  H     0.49091   0.61675   0.58073   0.00000  Uiso   1.00
H1597  H     0.54473   0.63554   0.58045   0.00000  Uiso   1.00
H1598  H     0.51743   0.64441   0.62767   0.00000  Uiso   1.00
H1599  H     0.44836   0.39152   0.91761   0.00000  Uiso   1.00
H1600  H     0.43653   0.42763   0.86887   0.00000  Uiso   1.00
H1601  H     0.45898   0.35773   0.64815   0.00000  Uiso   1.00
H1602  H     0.45310   0.36961   0.86308   0.00000  Uiso   1.00
H1603  H     0.53408   0.60507   0.89709   0.00000  Uiso   1.00
H1604  H     0.49398   0.63410   0.92437   0.00000  Uiso   1.00
H1605  H     0.49791   0.64154   0.86679   0.00000  Uiso   1.00
H1606  H     0.55066   0.37834   0.64678   0.00000  Uiso   1.00
H1607  H     0.55747   0.39194   0.58998   0.00000  Uiso   1.00
H1608  H     0.56583   0.43555   0.63316   0.00000  Uiso   1.00
H1609  H     0.38088   0.49036   0.64903   0.00000  Uiso   1.00
H1610  H     0.66156   0.46738   0.64377   0.00000  Uiso   1.00
H1611  H     0.36871   0.43422   0.62547   0.00000  Uiso   1.00
H1612  H     0.60612   0.58766   0.81376   0.00000  Uiso   1.00
H1613  H     0.60619   0.62179   0.68240   0.00000  Uiso   1.00
H1614  H     0.65346   0.59207   0.67759   0.00000  Uiso   1.00
H1615  H     0.60447   0.56046   0.67501   0.00000  Uiso   1.00
H1616  H     0.64607   0.38375   0.76216   0.00000  Uiso   1.00
H1617  H     0.65870   0.36912   0.70654   0.00000  Uiso   1.00
H1618  H     0.60883   0.35651   0.72334   0.00000  Uiso   1.00
H1619  H     0.36076   0.62864   0.74129   0.00000  Uiso   1.00
H1620  H     0.34042   0.62796   0.79577   0.00000  Uiso   1.00
H1621  H     0.39256   0.64338   0.79004   0.00000  Uiso   1.00
H1622  H     0.60315   0.63731   0.84647   0.00000  Uiso   1.00
H1623  H     0.60443   0.64397   0.78733   0.00000  Uiso   1.00
H1624  H     0.56235   0.42460   0.84481   0.00000  Uiso   1.00
H1625  H     0.60074   0.38274   0.84985   0.00000  Uiso   1.00
H1626  H     0.54856   0.36388   0.85401   0.00000  Uiso   1.00
N1627  N     0.50000   0.61736   0.75000   0.00000  Uiso   1.00
N1628  N     0.50000   0.38264   0.75000   0.00000  Uiso   1.00
O1629  O     0.43988   0.53958   0.74999   0.00000  Uiso   1.00
O1630  O     0.54949   0.61710   0.81052   0.00000  Uiso   1.00
O1631  O     0.56567   0.38269   0.79055   0.00000  Uiso   1.00
O1632  O     0.43255   0.61859   0.71266   0.00000  Uiso   1.00
O1633  O     0.54316   0.57094   0.52662   0.00000  Uiso   1.00
O1634  O     0.52982   0.42127   0.97402   0.00000  Uiso   1.00
O1635  O     0.47002   0.57420   0.97497   0.00000  Uiso   1.00
O1636  O     0.47325   0.42136   0.52645   0.00000  Uiso   1.00
O1637  O     0.53547   0.57777   0.61940   0.00000  Uiso   1.00
O1638  O     0.49916   0.41510   0.88662   0.00000  Uiso   1.00
O1639  O     0.47336   0.57903   0.88343   0.00000  Uiso   1.00
O1640  O     0.56012   0.46042   0.75001   0.00000  Uiso   1.00
O1641  O     0.50396   0.41544   0.61400   0.00000  Uiso   1.00
O1642  O     0.36910   0.43758   0.69335   0.00000  Uiso   1.00
O1643  O     0.62744   0.58490   0.73762   0.00000  Uiso   1.00
O1644  O     0.61942   0.42486   0.71000   0.00000  Uiso   1.00
O1645  O     0.37895   0.57401   0.78396   0.00000  Uiso   1.00
O1646  O     0.56012   0.53958   0.75001   0.00000  Uiso   1.00
O1647  O     0.43988   0.46042   0.74999   0.00000  Uiso   1.00
O1648  O     0.50000   0.53959   0.68573   0.00000  Uiso   1.00
O1649  O     0.50000   0.46041   0.81427   0.00000  Uiso   1.00
O1650  O     0.50000   0.53959   0.81427   0.00000  Uiso   1.00
O1651  O     0.50000   0.46041   0.68573   0.00000  Uiso   1.00
O1652  O     0.43557   0.38061   0.70781   0.00000  Uiso   1.00
C1653  C     0.75396   0.49990   0.74880   0.00000  Uiso   1.00
C1654  C     0.97948   0.54320   0.74798   0.00000  Uiso   1.00
C1655  C     0.97640   0.46164   0.72829   0.00000  Uiso   1.00
C1656  C     0.68910   0.54124   0.75804   0.00000  Uiso   1.00
C1657  C     0.85657   0.53651   0.54871   0.00000  Uiso   1.00
C1658  C     0.84607   0.45958   0.95247   0.00000  Uiso   1.00
C1659  C     0.81861   0.53746   0.95264   0.00000  Uiso   1.00
C1660  C     0.82458   0.45969   0.54816   0.00000  Uiso   1.00
C1661  C     0.85357   0.53961   0.59486   0.00000  Uiso   1.00
C1662  C     0.83599   0.45784   0.90703   0.00000  Uiso   1.00
C1663  C     0.81968   0.53969   0.90644   0.00000  Uiso   1.00
C1664  C     0.91233   0.50037   0.74721   0.00000  Uiso   1.00
C1665  C     0.83355   0.45812   0.59363   0.00000  Uiso   1.00
C1666  C     0.84081   0.49973   0.61741   0.00000  Uiso   1.00
C1667  C     0.82876   0.49932   0.88320   0.00000  Uiso   1.00
C1668  C     0.83825   0.49837   0.52490   0.00000  Uiso   1.00
C1669  C     0.83481   0.49859   0.97607   0.00000  Uiso   1.00
C1670  C     0.95671   0.50130   0.74217   0.00000  Uiso   1.00
C1671  C     0.70891   0.50084   0.74553   0.00000  Uiso   1.00
C1672  C     0.76796   0.37879   0.66139   0.00000  Uiso   1.00
C1673  C     0.92584   0.62256   0.81380   0.00000  Uiso   1.00
C1674  C     0.90175   0.38819   0.83669   0.00000  Uiso   1.00
C1675  C     0.83615   0.50008   0.66536   0.00000  Uiso   1.00
C1676  C     0.76568   0.60238   0.66893   0.00000  Uiso   1.00
C1677  C     0.91895   0.56188   0.53066   0.00000  Uiso   1.00
C1678  C     0.90528   0.42006   0.96730   0.00000  Uiso   1.00
C1679  C     0.76058   0.56749   0.97577   0.00000  Uiso   1.00
C1680  C     0.76399   0.42142   0.53091   0.00000  Uiso   1.00
C1681  C     0.85461   0.61997   0.60051   0.00000  Uiso   1.00
C1682  C     0.79075   0.40082   0.88428   0.00000  Uiso   1.00
C1683  C     0.83468   0.61605   0.89396   0.00000  Uiso   1.00
C1684  C     0.87964   0.40533   0.62091   0.00000  Uiso   1.00
C1685  C     0.69457   0.45870   0.65146   0.00000  Uiso   1.00
C1686  C     0.83129   0.49989   0.83483   0.00000  Uiso   1.00
C1687  C     0.95628   0.58953   0.69117   0.00000  Uiso   1.00
C1688  C     0.96788   0.38212   0.72657   0.00000  Uiso   1.00
C1689  C     0.70019   0.62023   0.77688   0.00000  Uiso   1.00
C1690  C     0.80254   0.35759   0.72698   0.00000  Uiso   1.00
C1691  C     0.86256   0.64168   0.77606   0.00000  Uiso   1.00
C1692  C     0.86373   0.35862   0.77454   0.00000  Uiso   1.00
C1693  C     0.80238   0.64138   0.72681   0.00000  Uiso   1.00
C1694  C     0.68551   0.46494   0.72386   0.00000  Uiso   1.00
Cu1695 Cu    0.83333   0.54689   0.75000   0.00000  Uiso   1.00
Cu1696 Cu    0.83333   0.45311   0.75000   0.00000  Uiso   1.00
H1697  H     0.77069   0.41459   0.64877   0.00000  Uiso   1.00
H1698  H     0.75900   0.56455   0.66822   0.00000  Uiso   1.00
H1699  H     0.79459   0.60898   0.65348   0.00000  Uiso   1.00
H1700  H     0.74005   0.61846   0.64835   0.00000  Uiso   1.00
H1701  H     0.92535   0.52780   0.51585   0.00000  Uiso   1.00
H1702  H     0.93199   0.56329   0.56571   0.00000  Uiso   1.00
H1703  H     0.93492   0.58905   0.51239   0.00000  Uiso   1.00
H1704  H     0.92169   0.45242   0.97923   0.00000  Uiso   1.00
H1705  H     0.90987   0.41395   0.93204   0.00000  Uiso   1.00
H1706  H     0.91929   0.39076   0.98659   0.00000  Uiso   1.00
H1707  H     0.75338   0.53528   0.99396   0.00000  Uiso   1.00
H1708  H     0.73762   0.36472   0.64793   0.00000  Uiso   1.00
H1709  H     0.74469   0.56672   0.94184   0.00000  Uiso   1.00
H1710  H     0.74829   0.59707   0.99346   0.00000  Uiso   1.00
H1711  H     0.74963   0.45346   0.51667   0.00000  Uiso   1.00
H1712  H     0.75746   0.41729   0.56596   0.00000  Uiso   1.00
H1713  H     0.74946   0.39146   0.51231   0.00000  Uiso   1.00
H1714  H     0.82424   0.61675   0.58073   0.00000  Uiso   1.00
H1715  H     0.87806   0.63554   0.58045   0.00000  Uiso   1.00
H1716  H     0.85076   0.64441   0.62767   0.00000  Uiso   1.00
H1717  H     0.78169   0.39152   0.91761   0.00000  Uiso   1.00
H1718  H     0.76987   0.42763   0.86887   0.00000  Uiso   1.00
H1719  H     0.79231   0.35773   0.64815   0.00000  Uiso   1.00
H1720  H     0.78644   0.36961   0.86308   0.00000  Uiso   1.00
H1721  H     0.86741   0.60507   0.89709   0.00000  Uiso   1.00
H1722  H     0.82732   0.63410   0.92437   0.00000  Uiso   1.00
H1723  H     0.83124   0.64154   0.86679   0.00000  Uiso   1.00
H1724  H     0.88400   0.37834   0.64678   0.00000  Uiso   1.00
H1725  H     0.89080   0.39194   0.58998   0.00000  Uiso   1.00
H1726  H     0.89916   0.43555   0.63316   0.00000  Uiso   1.00
H1727  H     0.71421   0.49036   0.64903   0.00000  Uiso   1.00
H1728  H     0.99489   0.46738   0.64377   0.00000  Uiso   1.00
H1729  H     0.70205   0.43422   0.62547   0.00000  Uiso   1.00
H1730  H     0.93945   0.58766   0.81376   0.00000  Uiso   1.00
H1731  H     0.93952   0.62179   0.68240   0.00000  Uiso   1.00
H1732  H     0.98679   0.59207   0.67759   0.00000  Uiso   1.00
H1733  H     0.93780   0.56046   0.67501   0.00000  Uiso   1.00
H1734  H     0.97940   0.38375   0.76216   0.00000  Uiso   1.00
H1735  H     0.99203   0.36912   0.70654   0.00000  Uiso   1.00
H1736  H     0.94216   0.35651   0.72334   0.00000  Uiso   1.00
H1737  H     0.69410   0.62864   0.74129   0.00000  Uiso   1.00
H1738  H     0.67376   0.62796   0.79577   0.00000  Uiso   1.00
H1739  H     0.72589   0.64338   0.79004   0.00000  Uiso   1.00
H1740  H     0.93648   0.63731   0.84647   0.00000  Uiso   1.00
H1741  H     0.93777   0.64397   0.78733   0.00000  Uiso   1.00
H1742  H     0.89568   0.42460   0.84481   0.00000  Uiso   1.00
H1743  H     0.93407   0.38274   0.84985   0.00000  Uiso   1.00
H1744  H     0.88189   0.36388   0.85401   0.00000  Uiso   1.00
N1745  N     0.83333   0.61736   0.75000   0.00000  Uiso   1.00
N1746  N     0.83333   0.38264   0.75000   0.00000  Uiso   1.00
O1747  O     0.77321   0.53958   0.74999   0.00000  Uiso   1.00
O1748  O     0.88282   0.61710   0.81052   0.00000  Uiso   1.00
O1749  O     0.89900   0.38269   0.79055   0.00000  Uiso   1.00
O1750  O     0.76589   0.61859   0.71266   0.00000  Uiso   1.00
O1751  O     0.87650   0.57094   0.52662   0.00000  Uiso   1.00
O1752  O     0.86316   0.42127   0.97402   0.00000  Uiso   1.00
O1753  O     0.80336   0.57420   0.97497   0.00000  Uiso   1.00
O1754  O     0.80658   0.42136   0.52645   0.00000  Uiso   1.00
O1755  O     0.86881   0.57777   0.61940   0.00000  Uiso   1.00
O1756  O     0.83249   0.41510   0.88662   0.00000  Uiso   1.00
O1757  O     0.80669   0.57903   0.88343   0.00000  Uiso   1.00
O1758  O     0.89345   0.46042   0.75001   0.00000  Uiso   1.00
O1759  O     0.83729   0.41544   0.61400   0.00000  Uiso   1.00
O1760  O     0.70244   0.43758   0.69335   0.00000  Uiso   1.00
O1761  O     0.96077   0.58490   0.73762   0.00000  Uiso   1.00
O1762  O     0.95275   0.42486   0.71000   0.00000  Uiso   1.00
O1763  O     0.71229   0.57401   0.78396   0.00000  Uiso   1.00
O1764  O     0.89345   0.53958   0.75001   0.00000  Uiso   1.00
O1765  O     0.77321   0.46042   0.74999   0.00000  Uiso   1.00
O1766  O     0.83333   0.53959   0.68573   0.00000  Uiso   1.00
O1767  O     0.83334   0.46041   0.81427   0.00000  Uiso   1.00
O1768  O     0.83334   0.53959   0.81427   0.00000  Uiso   1.00
O1769  O     0.83333   0.46041   0.68573   0.00000  Uiso   1.00
O1770  O     0.76891   0.38061   0.70781   0.00000  Uiso   1.00
C1771  C     0.08729   0.83323   0.74880   0.00000  Uiso   1.00
C1772  C     0.31281   0.87653   0.74798   0.00000  Uiso   1.00
C1773  C     0.30974   0.79498   0.72829   0.00000  Uiso   1.00
C1774  C     0.02244   0.87457   0.75804   0.00000  Uiso   1.00
C1775  C     0.18990   0.86985   0.54871   0.00000  Uiso   1.00
C1776  C     0.17941   0.79291   0.95247   0.00000  Uiso   1.00
C1777  C     0.15195   0.87080   0.95264   0.00000  Uiso   1.00
C1778  C     0.15791   0.79302   0.54816   0.00000  Uiso   1.00
C1779  C     0.18690   0.87294   0.59486   0.00000  Uiso   1.00
C1780  C     0.16932   0.79117   0.90703   0.00000  Uiso   1.00
C1781  C     0.15301   0.87302   0.90644   0.00000  Uiso   1.00
C1782  C     0.24566   0.83371   0.74721   0.00000  Uiso   1.00
C1783  C     0.16688   0.79145   0.59363   0.00000  Uiso   1.00
C1784  C     0.17414   0.83306   0.61741   0.00000  Uiso   1.00
C1785  C     0.16210   0.83265   0.88320   0.00000  Uiso   1.00
C1786  C     0.17158   0.83170   0.52490   0.00000  Uiso   1.00
C1787  C     0.16814   0.83193   0.97607   0.00000  Uiso   1.00
C1788  C     0.29005   0.83463   0.74217   0.00000  Uiso   1.00
C1789  C     0.04224   0.83418   0.74553   0.00000  Uiso   1.00
C1790  C     0.10129   0.71213   0.66139   0.00000  Uiso   1.00
C1791  C     0.25917   0.95589   0.81380   0.00000  Uiso   1.00
C1792  C     0.23508   0.72153   0.83669   0.00000  Uiso   1.00
C1793  C     0.16948   0.83341   0.66536   0.00000  Uiso   1.00
C1794  C     0.09901   0.93571   0.66893   0.00000  Uiso   1.00
C1795  C     0.25229   0.89521   0.53066   0.00000  Uiso   1.00
C1796  C     0.23861   0.75339   0.96730   0.00000  Uiso   1.00
C1797  C     0.09391   0.90082   0.97577   0.00000  Uiso   1.00
C1798  C     0.09732   0.75475   0.53091   0.00000  Uiso   1.00
C1799  C     0.18795   0.95330   0.60051   0.00000  Uiso   1.00
C1800  C     0.12409   0.73415   0.88428   0.00000  Uiso   1.00
C1801  C     0.16802   0.94939   0.89396   0.00000  Uiso   1.00
C1802  C     0.21297   0.73866   0.62091   0.00000  Uiso   1.00
C1803  C     0.02790   0.79204   0.65146   0.00000  Uiso   1.00
C1804  C     0.16462   0.83322   0.83483   0.00000  Uiso   1.00
C1805  C     0.28962   0.92286   0.69117   0.00000  Uiso   1.00
C1806  C     0.30122   0.71545   0.72657   0.00000  Uiso   1.00
C1807  C     0.03352   0.95356   0.77688   0.00000  Uiso   1.00
C1808  C     0.13587   0.69092   0.72698   0.00000  Uiso   1.00
C1809  C     0.19589   0.97502   0.77606   0.00000  Uiso   1.00
C1810  C     0.19706   0.69196   0.77454   0.00000  Uiso   1.00
C1811  C     0.13571   0.97471   0.72681   0.00000  Uiso   1.00
C1812  C     0.01884   0.79828   0.72386   0.00000  Uiso   1.00
Cu1813 Cu    0.16667   0.88022   0.75000   0.00000  Uiso   1.00
Cu1814 Cu    0.16667   0.78645   0.75000   0.00000  Uiso   1.00
H1815  H     0.10402   0.74793   0.64877   0.00000  Uiso   1.00
H1816  H     0.09233   0.89789   0.66822   0.00000  Uiso   1.00
H1817  H     0.12792   0.94231   0.65348   0.00000  Uiso   1.00
H1818  H     0.07338   0.95179   0.64835   0.00000  Uiso   1.00
H1819  H     0.25868   0.86114   0.51585   0.00000  Uiso   1.00
H1820  H     0.26532   0.89662   0.56571   0.00000  Uiso   1.00
H1821  H     0.26826   0.92239   0.51239   0.00000  Uiso   1.00
H1822  H     0.25502   0.78575   0.97923   0.00000  Uiso   1.00
H1823  H     0.24321   0.74728   0.93204   0.00000  Uiso   1.00
H1824  H     0.25262   0.72410   0.98659   0.00000  Uiso   1.00
H1825  H     0.08671   0.86862   0.99396   0.00000  Uiso   1.00
H1826  H     0.07095   0.69805   0.64793   0.00000  Uiso   1.00
H1827  H     0.07803   0.90006   0.94184   0.00000  Uiso   1.00
H1828  H     0.08163   0.93041   0.99346   0.00000  Uiso   1.00
H1829  H     0.08296   0.78679   0.51667   0.00000  Uiso   1.00
H1830  H     0.09080   0.75062   0.56596   0.00000  Uiso   1.00
H1831  H     0.08279   0.72480   0.51231   0.00000  Uiso   1.00
H1832  H     0.15757   0.95008   0.58073   0.00000  Uiso   1.00
H1833  H     0.21140   0.96888   0.58045   0.00000  Uiso   1.00
H1834  H     0.18409   0.97774   0.62767   0.00000  Uiso   1.00
H1835  H     0.11503   0.72486   0.91761   0.00000  Uiso   1.00
H1836  H     0.10320   0.76096   0.86887   0.00000  Uiso   1.00
H1837  H     0.12564   0.69106   0.64815   0.00000  Uiso   1.00
H1838  H     0.11977   0.70294   0.86308   0.00000  Uiso   1.00
H1839  H     0.20074   0.93841   0.89709   0.00000  Uiso   1.00
H1840  H     0.16065   0.96743   0.92437   0.00000  Uiso   1.00
H1841  H     0.16458   0.97488   0.86679   0.00000  Uiso   1.00
H1842  H     0.21733   0.71167   0.64678   0.00000  Uiso   1.00
H1843  H     0.22414   0.72528   0.58998   0.00000  Uiso   1.00
H1844  H     0.23250   0.76889   0.63316   0.00000  Uiso   1.00
H1845  H     0.04755   0.82370   0.64903   0.00000  Uiso   1.00
H1846  H     0.32823   0.80071   0.64377   0.00000  Uiso   1.00
H1847  H     0.03538   0.76756   0.62547   0.00000  Uiso   1.00
H1848  H     0.27278   0.92100   0.81376   0.00000  Uiso   1.00
H1849  H     0.27286   0.95512   0.68240   0.00000  Uiso   1.00
H1850  H     0.32013   0.92540   0.67759   0.00000  Uiso   1.00
H1851  H     0.27114   0.89379   0.67501   0.00000  Uiso   1.00
H1852  H     0.31274   0.71709   0.76216   0.00000  Uiso   1.00
H1853  H     0.32536   0.70245   0.70654   0.00000  Uiso   1.00
H1854  H     0.27550   0.68984   0.72334   0.00000  Uiso   1.00
H1855  H     0.02743   0.96198   0.74129   0.00000  Uiso   1.00
H1856  H     0.00709   0.96129   0.79577   0.00000  Uiso   1.00
H1857  H     0.05922   0.97671   0.79004   0.00000  Uiso   1.00
H1858  H     0.26981   0.97065   0.84647   0.00000  Uiso   1.00
H1859  H     0.27110   0.97731   0.78733   0.00000  Uiso   1.00
H1860  H     0.22902   0.75793   0.84481   0.00000  Uiso   1.00
H1861  H     0.26741   0.71608   0.84985   0.00000  Uiso   1.00
H1862  H     0.21523   0.69721   0.85401   0.00000  Uiso   1.00
N1863  N     0.16667   0.95069   0.75000   0.00000  Uiso   1.00
N1864  N     0.16667   0.71598   0.75000   0.00000  Uiso   1.00
O1865  O     0.10655   0.87291   0.74999   0.00000  Uiso   1.00
O1866  O     0.21616   0.95043   0.81052   0.00000  Uiso   1.00
O1867  O     0.23233   0.71602   0.79055   0.00000  Uiso   1.00
O1868  O     0.09922   0.95193   0.71266   0.00000  Uiso   1.00
O1869  O     0.20983   0.90428   0.52662   0.00000  Uiso   1.00
O1870  O     0.19649   0.75460   0.97402   0.00000  Uiso   1.00
O1871  O     0.13669   0.90753   0.97497   0.00000  Uiso   1.00
O1872  O     0.13991   0.75470   0.52645   0.00000  Uiso   1.00
O1873  O     0.20214   0.91110   0.61940   0.00000  Uiso   1.00
O1874  O     0.16583   0.74844   0.88662   0.00000  Uiso   1.00
O1875  O     0.14002   0.91236   0.88343   0.00000  Uiso   1.00
O1876  O     0.22679   0.79375   0.75001   0.00000  Uiso   1.00
O1877  O     0.17062   0.74878   0.61400   0.00000  Uiso   1.00
O1878  O     0.03577   0.77091   0.69335   0.00000  Uiso   1.00
O1879  O     0.29411   0.91823   0.73762   0.00000  Uiso   1.00
O1880  O     0.28608   0.75819   0.71000   0.00000  Uiso   1.00
O1881  O     0.04562   0.90734   0.78396   0.00000  Uiso   1.00
O1882  O     0.22679   0.87291   0.75001   0.00000  Uiso   1.00
O1883  O     0.10655   0.79375   0.74999   0.00000  Uiso   1.00
O1884  O     0.16666   0.87293   0.68573   0.00000  Uiso   1.00
O1885  O     0.16667   0.79374   0.81427   0.00000  Uiso   1.00
O1886  O     0.16667   0.87293   0.81427   0.00000  Uiso   1.00
O1887  O     0.16666   0.79374   0.68573   0.00000  Uiso   1.00
O1888  O     0.10224   0.71394   0.70781   0.00000  Uiso   1.00
C1889  C     0.42063   0.83323   0.74880   0.00000  Uiso   1.00
C1890  C     0.64614   0.87653   0.74798   0.00000  Uiso   1.00
C1891  C     0.64307   0.79498   0.72829   0.00000  Uiso   1.00
C1892  C     0.35577   0.87457   0.75804   0.00000  Uiso   1.00
C1893  C     0.52324   0.86985   0.54871   0.00000  Uiso   1.00
C1894  C     0.51274   0.79291   0.95247   0.00000  Uiso   1.00
C1895  C     0.48528   0.87080   0.95264   0.00000  Uiso   1.00
C1896  C     0.49125   0.79302   0.54816   0.00000  Uiso   1.00
C1897  C     0.52024   0.87294   0.59486   0.00000  Uiso   1.00
C1898  C     0.50266   0.79117   0.90703   0.00000  Uiso   1.00
C1899  C     0.48635   0.87302   0.90644   0.00000  Uiso   1.00
C1900  C     0.57900   0.83371   0.74721   0.00000  Uiso   1.00
C1901  C     0.50021   0.79145   0.59363   0.00000  Uiso   1.00
C1902  C     0.50748   0.83306   0.61741   0.00000  Uiso   1.00
C1903  C     0.49543   0.83265   0.88320   0.00000  Uiso   1.00
C1904  C     0.50491   0.83170   0.52490   0.00000  Uiso   1.00
C1905  C     0.50147   0.83193   0.97607   0.00000  Uiso   1.00
C1906  C     0.62338   0.83463   0.74217   0.00000  Uiso   1.00
C1907  C     0.37557   0.83418   0.74553   0.00000  Uiso   1.00
C1908  C     0.43462   0.71213   0.66139   0.00000  Uiso   1.00
C1909  C     0.59251   0.95589   0.81380   0.00000  Uiso   1.00
C1910  C     0.56842   0.72153   0.83669   0.00000  Uiso   1.00
C1911  C     0.50282   0.83341   0.66536   0.00000  Uiso   1.00
C1912  C     0.43235   0.93571   0.66893   0.00000  Uiso   1.00
C1913  C     0.58562   0.89521   0.53066   0.00000  Uiso   1.00
C1914  C     0.57194   0.75339   0.96730   0.00000  Uiso   1.00
C1915  C     0.42725   0.90082   0.97577   0.00000  Uiso   1.00
C1916  C     0.43066   0.75475   0.53091   0.00000  Uiso   1.00
C1917  C     0.52128   0.95330   0.60051   0.00000  Uiso   1.00
C1918  C     0.45742   0.73415   0.88428   0.00000  Uiso   1.00
C1919  C     0.50135   0.94939   0.89396   0.00000  Uiso   1.00
C1920  C     0.54631   0.73866   0.62091   0.00000  Uiso   1.00
C1921  C     0.36124   0.79204   0.65146   0.00000  Uiso   1.00
C1922  C     0.49795   0.83322   0.83483   0.00000  Uiso   1.00
C1923  C     0.62295   0.92286   0.69117   0.00000  Uiso   1.00
C1924  C     0.63455   0.71545   0.72657   0.00000  Uiso   1.00
C1925  C     0.36685   0.95356   0.77688   0.00000  Uiso   1.00
C1926  C     0.46920   0.69092   0.72698   0.00000  Uiso   1.00
C1927  C     0.52922   0.97502   0.77606   0.00000  Uiso   1.00
C1928  C     0.53039   0.69196   0.77454   0.00000  Uiso   1.00
C1929  C     0.46904   0.97471   0.72681   0.00000  Uiso   1.00
C1930  C     0.35217   0.79828   0.72386   0.00000  Uiso   1.00
Cu1931 Cu    0.50000   0.88022   0.75000   0.00000  Uiso   1.00
Cu1932 Cu    0.50000   0.78645   0.75000   0.00000  Uiso   1.00
H1933  H     0.43735   0.74793   0.64877   0.00000  Uiso   1.00
H1934  H     0.42567   0.89789   0.66822   0.00000  Uiso   1.00
H1935  H     0.46125   0.94231   0.65348   0.00000  Uiso   1.00
H1936  H     0.40671   0.95179   0.64835   0.00000  Uiso   1.00
H1937  H     0.59202   0.86114   0.51585   0.00000  Uiso   1.00
H1938  H     0.59865   0.89662   0.56571   0.00000  Uiso   1.00
H1939  H     0.60159   0.92239   0.51239   0.00000  Uiso   1.00
H1940  H     0.58835   0.78575   0.97923   0.00000  Uiso   1.00
H1941  H     0.57654   0.74728   0.93204   0.00000  Uiso   1.00
H1942  H     0.58596   0.72410   0.98659   0.00000  Uiso   1.00
H1943  H     0.42005   0.86862   0.99396   0.00000  Uiso   1.00
H1944  H     0.40428   0.69805   0.64793   0.00000  Uiso   1.00
H1945  H     0.41136   0.90006   0.94184   0.00000  Uiso   1.00
H1946  H     0.41496   0.93041   0.99346   0.00000  Uiso   1.00
H1947  H     0.41630   0.78679   0.51667   0.00000  Uiso   1.00
H1948  H     0.42413   0.75062   0.56596   0.00000  Uiso   1.00
H1949  H     0.41612   0.72480   0.51231   0.00000  Uiso   1.00
H1950  H     0.49091   0.95008   0.58073   0.00000  Uiso   1.00
H1951  H     0.54473   0.96888   0.58045   0.00000  Uiso   1.00
H1952  H     0.51743   0.97774   0.62767   0.00000  Uiso   1.00
H1953  H     0.44836   0.72486   0.91761   0.00000  Uiso   1.00
H1954  H     0.43653   0.76096   0.86887   0.00000  Uiso   1.00
H1955  H     0.45898   0.69106   0.64815   0.00000  Uiso   1.00
H1956  H     0.45310   0.70294   0.86308   0.00000  Uiso   1.00
H1957  H     0.53408   0.93841   0.89709   0.00000  Uiso   1.00
H1958  H     0.49398   0.96743   0.92437   0.00000  Uiso   1.00
H1959  H     0.49791   0.97488   0.86679   0.00000  Uiso   1.00
H1960  H     0.55066   0.71167   0.64678   0.00000  Uiso   1.00
H1961  H     0.55747   0.72528   0.58998   0.00000  Uiso   1.00
H1962  H     0.56583   0.76889   0.63316   0.00000  Uiso   1.00
H1963  H     0.38088   0.82370   0.64903   0.00000  Uiso   1.00
H1964  H     0.66156   0.80071   0.64377   0.00000  Uiso   1.00
H1965  H     0.36871   0.76756   0.62547   0.00000  Uiso   1.00
H1966  H     0.60612   0.92100   0.81376   0.00000  Uiso   1.00
H1967  H     0.60619   0.95512   0.68240   0.00000  Uiso   1.00
H1968  H     0.65346   0.92540   0.67759   0.00000  Uiso   1.00
H1969  H     0.60447   0.89379   0.67501   0.00000  Uiso   1.00
H1970  H     0.64607   0.71709   0.76216   0.00000  Uiso   1.00
H1971  H     0.65870   0.70245   0.70654   0.00000  Uiso   1.00
H1972  H     0.60883   0.68984   0.72334   0.00000  Uiso   1.00
H1973  H     0.36076   0.96198   0.74129   0.00000  Uiso   1.00
H1974  H     0.34042   0.96129   0.79577   0.00000  Uiso   1.00
H1975  H     0.39256   0.97671   0.79004   0.00000  Uiso   1.00
H1976  H     0.60315   0.97065   0.84647   0.00000  Uiso   1.00
H1977  H     0.60443   0.97731   0.78733   0.00000  Uiso   1.00
H1978  H     0.56235   0.75793   0.84481   0.00000  Uiso   1.00
H1979  H     0.60074   0.71608   0.84985   0.00000  Uiso   1.00
H1980  H     0.54856   0.69721   0.85401   0.00000  Uiso   1.00
N1981  N     0.50000   0.95069   0.75000   0.00000  Uiso   1.00
N1982  N     0.50000   0.71598   0.75000   0.00000  Uiso   1.00
O1983  O     0.43988   0.87291   0.74999   0.00000  Uiso   1.00
O1984  O     0.54949   0.95043   0.81052   0.00000  Uiso   1.00
O1985  O     0.56567   0.71602   0.79055   0.00000  Uiso   1.00
O1986  O     0.43255   0.95193   0.71266   0.00000  Uiso   1.00
O1987  O     0.54316   0.90428   0.52662   0.00000  Uiso   1.00
O1988  O     0.52982   0.75460   0.97402   0.00000  Uiso   1.00
O1989  O     0.47002   0.90753   0.97497   0.00000  Uiso   1.00
O1990  O     0.47325   0.75470   0.52645   0.00000  Uiso   1.00
O1991  O     0.53547   0.91110   0.61940   0.00000  Uiso   1.00
O1992  O     0.49916   0.74844   0.88662   0.00000  Uiso   1.00
O1993  O     0.47336   0.91236   0.88343   0.00000  Uiso   1.00
O1994  O     0.56012   0.79375   0.75001   0.00000  Uiso   1.00
O1995  O     0.50396   0.74878   0.61400   0.00000  Uiso   1.00
O1996  O     0.36910   0.77091   0.69335   0.00000  Uiso   1.00
O1997  O     0.62744   0.91823   0.73762   0.00000  Uiso   1.00
O1998  O     0.61942   0.75819   0.71000   0.00000  Uiso   1.00
O1999  O     0.37895   0.90734   0.78396   0.00000  Uiso   1.00
O2000  O     0.56012   0.87291   0.75001   0.00000  Uiso   1.00
O2001  O     0.43988   0.79375   0.74999   0.00000  Uiso   1.00
O2002  O     0.50000   0.87293   0.68573   0.00000  Uiso   1.00
O2003  O     0.50000   0.79374   0.81427   0.00000  Uiso   1.00
O2004  O     0.50000   0.87293   0.81427   0.00000  Uiso   1.00
O2005  O     0.50000   0.79374   0.68573   0.00000  Uiso   1.00
O2006  O     0.43557   0.71394   0.70781   0.00000  Uiso   1.00
C2007  C     0.75396   0.83323   0.74880   0.00000  Uiso   1.00
C2008  C     0.97948   0.87653   0.74798   0.00000  Uiso   1.00
C2009  C     0.97640   0.79498   0.72829   0.00000  Uiso   1.00
C2010  C     0.68910   0.87457   0.75804   0.00000  Uiso   1.00
C2011  C     0.85657   0.86985   0.54871   0.00000  Uiso   1.00
C2012  C     0.84607   0.79291   0.95247   0.00000  Uiso   1.00
C2013  C     0.81861   0.87080   0.95264   0.00000  Uiso   1.00
C2014  C     0.82458   0.79302   0.54816   0.00000  Uiso   1.00
C2015  C     0.85357   0.87294   0.59486   0.00000  Uiso   1.00
C2016  C     0.83599   0.79117   0.90703   0.00000  Uiso   1.00
C2017  C     0.81968   0.87302   0.90644   0.00000  Uiso   1.00
C2018  C     0.91233   0.83371   0.74721   0.00000  Uiso   1.00
C2019  C     0.83355   0.79145   0.59363   0.00000  Uiso   1.00
C2020  C     0.84081   0.83306   0.61741   0.00000  Uiso   1.00
C2021  C     0.82876   0.83265   0.88320   0.00000  Uiso   1.00
C2022  C     0.83825   0.83170   0.52490   0.00000  Uiso   1.00
C2023  C     0.83481   0.83193   0.97607   0.00000  Uiso   1.00
C2024  C     0.95671   0.83463   0.74217   0.00000  Uiso   1.00
C2025  C     0.70891   0.83418   0.74553   0.00000  Uiso   1.00
C2026  C     0.76796   0.71213   0.66139   0.00000  Uiso   1.00
C2027  C     0.92584   0.95589   0.81380   0.00000  Uiso   1.00
C2028  C     0.90175   0.72153   0.83669   0.00000  Uiso   1.00
C2029  C     0.83615   0.83341   0.66536   0.00000  Uiso   1.00
C2030  C     0.76568   0.93571   0.66893   0.00000  Uiso   1.00
C2031  C     0.91895   0.89521   0.53066   0.00000  Uiso   1.00
C2032  C     0.90528   0.75339   0.96730   0.00000  Uiso   1.00
C2033  C     0.76058   0.90082   0.97577   0.00000  Uiso   1.00
C2034  C     0.76399   0.75475   0.53091   0.00000  Uiso   1.00
C2035  C     0.85461   0.95330   0.60051   0.00000  Uiso   1.00
C2036  C     0.79075   0.73415   0.88428   0.00000  Uiso   1.00
C2037  C     0.83468   0.94939   0.89396   0.00000  Uiso   1.00
C2038  C     0.87964   0.73866   0.62091   0.00000  Uiso   1.00
C2039  C     0.69457   0.79204   0.65146   0.00000  Uiso   1.00
C2040  C     0.83129   0.83322   0.83483   0.00000  Uiso   1.00
C2041  C     0.95628   0.92286   0.69117   0.00000  Uiso   1.00
C2042  C     0.96788   0.71545   0.72657   0.00000  Uiso   1.00
C2043  C     0.70019   0.95356   0.77688   0.00000  Uiso   1.00
C2044  C     0.80254   0.69092   0.72698   0.00000  Uiso   1.00
C2045  C     0.86256   0.97502   0.77606   0.00000  Uiso   1.00
C2046  C     0.86373   0.69196   0.77454   0.00000  Uiso   1.00
C2047  C     0.80238   0.97471   0.72681   0.00000  Uiso   1.00
C2048  C     0.68551   0.79828   0.72386   0.00000  Uiso   1.00
Cu2049 Cu    0.83333   0.88022   0.75000   0.00000  Uiso   1.00
Cu2050 Cu    0.83333   0.78645   0.75000   0.00000  Uiso   1.00
H2051  H     0.77069   0.74793   0.64877   0.00000  Uiso   1.00
H2052  H     0.75900   0.89789   0.66822   0.00000  Uiso   1.00
H2053  H     0.79459   0.94231   0.65348   0.00000  Uiso   1.00
H2054  H     0.74005   0.95179   0.64835   0.00000  Uiso   1.00
H2055  H     0.92535   0.86114   0.51585   0.00000  Uiso   1.00
H2056  H     0.93199   0.89662   0.56571   0.00000  Uiso   1.00
H2057  H     0.93492   0.92239   0.51239   0.00000  Uiso   1.00
H2058  H     0.92169   0.78575   0.97923   0.00000  Uiso   1.00
H2059  H     0.90987   0.74728   0.93204   0.00000  Uiso   1.00
H2060  H     0.91929   0.72410   0.98659   0.00000  Uiso   1.00
H2061  H     0.75338   0.86862   0.99396   0.00000  Uiso   1.00
H2062  H     0.73762   0.69805   0.64793   0.00000  Uiso   1.00
H2063  H     0.74469   0.90006   0.94184   0.00000  Uiso   1.00
H2064  H     0.74829   0.93041   0.99346   0.00000  Uiso   1.00
H2065  H     0.74963   0.78679   0.51667   0.00000  Uiso   1.00
H2066  H     0.75746   0.75062   0.56596   0.00000  Uiso   1.00
H2067  H     0.74946   0.72480   0.51231   0.00000  Uiso   1.00
H2068  H     0.82424   0.95008   0.58073   0.00000  Uiso   1.00
H2069  H     0.87806   0.96888   0.58045   0.00000  Uiso   1.00
H2070  H     0.85076   0.97774   0.62767   0.00000  Uiso   1.00
H2071  H     0.78169   0.72486   0.91761   0.00000  Uiso   1.00
H2072  H     0.76987   0.76096   0.86887   0.00000  Uiso   1.00
H2073  H     0.79231   0.69106   0.64815   0.00000  Uiso   1.00
H2074  H     0.78644   0.70294   0.86308   0.00000  Uiso   1.00
H2075  H     0.86741   0.93841   0.89709   0.00000  Uiso   1.00
H2076  H     0.82732   0.96743   0.92437   0.00000  Uiso   1.00
H2077  H     0.83124   0.97488   0.86679   0.00000  Uiso   1.00
H2078  H     0.88400   0.71167   0.64678   0.00000  Uiso   1.00
H2079  H     0.89080   0.72528   0.58998   0.00000  Uiso   1.00
H2080  H     0.89916   0.76889   0.63316   0.00000  Uiso   1.00
H2081  H     0.71421   0.82370   0.64903   0.00000  Uiso   1.00
H2082  H     0.99489   0.80071   0.64377   0.00000  Uiso   1.00
H2083  H     0.70205   0.76756   0.62547   0.00000  Uiso   1.00
H2084  H     0.93945   0.92100   0.81376   0.00000  Uiso   1.00
H2085  H     0.93952   0.95512   0.68240   0.00000  Uiso   1.00
H2086  H     0.98679   0.92540   0.67759   0.00000  Uiso   1.00
H2087  H     0.93780   0.89379   0.67501   0.00000  Uiso   1.00
H2088  H     0.97940   0.71709   0.76216   0.00000  Uiso   1.00
H2089  H     0.99203   0.70245   0.70654   0.00000  Uiso   1.00
H2090  H     0.94216   0.68984   0.72334   0.00000  Uiso   1.00
H2091  H     0.69410   0.96198   0.74129   0.00000  Uiso   1.00
H2092  H     0.67376   0.96129   0.79577   0.00000  Uiso   1.00
H2093  H     0.72589   0.97671   0.79004   0.00000  Uiso   1.00
H2094  H     0.93648   0.97065   0.84647   0.00000  Uiso   1.00
H2095  H     0.93777   0.97731   0.78733   0.00000  Uiso   1.00
H2096  H     0.89568   0.75793   0.84481   0.00000  Uiso   1.00
H2097  H     0.93407   0.71608   0.84985   0.00000  Uiso   1.00
H2098  H     0.88189   0.69721   0.85401   0.00000  Uiso   1.00
N2099  N     0.83333   0.95069   0.75000   0.00000  Uiso   1.00
N2100  N     0.83333   0.71598   0.75000   0.00000  Uiso   1.00
O2101  O     0.77321   0.87291   0.74999   0.00000  Uiso   1.00
O2102  O     0.88282   0.95043   0.81052   0.00000  Uiso   1.00
O2103  O     0.89900   0.71602   0.79055   0.00000  Uiso   1.00
O2104  O     0.76589   0.95193   0.71266   0.00000  Uiso   1.00
O2105  O     0.87650   0.90428   0.52662   0.00000  Uiso   1.00
O2106  O     0.86316   0.75460   0.97402   0.00000  Uiso   1.00
O2107  O     0.80336   0.90753   0.97497   0.00000  Uiso   1.00
O2108  O     0.80658   0.75470   0.52645   0.00000  Uiso   1.00
O2109  O     0.86881   0.91110   0.61940   0.00000  Uiso   1.00
O2110  O     0.83249   0.74844   0.88662   0.00000  Uiso   1.00
O2111  O     0.80669   0.91236   0.88343   0.00000  Uiso   1.00
O2112  O     0.89345   0.79375   0.75001   0.00000  Uiso   1.00
O2113  O     0.83729   0.74878   0.61400   0.00000  Uiso   1.00
O2114  O     0.70244   0.77091   0.69335   0.00000  Uiso   1.00
O2115  O     0.96077   0.91823   0.73762   0.00000  Uiso   1.00
O2116  O     0.95275   0.75819   0.71000   0.00000  Uiso   1.00
O2117  O     0.71229   0.90734   0.78396   0.00000  Uiso   1.00
O2118  O     0.89345   0.87291   0.75001   0.00000  Uiso   1.00
O2119  O     0.77321   0.79375   0.74999   0.00000  Uiso   1.00
O2120  O     0.83333   0.87293   0.68573   0.00000  Uiso   1.00
O2121  O     0.83334   0.79374   0.81427   0.00000  Uiso   1.00
O2122  O     0.83334   0.87293   0.81427   0.00000  Uiso   1.00
O2123  O     0.83333   0.79374   0.68573   0.00000  Uiso   1.00
O2124  O     0.76891   0.71394   0.70781   0.00000  Uiso   1.00
loop_
_geom_bond_atom_site_label_1
_geom_bond_atom_site_label_2
_geom_bond_distance
_geom_bond_site_symmetry_2
_ccdc_geom_bond_type
C1     O95     1.294   .     A
C1     O113    1.309   .     A
C1     C19     1.466   .     S
C2     C18     1.410   .     A
C2     O109    1.381   .     S
C2     C122    1.410   .     S
C3     O110    1.388   .     S
C3     C18     1.405   .     A
C3     C160    1.405   .     S
C4     C19     1.411   .     A
C4     O111    1.399   .     S
C4     C238    1.410   1_455 S
C5     C16     1.412   .     A
C5     O99     1.383   .     S
C5     C9      1.420   .     A
C6     O100    1.384   .     S
C6     C17     1.407   .     A
C6     C10     1.393   .     A
C7     C11     1.411   .     A
C7     C17     1.412   .     A
C7     O101    1.383   .     S
C8     C13     1.389   .     A
C8     C16     1.407   .     A
C8     O102    1.383   .     S
C9     C14     1.413   .     A
C9     O103    1.390   .     S
C10    C15     1.410   .     A
C10    O104    1.379   .     S
C11    C15     1.412   .     A
C11    O105    1.384   .     S
C12    C18     1.470   .     S
C12    O112    1.303   .     A
C12    O106    1.303   .     A
C13    C14     1.407   .     A
C13    O107    1.379   .     S
C14    C23     1.481   .     S
C15    C34     1.482   .     S
C16    C1079   1.480   1_554 S
C17    C1078   1.480   .     S
C19    C42     1.405   .     A
C20    H67     1.113   .     S
C20    H56     1.108   .     S
C20    O118    1.411   .     S
C20    H45     1.105   .     S
C21    H89     1.108   .     S
C21    H78     1.107   .     S
C21    H88     1.107   .     S
C21    O96     1.405   .     S
C22    H91     1.108   .     S
C22    O97     1.408   .     S
C22    H90     1.104   .     S
C22    H92     1.110   .     S
C23    O117    1.305   .     A
C23    O114    1.307   .     A
C24    O98     1.411   .     S
C24    H48     1.107   .     S
C24    H47     1.105   .     S
C24    H46     1.108   .     S
C25    H50     1.113   .     S
C25    O99     1.409   .     S
C25    H51     1.109   .     S
C25    H49     1.112   .     S
C26    H54     1.109   .     S
C26    H52     1.113   .     S
C26    H53     1.112   .     S
C26    O100    1.409   .     S
C27    H55     1.112   .     S
C27    H57     1.113   .     S
C27    O101    1.409   .     S
C27    H58     1.109   .     S
C28    H61     1.109   .     S
C28    H60     1.112   .     S
C28    H59     1.113   .     S
C28    O102    1.409   .     S
C29    H63     1.109   .     S
C29    O103    1.412   .     S
C29    H64     1.104   .     S
C29    H62     1.116   .     S
C30    H66     1.115   .     S
C30    H65     1.113   .     S
C30    O104    1.412   .     S
C30    H68     1.108   .     S
C31    H70     1.109   .     S
C31    H71     1.105   .     S
C31    O105    1.411   .     S
C31    H69     1.115   .     S
C32    H74     1.115   .     S
C32    O107    1.415   .     S
C32    H72     1.108   .     S
C32    H73     1.111   .     S
C33    H75     1.112   .     S
C33    O108    1.416   .     S
C33    H77     1.107   .     S
C33    H312    1.115   1_455 S
C34    O116    1.307   .     A
C34    O115    1.305   .     A
C35    H81     1.113   .     S
C35    H80     1.113   .     S
C35    O109    1.414   .     S
C35    H79     1.107   .     S
C36    H82     1.115   .     S
C36    O110    1.411   .     S
C36    H84     1.106   .     S
C36    H83     1.109   .     S
C37    H85     1.110   .     S
C37    H86     1.105   .     S
C37    H87     1.109   .     S
C37    O111    1.407   .     S
C38    N94     1.369   .     A
C38    O118    1.377   .     S
C38    C749    1.428   1_545 S
C39    N93     1.369   .     A
C39    O96     1.389   .     S
C39    C394    1.450   .     S
C40    N94     1.382   .     A
C40    O97     1.385   .     S
C40    C747    1.450   1_545 S
C41    N93     1.376   .     A
C41    O98     1.385   .     S
C41    C392    1.428   .     S
C42    O108    1.378   .     S
C42    C239    1.405   1_455 S
Cu43   O114    1.967   .     S
Cu43   O95     1.970   .     S
Cu43   Cu44    2.703   .     S
Cu43   O116    1.967   .     S
Cu43   O112    1.977   .     S
Cu43   N93     2.031   .     S
Cu44   O115    1.967   .     S
Cu44   O113    1.977   .     S
Cu44   O106    1.970   .     S
Cu44   O117    1.967   .     S
Cu44   N94     2.031   .     S
H76    C151    1.115   .     S
C119   O213    1.294   .     A
C119   O231    1.309   .     A
C119   C137    1.466   .     S
C120   C136    1.410   .     A
C120   O227    1.381   .     S
C120   C240    1.410   .     S
C121   O228    1.388   .     S
C121   C136    1.405   .     A
C121   C278    1.405   .     S
C122   C137    1.411   .     A
C122   O229    1.399   .     S
C123   C134    1.412   .     A
C123   O217    1.383   .     S
C123   C127    1.420   .     A
C124   O218    1.384   .     S
C124   C135    1.407   .     A
C124   C128    1.393   .     A
C125   C129    1.411   .     A
C125   C135    1.412   .     A
C125   O219    1.383   .     S
C126   C131    1.389   .     A
C126   C134    1.407   .     A
C126   O220    1.383   .     S
C127   C132    1.413   .     A
C127   O221    1.390   .     S
C128   C133    1.410   .     A
C128   O222    1.379   .     S
C129   C133    1.412   .     A
C129   O223    1.384   .     S
C130   C136    1.470   .     S
C130   O230    1.303   .     A
C130   O224    1.303   .     A
C131   C132    1.407   .     A
C131   O225    1.379   .     S
C132   C141    1.481   .     S
C133   C152    1.482   .     S
C134   C1197   1.480   1_554 S
C135   C1196   1.480   .     S
C137   C160    1.405   .     A
C138   H185    1.113   .     S
C138   H174    1.108   .     S
C138   O236    1.411   .     S
C138   H163    1.105   .     S
C139   H207    1.108   .     S
C139   H196    1.107   .     S
C139   H206    1.107   .     S
C139   O214    1.405   .     S
C140   H209    1.108   .     S
C140   O215    1.408   .     S
C140   H208    1.104   .     S
C140   H210    1.110   .     S
C141   O235    1.305   .     A
C141   O232    1.307   .     A
C142   O216    1.411   .     S
C142   H166    1.107   .     S
C142   H165    1.105   .     S
C142   H164    1.108   .     S
C143   H168    1.113   .     S
C143   O217    1.409   .     S
C143   H169    1.109   .     S
C143   H167    1.112   .     S
C144   H172    1.109   .     S
C144   H170    1.113   .     S
C144   H171    1.112   .     S
C144   O218    1.409   .     S
C145   H173    1.112   .     S
C145   H175    1.113   .     S
C145   O219    1.409   .     S
C145   H176    1.109   .     S
C146   H179    1.109   .     S
C146   H178    1.112   .     S
C146   H177    1.113   .     S
C146   O220    1.409   .     S
C147   H181    1.109   .     S
C147   O221    1.412   .     S
C147   H182    1.104   .     S
C147   H180    1.116   .     S
C148   H184    1.115   .     S
C148   H183    1.113   .     S
C148   O222    1.412   .     S
C148   H186    1.108   .     S
C149   H188    1.109   .     S
C149   H189    1.105   .     S
C149   O223    1.411   .     S
C149   H187    1.115   .     S
C150   H192    1.115   .     S
C150   O225    1.415   .     S
C150   H190    1.108   .     S
C150   H191    1.111   .     S
C151   H193    1.112   .     S
C151   O226    1.416   .     S
C151   H195    1.107   .     S
C152   O234    1.307   .     A
C152   O233    1.305   .     A
C153   H199    1.113   .     S
C153   H198    1.113   .     S
C153   O227    1.414   .     S
C153   H197    1.107   .     S
C154   H200    1.115   .     S
C154   O228    1.411   .     S
C154   H202    1.106   .     S
C154   H201    1.109   .     S
C155   H203    1.110   .     S
C155   H204    1.105   .     S
C155   H205    1.109   .     S
C155   O229    1.407   .     S
C156   N212    1.369   .     A
C156   O236    1.377   .     S
C156   C867    1.428   1_545 S
C157   N211    1.369   .     A
C157   O214    1.389   .     S
C157   C512    1.450   .     S
C158   N212    1.382   .     A
C158   O215    1.385   .     S
C158   C865    1.450   1_545 S
C159   N211    1.376   .     A
C159   O216    1.385   .     S
C159   C510    1.428   .     S
C160   O226    1.378   .     S
Cu161  O232    1.967   .     S
Cu161  O213    1.970   .     S
Cu161  Cu162   2.703   .     S
Cu161  O234    1.967   .     S
Cu161  O230    1.977   .     S
Cu161  N211    2.031   .     S
Cu162  O233    1.967   .     S
Cu162  O231    1.977   .     S
Cu162  O224    1.970   .     S
Cu162  O235    1.967   .     S
Cu162  N212    2.031   .     S
H194   C269    1.115   .     S
C237   O331    1.294   .     A
C237   O349    1.309   .     A
C237   C255    1.466   .     S
C238   C254    1.410   .     A
C238   O345    1.381   .     S
C238   C4      1.410   1_655 S
C239   O346    1.388   .     S
C239   C254    1.405   .     A
C239   C42     1.405   1_655 S
C240   C255    1.411   .     A
C240   O347    1.399   .     S
C241   C252    1.412   .     A
C241   O335    1.383   .     S
C241   C245    1.420   .     A
C242   O336    1.384   .     S
C242   C253    1.407   .     A
C242   C246    1.393   .     A
C243   C247    1.411   .     A
C243   C253    1.412   .     A
C243   O337    1.383   .     S
C244   C249    1.389   .     A
C244   C252    1.407   .     A
C244   O338    1.383   .     S
C245   C250    1.413   .     A
C245   O339    1.390   .     S
C246   C251    1.410   .     A
C246   O340    1.379   .     S
C247   C251    1.412   .     A
C247   O341    1.384   .     S
C248   C254    1.470   .     S
C248   O348    1.303   .     A
C248   O342    1.303   .     A
C249   C250    1.407   .     A
C249   O343    1.379   .     S
C250   C259    1.481   .     S
C251   C270    1.482   .     S
C252   C1315   1.480   1_554 S
C253   C1314   1.480   .     S
C255   C278    1.405   .     A
C256   H303    1.113   .     S
C256   H292    1.108   .     S
C256   O354    1.411   .     S
C256   H281    1.105   .     S
C257   H325    1.108   .     S
C257   H314    1.107   .     S
C257   H324    1.107   .     S
C257   O332    1.405   .     S
C258   H327    1.108   .     S
C258   O333    1.408   .     S
C258   H326    1.104   .     S
C258   H328    1.110   .     S
C259   O353    1.305   .     A
C259   O350    1.307   .     A
C260   O334    1.411   .     S
C260   H284    1.107   .     S
C260   H283    1.105   .     S
C260   H282    1.108   .     S
C261   H286    1.113   .     S
C261   O335    1.409   .     S
C261   H287    1.109   .     S
C261   H285    1.112   .     S
C262   H290    1.109   .     S
C262   H288    1.113   .     S
C262   H289    1.112   .     S
C262   O336    1.409   .     S
C263   H291    1.112   .     S
C263   H293    1.113   .     S
C263   O337    1.409   .     S
C263   H294    1.109   .     S
C264   H297    1.109   .     S
C264   H296    1.112   .     S
C264   H295    1.113   .     S
C264   O338    1.409   .     S
C265   H299    1.109   .     S
C265   O339    1.412   .     S
C265   H300    1.104   .     S
C265   H298    1.116   .     S
C266   H302    1.115   .     S
C266   H301    1.113   .     S
C266   O340    1.412   .     S
C266   H304    1.108   .     S
C267   H306    1.109   .     S
C267   H307    1.105   .     S
C267   O341    1.411   .     S
C267   H305    1.115   .     S
C268   H310    1.115   .     S
C268   O343    1.415   .     S
C268   H308    1.108   .     S
C268   H309    1.111   .     S
C269   H311    1.112   .     S
C269   O344    1.416   .     S
C269   H313    1.107   .     S
C270   O352    1.307   .     A
C270   O351    1.305   .     A
C271   H317    1.113   .     S
C271   H316    1.113   .     S
C271   O345    1.414   .     S
C271   H315    1.107   .     S
C272   H318    1.115   .     S
C272   O346    1.411   .     S
C272   H320    1.106   .     S
C272   H319    1.109   .     S
C273   H321    1.110   .     S
C273   H322    1.105   .     S
C273   H323    1.109   .     S
C273   O347    1.407   .     S
C274   N330    1.369   .     A
C274   O354    1.377   .     S
C274   C985    1.428   1_545 S
C275   N329    1.369   .     A
C275   O332    1.389   .     S
C275   C630    1.450   .     S
C276   N330    1.382   .     A
C276   O333    1.385   .     S
C276   C983    1.450   1_545 S
C277   N329    1.376   .     A
C277   O334    1.385   .     S
C277   C628    1.428   .     S
C278   O344    1.378   .     S
Cu279  O350    1.967   .     S
Cu279  O331    1.970   .     S
Cu279  Cu280   2.703   .     S
Cu279  O352    1.967   .     S
Cu279  O348    1.977   .     S
Cu279  N329    2.031   .     S
Cu280  O351    1.967   .     S
Cu280  O349    1.977   .     S
Cu280  O342    1.970   .     S
Cu280  O353    1.967   .     S
Cu280  N330    2.031   .     S
H312   C33     1.115   1_655 S
C355   O449    1.294   .     A
C355   O467    1.309   .     A
C355   C373    1.466   .     S
C356   C372    1.410   .     A
C356   O463    1.381   .     S
C356   C476    1.410   .     S
C357   O464    1.388   .     S
C357   C372    1.405   .     A
C357   C514    1.405   .     S
C358   C373    1.411   .     A
C358   O465    1.399   .     S
C358   C592    1.410   1_455 S
C359   C370    1.412   .     A
C359   O453    1.383   .     S
C359   C363    1.420   .     A
C360   O454    1.384   .     S
C360   C371    1.407   .     A
C360   C364    1.393   .     A
C361   C365    1.411   .     A
C361   C371    1.412   .     A
C361   O455    1.383   .     S
C362   C367    1.389   .     A
C362   C370    1.407   .     A
C362   O456    1.383   .     S
C363   C368    1.413   .     A
C363   O457    1.390   .     S
C364   C369    1.410   .     A
C364   O458    1.379   .     S
C365   C369    1.412   .     A
C365   O459    1.384   .     S
C366   C372    1.470   .     S
C366   O466    1.303   .     A
C366   O460    1.303   .     A
C367   C368    1.407   .     A
C367   O461    1.379   .     S
C368   C377    1.481   .     S
C369   C388    1.482   .     S
C370   C1433   1.480   1_554 S
C371   C1432   1.480   .     S
C373   C396    1.405   .     A
C374   H421    1.113   .     S
C374   H410    1.108   .     S
C374   O472    1.411   .     S
C374   H399    1.105   .     S
C375   H443    1.108   .     S
C375   H432    1.107   .     S
C375   H442    1.107   .     S
C375   O450    1.405   .     S
C376   H445    1.108   .     S
C376   O451    1.408   .     S
C376   H444    1.104   .     S
C376   H446    1.110   .     S
C377   O471    1.305   .     A
C377   O468    1.307   .     A
C378   O452    1.411   .     S
C378   H402    1.107   .     S
C378   H401    1.105   .     S
C378   H400    1.108   .     S
C379   H404    1.113   .     S
C379   O453    1.409   .     S
C379   H405    1.109   .     S
C379   H403    1.112   .     S
C380   H408    1.109   .     S
C380   H406    1.113   .     S
C380   H407    1.112   .     S
C380   O454    1.409   .     S
C381   H409    1.112   .     S
C381   H411    1.113   .     S
C381   O455    1.409   .     S
C381   H412    1.109   .     S
C382   H415    1.109   .     S
C382   H414    1.112   .     S
C382   H413    1.113   .     S
C382   O456    1.409   .     S
C383   H417    1.109   .     S
C383   O457    1.412   .     S
C383   H418    1.104   .     S
C383   H416    1.116   .     S
C384   H420    1.115   .     S
C384   H419    1.113   .     S
C384   O458    1.412   .     S
C384   H422    1.108   .     S
C385   H424    1.109   .     S
C385   H425    1.105   .     S
C385   O459    1.411   .     S
C385   H423    1.115   .     S
C386   H428    1.115   .     S
C386   O461    1.415   .     S
C386   H426    1.108   .     S
C386   H427    1.111   .     S
C387   H429    1.112   .     S
C387   O462    1.416   .     S
C387   H431    1.107   .     S
C387   H666    1.115   1_455 S
C388   O470    1.307   .     A
C388   O469    1.305   .     A
C389   H435    1.113   .     S
C389   H434    1.113   .     S
C389   O463    1.414   .     S
C389   H433    1.107   .     S
C390   H436    1.115   .     S
C390   O464    1.411   .     S
C390   H438    1.106   .     S
C390   H437    1.109   .     S
C391   H439    1.110   .     S
C391   H440    1.105   .     S
C391   H441    1.109   .     S
C391   O465    1.407   .     S
C392   N448    1.369   .     A
C392   O472    1.377   .     S
C393   N447    1.369   .     A
C393   O450    1.389   .     S
C393   C748    1.450   .     S
C394   N448    1.382   .     A
C394   O451    1.385   .     S
C395   N447    1.376   .     A
C395   O452    1.385   .     S
C395   C746    1.428   .     S
C396   O462    1.378   .     S
C396   C593    1.405   1_455 S
Cu397  O468    1.967   .     S
Cu397  O449    1.970   .     S
Cu397  Cu398   2.703   .     S
Cu397  O470    1.967   .     S
Cu397  O466    1.977   .     S
Cu397  N447    2.031   .     S
Cu398  O469    1.967   .     S
Cu398  O467    1.977   .     S
Cu398  O460    1.970   .     S
Cu398  O471    1.967   .     S
Cu398  N448    2.031   .     S
H430   C505    1.115   .     S
C473   O567    1.294   .     A
C473   O585    1.309   .     A
C473   C491    1.466   .     S
C474   C490    1.410   .     A
C474   O581    1.381   .     S
C474   C594    1.410   .     S
C475   O582    1.388   .     S
C475   C490    1.405   .     A
C475   C632    1.405   .     S
C476   C491    1.411   .     A
C476   O583    1.399   .     S
C477   C488    1.412   .     A
C477   O571    1.383   .     S
C477   C481    1.420   .     A
C478   O572    1.384   .     S
C478   C489    1.407   .     A
C478   C482    1.393   .     A
C479   C483    1.411   .     A
C479   C489    1.412   .     A
C479   O573    1.383   .     S
C480   C485    1.389   .     A
C480   C488    1.407   .     A
C480   O574    1.383   .     S
C481   C486    1.413   .     A
C481   O575    1.390   .     S
C482   C487    1.410   .     A
C482   O576    1.379   .     S
C483   C487    1.412   .     A
C483   O577    1.384   .     S
C484   C490    1.470   .     S
C484   O584    1.303   .     A
C484   O578    1.303   .     A
C485   C486    1.407   .     A
C485   O579    1.379   .     S
C486   C495    1.481   .     S
C487   C506    1.482   .     S
C488   C1551   1.480   1_554 S
C489   C1550   1.480   .     S
C491   C514    1.405   .     A
C492   H539    1.113   .     S
C492   H528    1.108   .     S
C492   O590    1.411   .     S
C492   H517    1.105   .     S
C493   H561    1.108   .     S
C493   H550    1.107   .     S
C493   H560    1.107   .     S
C493   O568    1.405   .     S
C494   H563    1.108   .     S
C494   O569    1.408   .     S
C494   H562    1.104   .     S
C494   H564    1.110   .     S
C495   O589    1.305   .     A
C495   O586    1.307   .     A
C496   O570    1.411   .     S
C496   H520    1.107   .     S
C496   H519    1.105   .     S
C496   H518    1.108   .     S
C497   H522    1.113   .     S
C497   O571    1.409   .     S
C497   H523    1.109   .     S
C497   H521    1.112   .     S
C498   H526    1.109   .     S
C498   H524    1.113   .     S
C498   H525    1.112   .     S
C498   O572    1.409   .     S
C499   H527    1.112   .     S
C499   H529    1.113   .     S
C499   O573    1.409   .     S
C499   H530    1.109   .     S
C500   H533    1.109   .     S
C500   H532    1.112   .     S
C500   H531    1.113   .     S
C500   O574    1.409   .     S
C501   H535    1.109   .     S
C501   O575    1.412   .     S
C501   H536    1.104   .     S
C501   H534    1.116   .     S
C502   H538    1.115   .     S
C502   H537    1.113   .     S
C502   O576    1.412   .     S
C502   H540    1.108   .     S
C503   H542    1.109   .     S
C503   H543    1.105   .     S
C503   O577    1.411   .     S
C503   H541    1.115   .     S
C504   H546    1.115   .     S
C504   O579    1.415   .     S
C504   H544    1.108   .     S
C504   H545    1.111   .     S
C505   H547    1.112   .     S
C505   O580    1.416   .     S
C505   H549    1.107   .     S
C506   O588    1.307   .     A
C506   O587    1.305   .     A
C507   H553    1.113   .     S
C507   H552    1.113   .     S
C507   O581    1.414   .     S
C507   H551    1.107   .     S
C508   H554    1.115   .     S
C508   O582    1.411   .     S
C508   H556    1.106   .     S
C508   H555    1.109   .     S
C509   H557    1.110   .     S
C509   H558    1.105   .     S
C509   H559    1.109   .     S
C509   O583    1.407   .     S
C510   N566    1.369   .     A
C510   O590    1.377   .     S
C511   N565    1.369   .     A
C511   O568    1.389   .     S
C511   C866    1.450   .     S
C512   N566    1.382   .     A
C512   O569    1.385   .     S
C513   N565    1.376   .     A
C513   O570    1.385   .     S
C513   C864    1.428   .     S
C514   O580    1.378   .     S
Cu515  O586    1.967   .     S
Cu515  O567    1.970   .     S
Cu515  Cu516   2.703   .     S
Cu515  O588    1.967   .     S
Cu515  O584    1.977   .     S
Cu515  N565    2.031   .     S
Cu516  O587    1.967   .     S
Cu516  O585    1.977   .     S
Cu516  O578    1.970   .     S
Cu516  O589    1.967   .     S
Cu516  N566    2.031   .     S
H548   C623    1.115   .     S
C591   O685    1.294   .     A
C591   O703    1.309   .     A
C591   C609    1.466   .     S
C592   C608    1.410   .     A
C592   O699    1.381   .     S
C592   C358    1.410   1_655 S
C593   O700    1.388   .     S
C593   C608    1.405   .     A
C593   C396    1.405   1_655 S
C594   C609    1.411   .     A
C594   O701    1.399   .     S
C595   C606    1.412   .     A
C595   O689    1.383   .     S
C595   C599    1.420   .     A
C596   O690    1.384   .     S
C596   C607    1.407   .     A
C596   C600    1.393   .     A
C597   C601    1.411   .     A
C597   C607    1.412   .     A
C597   O691    1.383   .     S
C598   C603    1.389   .     A
C598   C606    1.407   .     A
C598   O692    1.383   .     S
C599   C604    1.413   .     A
C599   O693    1.390   .     S
C600   C605    1.410   .     A
C600   O694    1.379   .     S
C601   C605    1.412   .     A
C601   O695    1.384   .     S
C602   C608    1.470   .     S
C602   O702    1.303   .     A
C602   O696    1.303   .     A
C603   C604    1.407   .     A
C603   O697    1.379   .     S
C604   C613    1.481   .     S
C605   C624    1.482   .     S
C606   C1669   1.480   1_554 S
C607   C1668   1.480   .     S
C609   C632    1.405   .     A
C610   H657    1.113   .     S
C610   H646    1.108   .     S
C610   O708    1.411   .     S
C610   H635    1.105   .     S
C611   H679    1.108   .     S
C611   H668    1.107   .     S
C611   H678    1.107   .     S
C611   O686    1.405   .     S
C612   H681    1.108   .     S
C612   O687    1.408   .     S
C612   H680    1.104   .     S
C612   H682    1.110   .     S
C613   O707    1.305   .     A
C613   O704    1.307   .     A
C614   O688    1.411   .     S
C614   H638    1.107   .     S
C614   H637    1.105   .     S
C614   H636    1.108   .     S
C615   H640    1.113   .     S
C615   O689    1.409   .     S
C615   H641    1.109   .     S
C615   H639    1.112   .     S
C616   H644    1.109   .     S
C616   H642    1.113   .     S
C616   H643    1.112   .     S
C616   O690    1.409   .     S
C617   H645    1.112   .     S
C617   H647    1.113   .     S
C617   O691    1.409   .     S
C617   H648    1.109   .     S
C618   H651    1.109   .     S
C618   H650    1.112   .     S
C618   H649    1.113   .     S
C618   O692    1.409   .     S
C619   H653    1.109   .     S
C619   O693    1.412   .     S
C619   H654    1.104   .     S
C619   H652    1.116   .     S
C620   H656    1.115   .     S
C620   H655    1.113   .     S
C620   O694    1.412   .     S
C620   H658    1.108   .     S
C621   H660    1.109   .     S
C621   H661    1.105   .     S
C621   O695    1.411   .     S
C621   H659    1.115   .     S
C622   H664    1.115   .     S
C622   O697    1.415   .     S
C622   H662    1.108   .     S
C622   H663    1.111   .     S
C623   H665    1.112   .     S
C623   O698    1.416   .     S
C623   H667    1.107   .     S
C624   O706    1.307   .     A
C624   O705    1.305   .     A
C625   H671    1.113   .     S
C625   H670    1.113   .     S
C625   O699    1.414   .     S
C625   H669    1.107   .     S
C626   H672    1.115   .     S
C626   O700    1.411   .     S
C626   H674    1.106   .     S
C626   H673    1.109   .     S
C627   H675    1.110   .     S
C627   H676    1.105   .     S
C627   H677    1.109   .     S
C627   O701    1.407   .     S
C628   N684    1.369   .     A
C628   O708    1.377   .     S
C629   N683    1.369   .     A
C629   O686    1.389   .     S
C629   C984    1.450   .     S
C630   N684    1.382   .     A
C630   O687    1.385   .     S
C631   N683    1.376   .     A
C631   O688    1.385   .     S
C631   C982    1.428   .     S
C632   O698    1.378   .     S
Cu633  O704    1.967   .     S
Cu633  O685    1.970   .     S
Cu633  Cu634   2.703   .     S
Cu633  O706    1.967   .     S
Cu633  O702    1.977   .     S
Cu633  N683    2.031   .     S
Cu634  O705    1.967   .     S
Cu634  O703    1.977   .     S
Cu634  O696    1.970   .     S
Cu634  O707    1.967   .     S
Cu634  N684    2.031   .     S
H666   C387    1.115   1_655 S
C709   O803    1.294   .     A
C709   O821    1.309   .     A
C709   C727    1.466   .     S
C710   C726    1.410   .     A
C710   O817    1.381   .     S
C710   C830    1.410   .     S
C711   O818    1.388   .     S
C711   C726    1.405   .     A
C711   C868    1.405   .     S
C712   C727    1.411   .     A
C712   O819    1.399   .     S
C712   C946    1.410   1_455 S
C713   C724    1.412   .     A
C713   O807    1.383   .     S
C713   C717    1.420   .     A
C714   O808    1.384   .     S
C714   C725    1.407   .     A
C714   C718    1.393   .     A
C715   C719    1.411   .     A
C715   C725    1.412   .     A
C715   O809    1.383   .     S
C716   C721    1.389   .     A
C716   C724    1.407   .     A
C716   O810    1.383   .     S
C717   C722    1.413   .     A
C717   O811    1.390   .     S
C718   C723    1.410   .     A
C718   O812    1.379   .     S
C719   C723    1.412   .     A
C719   O813    1.384   .     S
C720   C726    1.470   .     S
C720   O820    1.303   .     A
C720   O814    1.303   .     A
C721   C722    1.407   .     A
C721   O815    1.379   .     S
C722   C731    1.481   .     S
C723   C742    1.482   .     S
C724   C1787   1.480   1_554 S
C725   C1786   1.480   .     S
C727   C750    1.405   .     A
C728   H775    1.113   .     S
C728   H764    1.108   .     S
C728   O826    1.411   .     S
C728   H753    1.105   .     S
C729   H797    1.108   .     S
C729   H786    1.107   .     S
C729   H796    1.107   .     S
C729   O804    1.405   .     S
C730   H799    1.108   .     S
C730   O805    1.408   .     S
C730   H798    1.104   .     S
C730   H800    1.110   .     S
C731   O825    1.305   .     A
C731   O822    1.307   .     A
C732   O806    1.411   .     S
C732   H756    1.107   .     S
C732   H755    1.105   .     S
C732   H754    1.108   .     S
C733   H758    1.113   .     S
C733   O807    1.409   .     S
C733   H759    1.109   .     S
C733   H757    1.112   .     S
C734   H762    1.109   .     S
C734   H760    1.113   .     S
C734   H761    1.112   .     S
C734   O808    1.409   .     S
C735   H763    1.112   .     S
C735   H765    1.113   .     S
C735   O809    1.409   .     S
C735   H766    1.109   .     S
C736   H769    1.109   .     S
C736   H768    1.112   .     S
C736   H767    1.113   .     S
C736   O810    1.409   .     S
C737   H771    1.109   .     S
C737   O811    1.412   .     S
C737   H772    1.104   .     S
C737   H770    1.116   .     S
C738   H774    1.115   .     S
C738   H773    1.113   .     S
C738   O812    1.412   .     S
C738   H776    1.108   .     S
C739   H778    1.109   .     S
C739   H779    1.105   .     S
C739   O813    1.411   .     S
C739   H777    1.115   .     S
C740   H782    1.115   .     S
C740   O815    1.415   .     S
C740   H780    1.108   .     S
C740   H781    1.111   .     S
C741   H783    1.112   .     S
C741   O816    1.416   .     S
C741   H785    1.107   .     S
C741   H1020   1.115   1_455 S
C742   O824    1.307   .     A
C742   O823    1.305   .     A
C743   H789    1.113   .     S
C743   H788    1.113   .     S
C743   O817    1.414   .     S
C743   H787    1.107   .     S
C744   H790    1.115   .     S
C744   O818    1.411   .     S
C744   H792    1.106   .     S
C744   H791    1.109   .     S
C745   H793    1.110   .     S
C745   H794    1.105   .     S
C745   H795    1.109   .     S
C745   O819    1.407   .     S
C746   N802    1.369   .     A
C746   O826    1.377   .     S
C747   N801    1.369   .     A
C747   O804    1.389   .     S
C747   C40     1.450   1_565 S
C748   N802    1.382   .     A
C748   O805    1.385   .     S
C749   N801    1.376   .     A
C749   O806    1.385   .     S
C749   C38     1.428   1_565 S
C750   O816    1.378   .     S
C750   C947    1.405   1_455 S
Cu751  O822    1.967   .     S
Cu751  O803    1.970   .     S
Cu751  Cu752   2.703   .     S
Cu751  O824    1.967   .     S
Cu751  O820    1.977   .     S
Cu751  N801    2.031   .     S
Cu752  O823    1.967   .     S
Cu752  O821    1.977   .     S
Cu752  O814    1.970   .     S
Cu752  O825    1.967   .     S
Cu752  N802    2.031   .     S
H784   C859    1.115   .     S
C827   O921    1.294   .     A
C827   O939    1.309   .     A
C827   C845    1.466   .     S
C828   C844    1.410   .     A
C828   O935    1.381   .     S
C828   C948    1.410   .     S
C829   O936    1.388   .     S
C829   C844    1.405   .     A
C829   C986    1.405   .     S
C830   C845    1.411   .     A
C830   O937    1.399   .     S
C831   C842    1.412   .     A
C831   O925    1.383   .     S
C831   C835    1.420   .     A
C832   O926    1.384   .     S
C832   C843    1.407   .     A
C832   C836    1.393   .     A
C833   C837    1.411   .     A
C833   C843    1.412   .     A
C833   O927    1.383   .     S
C834   C839    1.389   .     A
C834   C842    1.407   .     A
C834   O928    1.383   .     S
C835   C840    1.413   .     A
C835   O929    1.390   .     S
C836   C841    1.410   .     A
C836   O930    1.379   .     S
C837   C841    1.412   .     A
C837   O931    1.384   .     S
C838   C844    1.470   .     S
C838   O938    1.303   .     A
C838   O932    1.303   .     A
C839   C840    1.407   .     A
C839   O933    1.379   .     S
C840   C849    1.481   .     S
C841   C860    1.482   .     S
C842   C1905   1.480   1_554 S
C843   C1904   1.480   .     S
C845   C868    1.405   .     A
C846   H893    1.113   .     S
C846   H882    1.108   .     S
C846   O944    1.411   .     S
C846   H871    1.105   .     S
C847   H915    1.108   .     S
C847   H904    1.107   .     S
C847   H914    1.107   .     S
C847   O922    1.405   .     S
C848   H917    1.108   .     S
C848   O923    1.408   .     S
C848   H916    1.104   .     S
C848   H918    1.110   .     S
C849   O943    1.305   .     A
C849   O940    1.307   .     A
C850   O924    1.411   .     S
C850   H874    1.107   .     S
C850   H873    1.105   .     S
C850   H872    1.108   .     S
C851   H876    1.113   .     S
C851   O925    1.409   .     S
C851   H877    1.109   .     S
C851   H875    1.112   .     S
C852   H880    1.109   .     S
C852   H878    1.113   .     S
C852   H879    1.112   .     S
C852   O926    1.409   .     S
C853   H881    1.112   .     S
C853   H883    1.113   .     S
C853   O927    1.409   .     S
C853   H884    1.109   .     S
C854   H887    1.109   .     S
C854   H886    1.112   .     S
C854   H885    1.113   .     S
C854   O928    1.409   .     S
C855   H889    1.109   .     S
C855   O929    1.412   .     S
C855   H890    1.104   .     S
C855   H888    1.116   .     S
C856   H892    1.115   .     S
C856   H891    1.113   .     S
C856   O930    1.412   .     S
C856   H894    1.108   .     S
C857   H896    1.109   .     S
C857   H897    1.105   .     S
C857   O931    1.411   .     S
C857   H895    1.115   .     S
C858   H900    1.115   .     S
C858   O933    1.415   .     S
C858   H898    1.108   .     S
C858   H899    1.111   .     S
C859   H901    1.112   .     S
C859   O934    1.416   .     S
C859   H903    1.107   .     S
C860   O942    1.307   .     A
C860   O941    1.305   .     A
C861   H907    1.113   .     S
C861   H906    1.113   .     S
C861   O935    1.414   .     S
C861   H905    1.107   .     S
C862   H908    1.115   .     S
C862   O936    1.411   .     S
C862   H910    1.106   .     S
C862   H909    1.109   .     S
C863   H911    1.110   .     S
C863   H912    1.105   .     S
C863   H913    1.109   .     S
C863   O937    1.407   .     S
C864   N920    1.369   .     A
C864   O944    1.377   .     S
C865   N919    1.369   .     A
C865   O922    1.389   .     S
C865   C158    1.450   1_565 S
C866   N920    1.382   .     A
C866   O923    1.385   .     S
C867   N919    1.376   .     A
C867   O924    1.385   .     S
C867   C156    1.428   1_565 S
C868   O934    1.378   .     S
Cu869  O940    1.967   .     S
Cu869  O921    1.970   .     S
Cu869  Cu870   2.703   .     S
Cu869  O942    1.967   .     S
Cu869  O938    1.977   .     S
Cu869  N919    2.031   .     S
Cu870  O941    1.967   .     S
Cu870  O939    1.977   .     S
Cu870  O932    1.970   .     S
Cu870  O943    1.967   .     S
Cu870  N920    2.031   .     S
H902   C977    1.115   .     S
C945   O1039   1.294   .     A
C945   O1057   1.309   .     A
C945   C963    1.466   .     S
C946   C962    1.410   .     A
C946   O1053   1.381   .     S
C946   C712    1.410   1_655 S
C947   O1054   1.388   .     S
C947   C962    1.405   .     A
C947   C750    1.405   1_655 S
C948   C963    1.411   .     A
C948   O1055   1.399   .     S
C949   C960    1.412   .     A
C949   O1043   1.383   .     S
C949   C953    1.420   .     A
C950   O1044   1.384   .     S
C950   C961    1.407   .     A
C950   C954    1.393   .     A
C951   C955    1.411   .     A
C951   C961    1.412   .     A
C951   O1045   1.383   .     S
C952   C957    1.389   .     A
C952   C960    1.407   .     A
C952   O1046   1.383   .     S
C953   C958    1.413   .     A
C953   O1047   1.390   .     S
C954   C959    1.410   .     A
C954   O1048   1.379   .     S
C955   C959    1.412   .     A
C955   O1049   1.384   .     S
C956   C962    1.470   .     S
C956   O1056   1.303   .     A
C956   O1050   1.303   .     A
C957   C958    1.407   .     A
C957   O1051   1.379   .     S
C958   C967    1.481   .     S
C959   C978    1.482   .     S
C960   C2023   1.480   1_554 S
C961   C2022   1.480   .     S
C963   C986    1.405   .     A
C964   H1011   1.113   .     S
C964   H1000   1.108   .     S
C964   O1062   1.411   .     S
C964   H989    1.105   .     S
C965   H1033   1.108   .     S
C965   H1022   1.107   .     S
C965   H1032   1.107   .     S
C965   O1040   1.405   .     S
C966   H1035   1.108   .     S
C966   O1041   1.408   .     S
C966   H1034   1.104   .     S
C966   H1036   1.110   .     S
C967   O1061   1.305   .     A
C967   O1058   1.307   .     A
C968   O1042   1.411   .     S
C968   H992    1.107   .     S
C968   H991    1.105   .     S
C968   H990    1.108   .     S
C969   H994    1.113   .     S
C969   O1043   1.409   .     S
C969   H995    1.109   .     S
C969   H993    1.112   .     S
C970   H998    1.109   .     S
C970   H996    1.113   .     S
C970   H997    1.112   .     S
C970   O1044   1.409   .     S
C971   H999    1.112   .     S
C971   H1001   1.113   .     S
C971   O1045   1.409   .     S
C971   H1002   1.109   .     S
C972   H1005   1.109   .     S
C972   H1004   1.112   .     S
C972   H1003   1.113   .     S
C972   O1046   1.409   .     S
C973   H1007   1.109   .     S
C973   O1047   1.412   .     S
C973   H1008   1.104   .     S
C973   H1006   1.116   .     S
C974   H1010   1.115   .     S
C974   H1009   1.113   .     S
C974   O1048   1.412   .     S
C974   H1012   1.108   .     S
C975   H1014   1.109   .     S
C975   H1015   1.105   .     S
C975   O1049   1.411   .     S
C975   H1013   1.115   .     S
C976   H1018   1.115   .     S
C976   O1051   1.415   .     S
C976   H1016   1.108   .     S
C976   H1017   1.111   .     S
C977   H1019   1.112   .     S
C977   O1052   1.416   .     S
C977   H1021   1.107   .     S
C978   O1060   1.307   .     A
C978   O1059   1.305   .     A
C979   H1025   1.113   .     S
C979   H1024   1.113   .     S
C979   O1053   1.414   .     S
C979   H1023   1.107   .     S
C980   H1026   1.115   .     S
C980   O1054   1.411   .     S
C980   H1028   1.106   .     S
C980   H1027   1.109   .     S
C981   H1029   1.110   .     S
C981   H1030   1.105   .     S
C981   H1031   1.109   .     S
C981   O1055   1.407   .     S
C982   N1038   1.369   .     A
C982   O1062   1.377   .     S
C983   N1037   1.369   .     A
C983   O1040   1.389   .     S
C983   C276    1.450   1_565 S
C984   N1038   1.382   .     A
C984   O1041   1.385   .     S
C985   N1037   1.376   .     A
C985   O1042   1.385   .     S
C985   C274    1.428   1_565 S
C986   O1052   1.378   .     S
Cu987  O1058   1.967   .     S
Cu987  O1039   1.970   .     S
Cu987  Cu988   2.703   .     S
Cu987  O1060   1.967   .     S
Cu987  O1056   1.977   .     S
Cu987  N1037   2.031   .     S
Cu988  O1059   1.967   .     S
Cu988  O1057   1.977   .     S
Cu988  O1050   1.970   .     S
Cu988  O1061   1.967   .     S
Cu988  N1038   2.031   .     S
H1020  C741    1.115   1_655 S
C1063  O1157   1.294   .     A
C1063  O1175   1.309   .     A
C1063  C1081   1.466   .     S
C1064  C1080   1.410   .     A
C1064  O1171   1.381   .     S
C1064  C1184   1.410   .     S
C1065  O1172   1.388   .     S
C1065  C1080   1.405   .     A
C1065  C1222   1.405   .     S
C1066  C1081   1.411   .     A
C1066  O1173   1.399   .     S
C1066  C1300   1.410   1_455 S
C1067  C1078   1.412   .     A
C1067  O1161   1.383   .     S
C1067  C1071   1.420   .     A
C1068  O1162   1.384   .     S
C1068  C1079   1.407   .     A
C1068  C1072   1.393   .     A
C1069  C1073   1.411   .     A
C1069  C1079   1.412   .     A
C1069  O1163   1.383   .     S
C1070  C1075   1.389   .     A
C1070  C1078   1.407   .     A
C1070  O1164   1.383   .     S
C1071  C1076   1.413   .     A
C1071  O1165   1.390   .     S
C1072  C1077   1.410   .     A
C1072  O1166   1.379   .     S
C1073  C1077   1.412   .     A
C1073  O1167   1.384   .     S
C1074  C1080   1.470   .     S
C1074  O1174   1.303   .     A
C1074  O1168   1.303   .     A
C1075  C1076   1.407   .     A
C1075  O1169   1.379   .     S
C1076  C1085   1.481   .     S
C1077  C1096   1.482   .     S
C1079  C16     1.480   1_556 S
C1081  C1104   1.405   .     A
C1082  H1129   1.113   .     S
C1082  H1118   1.108   .     S
C1082  O1180   1.411   .     S
C1082  H1107   1.105   .     S
C1083  H1151   1.108   .     S
C1083  H1140   1.107   .     S
C1083  H1150   1.107   .     S
C1083  O1158   1.405   .     S
C1084  H1153   1.108   .     S
C1084  O1159   1.408   .     S
C1084  H1152   1.104   .     S
C1084  H1154   1.110   .     S
C1085  O1179   1.305   .     A
C1085  O1176   1.307   .     A
C1086  O1160   1.411   .     S
C1086  H1110   1.107   .     S
C1086  H1109   1.105   .     S
C1086  H1108   1.108   .     S
C1087  H1112   1.113   .     S
C1087  O1161   1.409   .     S
C1087  H1113   1.109   .     S
C1087  H1111   1.112   .     S
C1088  H1116   1.109   .     S
C1088  H1114   1.113   .     S
C1088  H1115   1.112   .     S
C1088  O1162   1.409   .     S
C1089  H1117   1.112   .     S
C1089  H1119   1.113   .     S
C1089  O1163   1.409   .     S
C1089  H1120   1.109   .     S
C1090  H1123   1.109   .     S
C1090  H1122   1.112   .     S
C1090  H1121   1.113   .     S
C1090  O1164   1.409   .     S
C1091  H1125   1.109   .     S
C1091  O1165   1.412   .     S
C1091  H1126   1.104   .     S
C1091  H1124   1.116   .     S
C1092  H1128   1.115   .     S
C1092  H1127   1.113   .     S
C1092  O1166   1.412   .     S
C1092  H1130   1.108   .     S
C1093  H1132   1.109   .     S
C1093  H1133   1.105   .     S
C1093  O1167   1.411   .     S
C1093  H1131   1.115   .     S
C1094  H1136   1.115   .     S
C1094  O1169   1.415   .     S
C1094  H1134   1.108   .     S
C1094  H1135   1.111   .     S
C1095  H1137   1.112   .     S
C1095  O1170   1.416   .     S
C1095  H1139   1.107   .     S
C1095  H1374   1.115   1_455 S
C1096  O1178   1.307   .     A
C1096  O1177   1.305   .     A
C1097  H1143   1.113   .     S
C1097  H1142   1.113   .     S
C1097  O1171   1.414   .     S
C1097  H1141   1.107   .     S
C1098  H1144   1.115   .     S
C1098  O1172   1.411   .     S
C1098  H1146   1.106   .     S
C1098  H1145   1.109   .     S
C1099  H1147   1.110   .     S
C1099  H1148   1.105   .     S
C1099  H1149   1.109   .     S
C1099  O1173   1.407   .     S
C1100  N1156   1.369   .     A
C1100  O1180   1.377   .     S
C1100  C1811   1.428   1_545 S
C1101  N1155   1.369   .     A
C1101  O1158   1.389   .     S
C1101  C1456   1.450   .     S
C1102  N1156   1.382   .     A
C1102  O1159   1.385   .     S
C1102  C1809   1.450   1_545 S
C1103  N1155   1.376   .     A
C1103  O1160   1.385   .     S
C1103  C1454   1.428   .     S
C1104  O1170   1.378   .     S
C1104  C1301   1.405   1_455 S
Cu1105 O1176   1.967   .     S
Cu1105 O1157   1.970   .     S
Cu1105 Cu1106  2.703   .     S
Cu1105 O1178   1.967   .     S
Cu1105 O1174   1.977   .     S
Cu1105 N1155   2.031   .     S
Cu1106 O1177   1.967   .     S
Cu1106 O1175   1.977   .     S
Cu1106 O1168   1.970   .     S
Cu1106 O1179   1.967   .     S
Cu1106 N1156   2.031   .     S
H1138  C1213   1.115   .     S
C1181  O1275   1.294   .     A
C1181  O1293   1.309   .     A
C1181  C1199   1.466   .     S
C1182  C1198   1.410   .     A
C1182  O1289   1.381   .     S
C1182  C1302   1.410   .     S
C1183  O1290   1.388   .     S
C1183  C1198   1.405   .     A
C1183  C1340   1.405   .     S
C1184  C1199   1.411   .     A
C1184  O1291   1.399   .     S
C1185  C1196   1.412   .     A
C1185  O1279   1.383   .     S
C1185  C1189   1.420   .     A
C1186  O1280   1.384   .     S
C1186  C1197   1.407   .     A
C1186  C1190   1.393   .     A
C1187  C1191   1.411   .     A
C1187  C1197   1.412   .     A
C1187  O1281   1.383   .     S
C1188  C1193   1.389   .     A
C1188  C1196   1.407   .     A
C1188  O1282   1.383   .     S
C1189  C1194   1.413   .     A
C1189  O1283   1.390   .     S
C1190  C1195   1.410   .     A
C1190  O1284   1.379   .     S
C1191  C1195   1.412   .     A
C1191  O1285   1.384   .     S
C1192  C1198   1.470   .     S
C1192  O1292   1.303   .     A
C1192  O1286   1.303   .     A
C1193  C1194   1.407   .     A
C1193  O1287   1.379   .     S
C1194  C1203   1.481   .     S
C1195  C1214   1.482   .     S
C1197  C134    1.480   1_556 S
C1199  C1222   1.405   .     A
C1200  H1247   1.113   .     S
C1200  H1236   1.108   .     S
C1200  O1298   1.411   .     S
C1200  H1225   1.105   .     S
C1201  H1269   1.108   .     S
C1201  H1258   1.107   .     S
C1201  H1268   1.107   .     S
C1201  O1276   1.405   .     S
C1202  H1271   1.108   .     S
C1202  O1277   1.408   .     S
C1202  H1270   1.104   .     S
C1202  H1272   1.110   .     S
C1203  O1297   1.305   .     A
C1203  O1294   1.307   .     A
C1204  O1278   1.411   .     S
C1204  H1228   1.107   .     S
C1204  H1227   1.105   .     S
C1204  H1226   1.108   .     S
C1205  H1230   1.113   .     S
C1205  O1279   1.409   .     S
C1205  H1231   1.109   .     S
C1205  H1229   1.112   .     S
C1206  H1234   1.109   .     S
C1206  H1232   1.113   .     S
C1206  H1233   1.112   .     S
C1206  O1280   1.409   .     S
C1207  H1235   1.112   .     S
C1207  H1237   1.113   .     S
C1207  O1281   1.409   .     S
C1207  H1238   1.109   .     S
C1208  H1241   1.109   .     S
C1208  H1240   1.112   .     S
C1208  H1239   1.113   .     S
C1208  O1282   1.409   .     S
C1209  H1243   1.109   .     S
C1209  O1283   1.412   .     S
C1209  H1244   1.104   .     S
C1209  H1242   1.116   .     S
C1210  H1246   1.115   .     S
C1210  H1245   1.113   .     S
C1210  O1284   1.412   .     S
C1210  H1248   1.108   .     S
C1211  H1250   1.109   .     S
C1211  H1251   1.105   .     S
C1211  O1285   1.411   .     S
C1211  H1249   1.115   .     S
C1212  H1254   1.115   .     S
C1212  O1287   1.415   .     S
C1212  H1252   1.108   .     S
C1212  H1253   1.111   .     S
C1213  H1255   1.112   .     S
C1213  O1288   1.416   .     S
C1213  H1257   1.107   .     S
C1214  O1296   1.307   .     A
C1214  O1295   1.305   .     A
C1215  H1261   1.113   .     S
C1215  H1260   1.113   .     S
C1215  O1289   1.414   .     S
C1215  H1259   1.107   .     S
C1216  H1262   1.115   .     S
C1216  O1290   1.411   .     S
C1216  H1264   1.106   .     S
C1216  H1263   1.109   .     S
C1217  H1265   1.110   .     S
C1217  H1266   1.105   .     S
C1217  H1267   1.109   .     S
C1217  O1291   1.407   .     S
C1218  N1274   1.369   .     A
C1218  O1298   1.377   .     S
C1218  C1929   1.428   1_545 S
C1219  N1273   1.369   .     A
C1219  O1276   1.389   .     S
C1219  C1574   1.450   .     S
C1220  N1274   1.382   .     A
C1220  O1277   1.385   .     S
C1220  C1927   1.450   1_545 S
C1221  N1273   1.376   .     A
C1221  O1278   1.385   .     S
C1221  C1572   1.428   .     S
C1222  O1288   1.378   .     S
Cu1223 O1294   1.967   .     S
Cu1223 O1275   1.970   .     S
Cu1223 Cu1224  2.703   .     S
Cu1223 O1296   1.967   .     S
Cu1223 O1292   1.977   .     S
Cu1223 N1273   2.031   .     S
Cu1224 O1295   1.967   .     S
Cu1224 O1293   1.977   .     S
Cu1224 O1286   1.970   .     S
Cu1224 O1297   1.967   .     S
Cu1224 N1274   2.031   .     S
H1256  C1331   1.115   .     S
C1299  O1393   1.294   .     A
C1299  O1411   1.309   .     A
C1299  C1317   1.466   .     S
C1300  C1316   1.410   .     A
C1300  O1407   1.381   .     S
C1300  C1066   1.410   1_655 S
C1301  O1408   1.388   .     S
C1301  C1316   1.405   .     A
C1301  C1104   1.405   1_655 S
C1302  C1317   1.411   .     A
C1302  O1409   1.399   .     S
C1303  C1314   1.412   .     A
C1303  O1397   1.383   .     S
C1303  C1307   1.420   .     A
C1304  O1398   1.384   .     S
C1304  C1315   1.407   .     A
C1304  C1308   1.393   .     A
C1305  C1309   1.411   .     A
C1305  C1315   1.412   .     A
C1305  O1399   1.383   .     S
C1306  C1311   1.389   .     A
C1306  C1314   1.407   .     A
C1306  O1400   1.383   .     S
C1307  C1312   1.413   .     A
C1307  O1401   1.390   .     S
C1308  C1313   1.410   .     A
C1308  O1402   1.379   .     S
C1309  C1313   1.412   .     A
C1309  O1403   1.384   .     S
C1310  C1316   1.470   .     S
C1310  O1410   1.303   .     A
C1310  O1404   1.303   .     A
C1311  C1312   1.407   .     A
C1311  O1405   1.379   .     S
C1312  C1321   1.481   .     S
C1313  C1332   1.482   .     S
C1315  C252    1.480   1_556 S
C1317  C1340   1.405   .     A
C1318  H1365   1.113   .     S
C1318  H1354   1.108   .     S
C1318  O1416   1.411   .     S
C1318  H1343   1.105   .     S
C1319  H1387   1.108   .     S
C1319  H1376   1.107   .     S
C1319  H1386   1.107   .     S
C1319  O1394   1.405   .     S
C1320  H1389   1.108   .     S
C1320  O1395   1.408   .     S
C1320  H1388   1.104   .     S
C1320  H1390   1.110   .     S
C1321  O1415   1.305   .     A
C1321  O1412   1.307   .     A
C1322  O1396   1.411   .     S
C1322  H1346   1.107   .     S
C1322  H1345   1.105   .     S
C1322  H1344   1.108   .     S
C1323  H1348   1.113   .     S
C1323  O1397   1.409   .     S
C1323  H1349   1.109   .     S
C1323  H1347   1.112   .     S
C1324  H1352   1.109   .     S
C1324  H1350   1.113   .     S
C1324  H1351   1.112   .     S
C1324  O1398   1.409   .     S
C1325  H1353   1.112   .     S
C1325  H1355   1.113   .     S
C1325  O1399   1.409   .     S
C1325  H1356   1.109   .     S
C1326  H1359   1.109   .     S
C1326  H1358   1.112   .     S
C1326  H1357   1.113   .     S
C1326  O1400   1.409   .     S
C1327  H1361   1.109   .     S
C1327  O1401   1.412   .     S
C1327  H1362   1.104   .     S
C1327  H1360   1.116   .     S
C1328  H1364   1.115   .     S
C1328  H1363   1.113   .     S
C1328  O1402   1.412   .     S
C1328  H1366   1.108   .     S
C1329  H1368   1.109   .     S
C1329  H1369   1.105   .     S
C1329  O1403   1.411   .     S
C1329  H1367   1.115   .     S
C1330  H1372   1.115   .     S
C1330  O1405   1.415   .     S
C1330  H1370   1.108   .     S
C1330  H1371   1.111   .     S
C1331  H1373   1.112   .     S
C1331  O1406   1.416   .     S
C1331  H1375   1.107   .     S
C1332  O1414   1.307   .     A
C1332  O1413   1.305   .     A
C1333  H1379   1.113   .     S
C1333  H1378   1.113   .     S
C1333  O1407   1.414   .     S
C1333  H1377   1.107   .     S
C1334  H1380   1.115   .     S
C1334  O1408   1.411   .     S
C1334  H1382   1.106   .     S
C1334  H1381   1.109   .     S
C1335  H1383   1.110   .     S
C1335  H1384   1.105   .     S
C1335  H1385   1.109   .     S
C1335  O1409   1.407   .     S
C1336  N1392   1.369   .     A
C1336  O1416   1.377   .     S
C1336  C2047   1.428   1_545 S
C1337  N1391   1.369   .     A
C1337  O1394   1.389   .     S
C1337  C1692   1.450   .     S
C1338  N1392   1.382   .     A
C1338  O1395   1.385   .     S
C1338  C2045   1.450   1_545 S
C1339  N1391   1.376   .     A
C1339  O1396   1.385   .     S
C1339  C1690   1.428   .     S
C1340  O1406   1.378   .     S
Cu1341 O1412   1.967   .     S
Cu1341 O1393   1.970   .     S
Cu1341 Cu1342  2.703   .     S
Cu1341 O1414   1.967   .     S
Cu1341 O1410   1.977   .     S
Cu1341 N1391   2.031   .     S
Cu1342 O1413   1.967   .     S
Cu1342 O1411   1.977   .     S
Cu1342 O1404   1.970   .     S
Cu1342 O1415   1.967   .     S
Cu1342 N1392   2.031   .     S
H1374  C1095   1.115   1_655 S
C1417  O1511   1.294   .     A
C1417  O1529   1.309   .     A
C1417  C1435   1.466   .     S
C1418  C1434   1.410   .     A
C1418  O1525   1.381   .     S
C1418  C1538   1.410   .     S
C1419  O1526   1.388   .     S
C1419  C1434   1.405   .     A
C1419  C1576   1.405   .     S
C1420  C1435   1.411   .     A
C1420  O1527   1.399   .     S
C1420  C1654   1.410   1_455 S
C1421  C1432   1.412   .     A
C1421  O1515   1.383   .     S
C1421  C1425   1.420   .     A
C1422  O1516   1.384   .     S
C1422  C1433   1.407   .     A
C1422  C1426   1.393   .     A
C1423  C1427   1.411   .     A
C1423  C1433   1.412   .     A
C1423  O1517   1.383   .     S
C1424  C1429   1.389   .     A
C1424  C1432   1.407   .     A
C1424  O1518   1.383   .     S
C1425  C1430   1.413   .     A
C1425  O1519   1.390   .     S
C1426  C1431   1.410   .     A
C1426  O1520   1.379   .     S
C1427  C1431   1.412   .     A
C1427  O1521   1.384   .     S
C1428  C1434   1.470   .     S
C1428  O1528   1.303   .     A
C1428  O1522   1.303   .     A
C1429  C1430   1.407   .     A
C1429  O1523   1.379   .     S
C1430  C1439   1.481   .     S
C1431  C1450   1.482   .     S
C1433  C370    1.480   1_556 S
C1435  C1458   1.405   .     A
C1436  H1483   1.113   .     S
C1436  H1472   1.108   .     S
C1436  O1534   1.411   .     S
C1436  H1461   1.105   .     S
C1437  H1505   1.108   .     S
C1437  H1494   1.107   .     S
C1437  H1504   1.107   .     S
C1437  O1512   1.405   .     S
C1438  H1507   1.108   .     S
C1438  O1513   1.408   .     S
C1438  H1506   1.104   .     S
C1438  H1508   1.110   .     S
C1439  O1533   1.305   .     A
C1439  O1530   1.307   .     A
C1440  O1514   1.411   .     S
C1440  H1464   1.107   .     S
C1440  H1463   1.105   .     S
C1440  H1462   1.108   .     S
C1441  H1466   1.113   .     S
C1441  O1515   1.409   .     S
C1441  H1467   1.109   .     S
C1441  H1465   1.112   .     S
C1442  H1470   1.109   .     S
C1442  H1468   1.113   .     S
C1442  H1469   1.112   .     S
C1442  O1516   1.409   .     S
C1443  H1471   1.112   .     S
C1443  H1473   1.113   .     S
C1443  O1517   1.409   .     S
C1443  H1474   1.109   .     S
C1444  H1477   1.109   .     S
C1444  H1476   1.112   .     S
C1444  H1475   1.113   .     S
C1444  O1518   1.409   .     S
C1445  H1479   1.109   .     S
C1445  O1519   1.412   .     S
C1445  H1480   1.104   .     S
C1445  H1478   1.116   .     S
C1446  H1482   1.115   .     S
C1446  H1481   1.113   .     S
C1446  O1520   1.412   .     S
C1446  H1484   1.108   .     S
C1447  H1486   1.109   .     S
C1447  H1487   1.105   .     S
C1447  O1521   1.411   .     S
C1447  H1485   1.115   .     S
C1448  H1490   1.115   .     S
C1448  O1523   1.415   .     S
C1448  H1488   1.108   .     S
C1448  H1489   1.111   .     S
C1449  H1491   1.112   .     S
C1449  O1524   1.416   .     S
C1449  H1493   1.107   .     S
C1449  H1728   1.115   1_455 S
C1450  O1532   1.307   .     A
C1450  O1531   1.305   .     A
C1451  H1497   1.113   .     S
C1451  H1496   1.113   .     S
C1451  O1525   1.414   .     S
C1451  H1495   1.107   .     S
C1452  H1498   1.115   .     S
C1452  O1526   1.411   .     S
C1452  H1500   1.106   .     S
C1452  H1499   1.109   .     S
C1453  H1501   1.110   .     S
C1453  H1502   1.105   .     S
C1453  H1503   1.109   .     S
C1453  O1527   1.407   .     S
C1454  N1510   1.369   .     A
C1454  O1534   1.377   .     S
C1455  N1509   1.369   .     A
C1455  O1512   1.389   .     S
C1455  C1810   1.450   .     S
C1456  N1510   1.382   .     A
C1456  O1513   1.385   .     S
C1457  N1509   1.376   .     A
C1457  O1514   1.385   .     S
C1457  C1808   1.428   .     S
C1458  O1524   1.378   .     S
C1458  C1655   1.405   1_455 S
Cu1459 O1530   1.967   .     S
Cu1459 O1511   1.970   .     S
Cu1459 Cu1460  2.703   .     S
Cu1459 O1532   1.967   .     S
Cu1459 O1528   1.977   .     S
Cu1459 N1509   2.031   .     S
Cu1460 O1531   1.967   .     S
Cu1460 O1529   1.977   .     S
Cu1460 O1522   1.970   .     S
Cu1460 O1533   1.967   .     S
Cu1460 N1510   2.031   .     S
H1492  C1567   1.115   .     S
C1535  O1629   1.294   .     A
C1535  O1647   1.309   .     A
C1535  C1553   1.466   .     S
C1536  C1552   1.410   .     A
C1536  O1643   1.381   .     S
C1536  C1656   1.410   .     S
C1537  O1644   1.388   .     S
C1537  C1552   1.405   .     A
C1537  C1694   1.405   .     S
C1538  C1553   1.411   .     A
C1538  O1645   1.399   .     S
C1539  C1550   1.412   .     A
C1539  O1633   1.383   .     S
C1539  C1543   1.420   .     A
C1540  O1634   1.384   .     S
C1540  C1551   1.407   .     A
C1540  C1544   1.393   .     A
C1541  C1545   1.411   .     A
C1541  C1551   1.412   .     A
C1541  O1635   1.383   .     S
C1542  C1547   1.389   .     A
C1542  C1550   1.407   .     A
C1542  O1636   1.383   .     S
C1543  C1548   1.413   .     A
C1543  O1637   1.390   .     S
C1544  C1549   1.410   .     A
C1544  O1638   1.379   .     S
C1545  C1549   1.412   .     A
C1545  O1639   1.384   .     S
C1546  C1552   1.470   .     S
C1546  O1646   1.303   .     A
C1546  O1640   1.303   .     A
C1547  C1548   1.407   .     A
C1547  O1641   1.379   .     S
C1548  C1557   1.481   .     S
C1549  C1568   1.482   .     S
C1551  C488    1.480   1_556 S
C1553  C1576   1.405   .     A
C1554  H1601   1.113   .     S
C1554  H1590   1.108   .     S
C1554  O1652   1.411   .     S
C1554  H1579   1.105   .     S
C1555  H1623   1.108   .     S
C1555  H1612   1.107   .     S
C1555  H1622   1.107   .     S
C1555  O1630   1.405   .     S
C1556  H1625   1.108   .     S
C1556  O1631   1.408   .     S
C1556  H1624   1.104   .     S
C1556  H1626   1.110   .     S
C1557  O1651   1.305   .     A
C1557  O1648   1.307   .     A
C1558  O1632   1.411   .     S
C1558  H1582   1.107   .     S
C1558  H1581   1.105   .     S
C1558  H1580   1.108   .     S
C1559  H1584   1.113   .     S
C1559  O1633   1.409   .     S
C1559  H1585   1.109   .     S
C1559  H1583   1.112   .     S
C1560  H1588   1.109   .     S
C1560  H1586   1.113   .     S
C1560  H1587   1.112   .     S
C1560  O1634   1.409   .     S
C1561  H1589   1.112   .     S
C1561  H1591   1.113   .     S
C1561  O1635   1.409   .     S
C1561  H1592   1.109   .     S
C1562  H1595   1.109   .     S
C1562  H1594   1.112   .     S
C1562  H1593   1.113   .     S
C1562  O1636   1.409   .     S
C1563  H1597   1.109   .     S
C1563  O1637   1.412   .     S
C1563  H1598   1.104   .     S
C1563  H1596   1.116   .     S
C1564  H1600   1.115   .     S
C1564  H1599   1.113   .     S
C1564  O1638   1.412   .     S
C1564  H1602   1.108   .     S
C1565  H1604   1.109   .     S
C1565  H1605   1.105   .     S
C1565  O1639   1.411   .     S
C1565  H1603   1.115   .     S
C1566  H1608   1.115   .     S
C1566  O1641   1.415   .     S
C1566  H1606   1.108   .     S
C1566  H1607   1.111   .     S
C1567  H1609   1.112   .     S
C1567  O1642   1.416   .     S
C1567  H1611   1.107   .     S
C1568  O1650   1.307   .     A
C1568  O1649   1.305   .     A
C1569  H1615   1.113   .     S
C1569  H1614   1.113   .     S
C1569  O1643   1.414   .     S
C1569  H1613   1.107   .     S
C1570  H1616   1.115   .     S
C1570  O1644   1.411   .     S
C1570  H1618   1.106   .     S
C1570  H1617   1.109   .     S
C1571  H1619   1.110   .     S
C1571  H1620   1.105   .     S
C1571  H1621   1.109   .     S
C1571  O1645   1.407   .     S
C1572  N1628   1.369   .     A
C1572  O1652   1.377   .     S
C1573  N1627   1.369   .     A
C1573  O1630   1.389   .     S
C1573  C1928   1.450   .     S
C1574  N1628   1.382   .     A
C1574  O1631   1.385   .     S
C1575  N1627   1.376   .     A
C1575  O1632   1.385   .     S
C1575  C1926   1.428   .     S
C1576  O1642   1.378   .     S
Cu1577 O1648   1.967   .     S
Cu1577 O1629   1.970   .     S
Cu1577 Cu1578  2.703   .     S
Cu1577 O1650   1.967   .     S
Cu1577 O1646   1.977   .     S
Cu1577 N1627   2.031   .     S
Cu1578 O1649   1.967   .     S
Cu1578 O1647   1.977   .     S
Cu1578 O1640   1.970   .     S
Cu1578 O1651   1.967   .     S
Cu1578 N1628   2.031   .     S
H1610  C1685   1.115   .     S
C1653  O1747   1.294   .     A
C1653  O1765   1.309   .     A
C1653  C1671   1.466   .     S
C1654  C1670   1.410   .     A
C1654  O1761   1.381   .     S
C1654  C1420   1.410   1_655 S
C1655  O1762   1.388   .     S
C1655  C1670   1.405   .     A
C1655  C1458   1.405   1_655 S
C1656  C1671   1.411   .     A
C1656  O1763   1.399   .     S
C1657  C1668   1.412   .     A
C1657  O1751   1.383   .     S
C1657  C1661   1.420   .     A
C1658  O1752   1.384   .     S
C1658  C1669   1.407   .     A
C1658  C1662   1.393   .     A
C1659  C1663   1.411   .     A
C1659  C1669   1.412   .     A
C1659  O1753   1.383   .     S
C1660  C1665   1.389   .     A
C1660  C1668   1.407   .     A
C1660  O1754   1.383   .     S
C1661  C1666   1.413   .     A
C1661  O1755   1.390   .     S
C1662  C1667   1.410   .     A
C1662  O1756   1.379   .     S
C1663  C1667   1.412   .     A
C1663  O1757   1.384   .     S
C1664  C1670   1.470   .     S
C1664  O1764   1.303   .     A
C1664  O1758   1.303   .     A
C1665  C1666   1.407   .     A
C1665  O1759   1.379   .     S
C1666  C1675   1.481   .     S
C1667  C1686   1.482   .     S
C1669  C606    1.480   1_556 S
C1671  C1694   1.405   .     A
C1672  H1719   1.113   .     S
C1672  H1708   1.108   .     S
C1672  O1770   1.411   .     S
C1672  H1697   1.105   .     S
C1673  H1741   1.108   .     S
C1673  H1730   1.107   .     S
C1673  H1740   1.107   .     S
C1673  O1748   1.405   .     S
C1674  H1743   1.108   .     S
C1674  O1749   1.408   .     S
C1674  H1742   1.104   .     S
C1674  H1744   1.110   .     S
C1675  O1769   1.305   .     A
C1675  O1766   1.307   .     A
C1676  O1750   1.411   .     S
C1676  H1700   1.107   .     S
C1676  H1699   1.105   .     S
C1676  H1698   1.108   .     S
C1677  H1702   1.113   .     S
C1677  O1751   1.409   .     S
C1677  H1703   1.109   .     S
C1677  H1701   1.112   .     S
C1678  H1706   1.109   .     S
C1678  H1704   1.113   .     S
C1678  H1705   1.112   .     S
C1678  O1752   1.409   .     S
C1679  H1707   1.112   .     S
C1679  H1709   1.113   .     S
C1679  O1753   1.409   .     S
C1679  H1710   1.109   .     S
C1680  H1713   1.109   .     S
C1680  H1712   1.112   .     S
C1680  H1711   1.113   .     S
C1680  O1754   1.409   .     S
C1681  H1715   1.109   .     S
C1681  O1755   1.412   .     S
C1681  H1716   1.104   .     S
C1681  H1714   1.116   .     S
C1682  H1718   1.115   .     S
C1682  H1717   1.113   .     S
C1682  O1756   1.412   .     S
C1682  H1720   1.108   .     S
C1683  H1722   1.109   .     S
C1683  H1723   1.105   .     S
C1683  O1757   1.411   .     S
C1683  H1721   1.115   .     S
C1684  H1726   1.115   .     S
C1684  O1759   1.415   .     S
C1684  H1724   1.108   .     S
C1684  H1725   1.111   .     S
C1685  H1727   1.112   .     S
C1685  O1760   1.416   .     S
C1685  H1729   1.107   .     S
C1686  O1768   1.307   .     A
C1686  O1767   1.305   .     A
C1687  H1733   1.113   .     S
C1687  H1732   1.113   .     S
C1687  O1761   1.414   .     S
C1687  H1731   1.107   .     S
C1688  H1734   1.115   .     S
C1688  O1762   1.411   .     S
C1688  H1736   1.106   .     S
C1688  H1735   1.109   .     S
C1689  H1737   1.110   .     S
C1689  H1738   1.105   .     S
C1689  H1739   1.109   .     S
C1689  O1763   1.407   .     S
C1690  N1746   1.369   .     A
C1690  O1770   1.377   .     S
C1691  N1745   1.369   .     A
C1691  O1748   1.389   .     S
C1691  C2046   1.450   .     S
C1692  N1746   1.382   .     A
C1692  O1749   1.385   .     S
C1693  N1745   1.376   .     A
C1693  O1750   1.385   .     S
C1693  C2044   1.428   .     S
C1694  O1760   1.378   .     S
Cu1695 O1766   1.967   .     S
Cu1695 O1747   1.970   .     S
Cu1695 Cu1696  2.703   .     S
Cu1695 O1768   1.967   .     S
Cu1695 O1764   1.977   .     S
Cu1695 N1745   2.031   .     S
Cu1696 O1767   1.967   .     S
Cu1696 O1765   1.977   .     S
Cu1696 O1758   1.970   .     S
Cu1696 O1769   1.967   .     S
Cu1696 N1746   2.031   .     S
H1728  C1449   1.115   1_655 S
C1771  O1865   1.294   .     A
C1771  O1883   1.309   .     A
C1771  C1789   1.466   .     S
C1772  C1788   1.410   .     A
C1772  O1879   1.381   .     S
C1772  C1892   1.410   .     S
C1773  O1880   1.388   .     S
C1773  C1788   1.405   .     A
C1773  C1930   1.405   .     S
C1774  C1789   1.411   .     A
C1774  O1881   1.399   .     S
C1774  C2008   1.410   1_455 S
C1775  C1786   1.412   .     A
C1775  O1869   1.383   .     S
C1775  C1779   1.420   .     A
C1776  O1870   1.384   .     S
C1776  C1787   1.407   .     A
C1776  C1780   1.393   .     A
C1777  C1781   1.411   .     A
C1777  C1787   1.412   .     A
C1777  O1871   1.383   .     S
C1778  C1783   1.389   .     A
C1778  C1786   1.407   .     A
C1778  O1872   1.383   .     S
C1779  C1784   1.413   .     A
C1779  O1873   1.390   .     S
C1780  C1785   1.410   .     A
C1780  O1874   1.379   .     S
C1781  C1785   1.412   .     A
C1781  O1875   1.384   .     S
C1782  C1788   1.470   .     S
C1782  O1882   1.303   .     A
C1782  O1876   1.303   .     A
C1783  C1784   1.407   .     A
C1783  O1877   1.379   .     S
C1784  C1793   1.481   .     S
C1785  C1804   1.482   .     S
C1787  C724    1.480   1_556 S
C1789  C1812   1.405   .     A
C1790  H1837   1.113   .     S
C1790  H1826   1.108   .     S
C1790  O1888   1.411   .     S
C1790  H1815   1.105   .     S
C1791  H1859   1.108   .     S
C1791  H1848   1.107   .     S
C1791  H1858   1.107   .     S
C1791  O1866   1.405   .     S
C1792  H1861   1.108   .     S
C1792  O1867   1.408   .     S
C1792  H1860   1.104   .     S
C1792  H1862   1.110   .     S
C1793  O1887   1.305   .     A
C1793  O1884   1.307   .     A
C1794  O1868   1.411   .     S
C1794  H1818   1.107   .     S
C1794  H1817   1.105   .     S
C1794  H1816   1.108   .     S
C1795  H1820   1.113   .     S
C1795  O1869   1.409   .     S
C1795  H1821   1.109   .     S
C1795  H1819   1.112   .     S
C1796  H1824   1.109   .     S
C1796  H1822   1.113   .     S
C1796  H1823   1.112   .     S
C1796  O1870   1.409   .     S
C1797  H1825   1.112   .     S
C1797  H1827   1.113   .     S
C1797  O1871   1.409   .     S
C1797  H1828   1.109   .     S
C1798  H1831   1.109   .     S
C1798  H1830   1.112   .     S
C1798  H1829   1.113   .     S
C1798  O1872   1.409   .     S
C1799  H1833   1.109   .     S
C1799  O1873   1.412   .     S
C1799  H1834   1.104   .     S
C1799  H1832   1.116   .     S
C1800  H1836   1.115   .     S
C1800  H1835   1.113   .     S
C1800  O1874   1.412   .     S
C1800  H1838   1.108   .     S
C1801  H1840   1.109   .     S
C1801  H1841   1.105   .     S
C1801  O1875   1.411   .     S
C1801  H1839   1.115   .     S
C1802  H1844   1.115   .     S
C1802  O1877   1.415   .     S
C1802  H1842   1.108   .     S
C1802  H1843   1.111   .     S
C1803  H1845   1.112   .     S
C1803  O1878   1.416   .     S
C1803  H1847   1.107   .     S
C1803  H2082   1.115   1_455 S
C1804  O1886   1.307   .     A
C1804  O1885   1.305   .     A
C1805  H1851   1.113   .     S
C1805  H1850   1.113   .     S
C1805  O1879   1.414   .     S
C1805  H1849   1.107   .     S
C1806  H1852   1.115   .     S
C1806  O1880   1.411   .     S
C1806  H1854   1.106   .     S
C1806  H1853   1.109   .     S
C1807  H1855   1.110   .     S
C1807  H1856   1.105   .     S
C1807  H1857   1.109   .     S
C1807  O1881   1.407   .     S
C1808  N1864   1.369   .     A
C1808  O1888   1.377   .     S
C1809  N1863   1.369   .     A
C1809  O1866   1.389   .     S
C1809  C1102   1.450   1_565 S
C1810  N1864   1.382   .     A
C1810  O1867   1.385   .     S
C1811  N1863   1.376   .     A
C1811  O1868   1.385   .     S
C1811  C1100   1.428   1_565 S
C1812  O1878   1.378   .     S
C1812  C2009   1.405   1_455 S
Cu1813 O1884   1.967   .     S
Cu1813 O1865   1.970   .     S
Cu1813 Cu1814  2.703   .     S
Cu1813 O1886   1.967   .     S
Cu1813 O1882   1.977   .     S
Cu1813 N1863   2.031   .     S
Cu1814 O1885   1.967   .     S
Cu1814 O1883   1.977   .     S
Cu1814 O1876   1.970   .     S
Cu1814 O1887   1.967   .     S
Cu1814 N1864   2.031   .     S
H1846  C1921   1.115   .     S
C1889  O1983   1.294   .     A
C1889  O2001   1.309   .     A
C1889  C1907   1.466   .     S
C1890  C1906   1.410   .     A
C1890  O1997   1.381   .     S
C1890  C2010   1.410   .     S
C1891  O1998   1.388   .     S
C1891  C1906   1.405   .     A
C1891  C2048   1.405   .     S
C1892  C1907   1.411   .     A
C1892  O1999   1.399   .     S
C1893  C1904   1.412   .     A
C1893  O1987   1.383   .     S
C1893  C1897   1.420   .     A
C1894  O1988   1.384   .     S
C1894  C1905   1.407   .     A
C1894  C1898   1.393   .     A
C1895  C1899   1.411   .     A
C1895  C1905   1.412   .     A
C1895  O1989   1.383   .     S
C1896  C1901   1.389   .     A
C1896  C1904   1.407   .     A
C1896  O1990   1.383   .     S
C1897  C1902   1.413   .     A
C1897  O1991   1.390   .     S
C1898  C1903   1.410   .     A
C1898  O1992   1.379   .     S
C1899  C1903   1.412   .     A
C1899  O1993   1.384   .     S
C1900  C1906   1.470   .     S
C1900  O2000   1.303   .     A
C1900  O1994   1.303   .     A
C1901  C1902   1.407   .     A
C1901  O1995   1.379   .     S
C1902  C1911   1.481   .     S
C1903  C1922   1.482   .     S
C1905  C842    1.480   1_556 S
C1907  C1930   1.405   .     A
C1908  H1955   1.113   .     S
C1908  H1944   1.108   .     S
C1908  O2006   1.411   .     S
C1908  H1933   1.105   .     S
C1909  H1977   1.108   .     S
C1909  H1966   1.107   .     S
C1909  H1976   1.107   .     S
C1909  O1984   1.405   .     S
C1910  H1979   1.108   .     S
C1910  O1985   1.408   .     S
C1910  H1978   1.104   .     S
C1910  H1980   1.110   .     S
C1911  O2005   1.305   .     A
C1911  O2002   1.307   .     A
C1912  O1986   1.411   .     S
C1912  H1936   1.107   .     S
C1912  H1935   1.105   .     S
C1912  H1934   1.108   .     S
C1913  H1938   1.113   .     S
C1913  O1987   1.409   .     S
C1913  H1939   1.109   .     S
C1913  H1937   1.112   .     S
C1914  H1942   1.109   .     S
C1914  H1940   1.113   .     S
C1914  H1941   1.112   .     S
C1914  O1988   1.409   .     S
C1915  H1943   1.112   .     S
C1915  H1945   1.113   .     S
C1915  O1989   1.409   .     S
C1915  H1946   1.109   .     S
C1916  H1949   1.109   .     S
C1916  H1948   1.112   .     S
C1916  H1947   1.113   .     S
C1916  O1990   1.409   .     S
C1917  H1951   1.109   .     S
C1917  O1991   1.412   .     S
C1917  H1952   1.104   .     S
C1917  H1950   1.116   .     S
C1918  H1954   1.115   .     S
C1918  H1953   1.113   .     S
C1918  O1992   1.412   .     S
C1918  H1956   1.108   .     S
C1919  H1958   1.109   .     S
C1919  H1959   1.105   .     S
C1919  O1993   1.411   .     S
C1919  H1957   1.115   .     S
C1920  H1962   1.115   .     S
C1920  O1995   1.415   .     S
C1920  H1960   1.108   .     S
C1920  H1961   1.111   .     S
C1921  H1963   1.112   .     S
C1921  O1996   1.416   .     S
C1921  H1965   1.107   .     S
C1922  O2004   1.307   .     A
C1922  O2003   1.305   .     A
C1923  H1969   1.113   .     S
C1923  H1968   1.113   .     S
C1923  O1997   1.414   .     S
C1923  H1967   1.107   .     S
C1924  H1970   1.115   .     S
C1924  O1998   1.411   .     S
C1924  H1972   1.106   .     S
C1924  H1971   1.109   .     S
C1925  H1973   1.110   .     S
C1925  H1974   1.105   .     S
C1925  H1975   1.109   .     S
C1925  O1999   1.407   .     S
C1926  N1982   1.369   .     A
C1926  O2006   1.377   .     S
C1927  N1981   1.369   .     A
C1927  O1984   1.389   .     S
C1927  C1220   1.450   1_565 S
C1928  N1982   1.382   .     A
C1928  O1985   1.385   .     S
C1929  N1981   1.376   .     A
C1929  O1986   1.385   .     S
C1929  C1218   1.428   1_565 S
C1930  O1996   1.378   .     S
Cu1931 O2002   1.967   .     S
Cu1931 O1983   1.970   .     S
Cu1931 Cu1932  2.703   .     S
Cu1931 O2004   1.967   .     S
Cu1931 O2000   1.977   .     S
Cu1931 N1981   2.031   .     S
Cu1932 O2003   1.967   .     S
Cu1932 O2001   1.977   .     S
Cu1932 O1994   1.970   .     S
Cu1932 O2005   1.967   .     S
Cu1932 N1982   2.031   .     S
H1964  C2039   1.115   .     S
C2007  O2101   1.294   .     A
C2007  O2119   1.309   .     A
C2007  C2025   1.466   .     S
C2008  C2024   1.410   .     A
C2008  O2115   1.381   .     S
C2008  C1774   1.410   1_655 S
C2009  O2116   1.388   .     S
C2009  C2024   1.405   .     A
C2009  C1812   1.405   1_655 S
C2010  C2025   1.411   .     A
C2010  O2117   1.399   .     S
C2011  C2022   1.412   .     A
C2011  O2105   1.383   .     S
C2011  C2015   1.420   .     A
C2012  O2106   1.384   .     S
C2012  C2023   1.407   .     A
C2012  C2016   1.393   .     A
C2013  C2017   1.411   .     A
C2013  C2023   1.412   .     A
C2013  O2107   1.383   .     S
C2014  C2019   1.389   .     A
C2014  C2022   1.407   .     A
C2014  O2108   1.383   .     S
C2015  C2020   1.413   .     A
C2015  O2109   1.390   .     S
C2016  C2021   1.410   .     A
C2016  O2110   1.379   .     S
C2017  C2021   1.412   .     A
C2017  O2111   1.384   .     S
C2018  C2024   1.470   .     S
C2018  O2118   1.303   .     A
C2018  O2112   1.303   .     A
C2019  C2020   1.407   .     A
C2019  O2113   1.379   .     S
C2020  C2029   1.481   .     S
C2021  C2040   1.482   .     S
C2023  C960    1.480   1_556 S
C2025  C2048   1.405   .     A
C2026  H2073   1.113   .     S
C2026  H2062   1.108   .     S
C2026  O2124   1.411   .     S
C2026  H2051   1.105   .     S
C2027  H2095   1.108   .     S
C2027  H2084   1.107   .     S
C2027  H2094   1.107   .     S
C2027  O2102   1.405   .     S
C2028  H2097   1.108   .     S
C2028  O2103   1.408   .     S
C2028  H2096   1.104   .     S
C2028  H2098   1.110   .     S
C2029  O2123   1.305   .     A
C2029  O2120   1.307   .     A
C2030  O2104   1.411   .     S
C2030  H2054   1.107   .     S
C2030  H2053   1.105   .     S
C2030  H2052   1.108   .     S
C2031  H2056   1.113   .     S
C2031  O2105   1.409   .     S
C2031  H2057   1.109   .     S
C2031  H2055   1.112   .     S
C2032  H2060   1.109   .     S
C2032  H2058   1.113   .     S
C2032  H2059   1.112   .     S
C2032  O2106   1.409   .     S
C2033  H2061   1.112   .     S
C2033  H2063   1.113   .     S
C2033  O2107   1.409   .     S
C2033  H2064   1.109   .     S
C2034  H2067   1.109   .     S
C2034  H2066   1.112   .     S
C2034  H2065   1.113   .     S
C2034  O2108   1.409   .     S
C2035  H2069   1.109   .     S
C2035  O2109   1.412   .     S
C2035  H2070   1.104   .     S
C2035  H2068   1.116   .     S
C2036  H2072   1.115   .     S
C2036  H2071   1.113   .     S
C2036  O2110   1.412   .     S
C2036  H2074   1.108   .     S
C2037  H2076   1.109   .     S
C2037  H2077   1.105   .     S
C2037  O2111   1.411   .     S
C2037  H2075   1.115   .     S
C2038  H2080   1.115   .     S
C2038  O2113   1.415   .     S
C2038  H2078   1.108   .     S
C2038  H2079   1.111   .     S
C2039  H2081   1.112   .     S
C2039  O2114   1.416   .     S
C2039  H2083   1.107   .     S
C2040  O2122   1.307   .     A
C2040  O2121   1.305   .     A
C2041  H2087   1.113   .     S
C2041  H2086   1.113   .     S
C2041  O2115   1.414   .     S
C2041  H2085   1.107   .     S
C2042  H2088   1.115   .     S
C2042  O2116   1.411   .     S
C2042  H2090   1.106   .     S
C2042  H2089   1.109   .     S
C2043  H2091   1.110   .     S
C2043  H2092   1.105   .     S
C2043  H2093   1.109   .     S
C2043  O2117   1.407   .     S
C2044  N2100   1.369   .     A
C2044  O2124   1.377   .     S
C2045  N2099   1.369   .     A
C2045  O2102   1.389   .     S
C2045  C1338   1.450   1_565 S
C2046  N2100   1.382   .     A
C2046  O2103   1.385   .     S
C2047  N2099   1.376   .     A
C2047  O2104   1.385   .     S
C2047  C1336   1.428   1_565 S
C2048  O2114   1.378   .     S
Cu2049 O2120   1.967   .     S
Cu2049 O2101   1.970   .     S
Cu2049 Cu2050  2.703   .     S
Cu2049 O2122   1.967   .     S
Cu2049 O2118   1.977   .     S
Cu2049 N2099   2.031   .     S
Cu2050 O2121   1.967   .     S
Cu2050 O2119   1.977   .     S
Cu2050 O2112   1.970   .     S
Cu2050 O2123   1.967   .     S
Cu2050 N2100   2.031   .     S
H2082  C1803   1.115   1_655 S
