data_str_m3_o1_o18_pcu_sym.57
_audit_creation_date              2020-01-03
_audit_creation_method            'Materials Studio'
_symmetry_space_group_name_H-M    'P1'
_symmetry_Int_Tables_number       1
_symmetry_cell_setting            triclinic
loop_
_symmetry_equiv_pos_as_xyz
  x,y,z
_cell_length_a                    29.7533
_cell_length_b                    31.9877
_cell_length_c                    31.0136
_cell_angle_alpha                 90.2200
_cell_angle_beta                  67.6322
_cell_angle_gamma                 89.0159
loop_
_atom_site_label
_atom_site_type_symbol
_atom_site_fract_x
_atom_site_fract_y
_atom_site_fract_z
_atom_site_U_iso_or_equiv
_atom_site_adp_type
_atom_site_occupancy
O1     O     0.12846   0.22775   0.25001   0.00000  Uiso   1.00
O2     O     0.20488   0.10558   0.25000   0.00000  Uiso   1.00
O3     O     0.20490   0.22774   0.25000   0.00000  Uiso   1.00
O4     O     0.12843   0.10559   0.25000   0.00000  Uiso   1.00
C5     C     0.16653   0.24654   0.24961   0.00000  Uiso   1.00
C6     C     0.16675   0.08680   0.25048   0.00000  Uiso   1.00
O7     O     0.10661   0.16667   0.31613   0.00000  Uiso   1.00
O8     O     0.22672   0.16666   0.18388   0.00000  Uiso   1.00
O9     O     0.18305   0.16666   0.31612   0.00000  Uiso   1.00
O10    O     0.15028   0.16667   0.18388   0.00000  Uiso   1.00
C11    C     0.13618   0.16729   0.33797   0.00000  Uiso   1.00
C12    C     0.19716   0.16747   0.16211   0.00000  Uiso   1.00
Zn13   Zn    0.11562   0.16667   0.25000   0.00000  Uiso   1.00
Zn14   Zn    0.21771   0.16666   0.25000   0.00000  Uiso   1.00
C15    C     0.11712   0.16930   0.38882   0.00000  Uiso   1.00
C16    C     0.21568   0.17485   0.11212   0.00000  Uiso   1.00
C17    C     0.05366   0.15928   0.46441   0.00000  Uiso   1.00
C18    C     0.26831   0.21137   0.04409   0.00000  Uiso   1.00
C19    C     0.06863   0.16114   0.41608   0.00000  Uiso   1.00
C20    C     0.25687   0.19869   0.08993   0.00000  Uiso   1.00
C21    C     0.14930   0.17893   0.41011   0.00000  Uiso   1.00
C22    C     0.18601   0.16436   0.08870   0.00000  Uiso   1.00
C23    C     0.13496   0.17858   0.45845   0.00000  Uiso   1.00
C24    C     0.19248   0.18209   0.04572   0.00000  Uiso   1.00
C25    C     0.08719   0.16547   0.48594   0.00000  Uiso   1.00
C26    C     0.23577   0.20416   0.02170   0.00000  Uiso   1.00
C27    C     0.16829   0.18852   0.47946   0.00000  Uiso   1.00
C28    C     0.15670   0.17811   0.02641   0.00000  Uiso   1.00
C29    C     0.10907   0.16547   0.05342   0.00000  Uiso   1.00
C30    C     0.21219   0.20952   0.45533   0.00000  Uiso   1.00
C31    C     0.07444   0.15917   0.03401   0.00000  Uiso   1.00
C32    C     0.24504   0.21845   0.47631   0.00000  Uiso   1.00
H33    H     0.15685   0.14312   0.10562   0.00000  Uiso   1.00
H34    H     0.18664   0.18439   0.38812   0.00000  Uiso   1.00
H35    H     0.27903   0.20891   0.10850   0.00000  Uiso   1.00
H36    H     0.04279   0.15483   0.40007   0.00000  Uiso   1.00
H37    H     0.01600   0.15247   0.48433   0.00000  Uiso   1.00
H38    H     0.30168   0.22803   0.02731   0.00000  Uiso   1.00
H39    H     0.09724   0.16126   0.09055   0.00000  Uiso   1.00
H40    H     0.22030   0.22221   0.42105   0.00000  Uiso   1.00
C41    C     0.18843   0.31090   0.27582   0.00000  Uiso   1.00
C42    C     0.14441   0.02246   0.22477   0.00000  Uiso   1.00
H43    H     0.20456   0.29321   0.29627   0.00000  Uiso   1.00
H44    H     0.12832   0.04011   0.20428   0.00000  Uiso   1.00
C45    C     0.18826   0.02057   0.27754   0.00000  Uiso   1.00
C46    C     0.14438   0.31281   0.22322   0.00000  Uiso   1.00
C47    C     0.16664   0.04264   0.25120   0.00000  Uiso   1.00
C48    C     0.16635   0.29071   0.24925   0.00000  Uiso   1.00
C49    C     0.31586   0.13170   0.23655   0.00000  Uiso   1.00
C50    C     0.01691   0.20102   0.26586   0.00000  Uiso   1.00
C51    C     0.03053   0.13233   0.23573   0.00000  Uiso   1.00
C52    C     0.30266   0.20098   0.26465   0.00000  Uiso   1.00
H53    H     0.05365   0.10468   0.22468   0.00000  Uiso   1.00
H54    H     0.27835   0.22768   0.27701   0.00000  Uiso   1.00
N55    N     0.04759   0.16668   0.25001   0.00000  Uiso   1.00
N56    N     0.28574   0.16666   0.24999   0.00000  Uiso   1.00
N57    N     0.02760   0.14441   0.06373   0.00000  Uiso   1.00
O58    O     0.00949   0.11177   0.05158   0.00000  Uiso   1.00
O59    O     0.00900   0.15698   0.10699   0.00000  Uiso   1.00
N60    N     0.28732   0.24220   0.45089   0.00000  Uiso   1.00
O61    O     0.31187   0.23399   0.40695   0.00000  Uiso   1.00
O62    O     0.29589   0.27652   0.46884   0.00000  Uiso   1.00
N63    N     0.20883   0.04131   0.30625   0.00000  Uiso   1.00
H64    H     0.23759   0.02516   0.30967   0.00000  Uiso   1.00
C65    C     0.17366   0.05564   0.35082   0.00000  Uiso   1.00
H66    H     0.15669   0.02846   0.37291   0.00000  Uiso   1.00
H67    H     0.14484   0.07543   0.34614   0.00000  Uiso   1.00
H68    H     0.19215   0.07470   0.36894   0.00000  Uiso   1.00
N69    N     0.12347   0.29210   0.19480   0.00000  Uiso   1.00
H70    H     0.09399   0.30790   0.19240   0.00000  Uiso   1.00
C71    C     0.15828   0.27898   0.14956   0.00000  Uiso   1.00
H72    H     0.17396   0.30672   0.12793   0.00000  Uiso   1.00
H73    H     0.13992   0.25968   0.13153   0.00000  Uiso   1.00
H74    H     0.18807   0.25988   0.15325   0.00000  Uiso   1.00
N75    N     0.29800   0.09310   0.22770   0.00000  Uiso   1.00
H76    H     0.30792   0.06818   0.24342   0.00000  Uiso   1.00
C77    C     0.30790   0.08427   0.17921   0.00000  Uiso   1.00
H78    H     0.29383   0.05299   0.17588   0.00000  Uiso   1.00
H79    H     0.01433   0.08435   0.15834   0.00000  Uiso   1.00
H80    H     0.28894   0.10751   0.16551   0.00000  Uiso   1.00
N81    N     0.03247   0.23537   0.28575   0.00000  Uiso   1.00
H82    H     0.04351   0.22726   0.31237   0.00000  Uiso   1.00
C83    C     0.00763   0.27558   0.29177   0.00000  Uiso   1.00
H84    H     0.02940   0.29955   0.30061   0.00000  Uiso   1.00
H85    H     0.30475   0.27439   0.32073   0.00000  Uiso   1.00
H86    H     0.00372   0.28503   0.25891   0.00000  Uiso   1.00
O87    O     0.46179   0.22775   0.25001   0.00000  Uiso   1.00
O88    O     0.53821   0.10558   0.25000   0.00000  Uiso   1.00
O89    O     0.53823   0.22774   0.25000   0.00000  Uiso   1.00
O90    O     0.46177   0.10559   0.25000   0.00000  Uiso   1.00
C91    C     0.49987   0.24654   0.24961   0.00000  Uiso   1.00
C92    C     0.50008   0.08680   0.25048   0.00000  Uiso   1.00
O93    O     0.43994   0.16667   0.31613   0.00000  Uiso   1.00
O94    O     0.56006   0.16666   0.18388   0.00000  Uiso   1.00
O95    O     0.51639   0.16666   0.31612   0.00000  Uiso   1.00
O96    O     0.48361   0.16667   0.18388   0.00000  Uiso   1.00
C97    C     0.46951   0.16729   0.33797   0.00000  Uiso   1.00
C98    C     0.53049   0.16747   0.16211   0.00000  Uiso   1.00
Zn99   Zn    0.44896   0.16667   0.25000   0.00000  Uiso   1.00
Zn100  Zn    0.55104   0.16666   0.25000   0.00000  Uiso   1.00
C101   C     0.45045   0.16930   0.38882   0.00000  Uiso   1.00
C102   C     0.54902   0.17485   0.11212   0.00000  Uiso   1.00
C103   C     0.38699   0.15928   0.46441   0.00000  Uiso   1.00
C104   C     0.60164   0.21137   0.04409   0.00000  Uiso   1.00
C105   C     0.40196   0.16114   0.41608   0.00000  Uiso   1.00
C106   C     0.59020   0.19869   0.08993   0.00000  Uiso   1.00
C107   C     0.48263   0.17893   0.41011   0.00000  Uiso   1.00
C108   C     0.51934   0.16436   0.08870   0.00000  Uiso   1.00
C109   C     0.46829   0.17858   0.45845   0.00000  Uiso   1.00
C110   C     0.52581   0.18209   0.04572   0.00000  Uiso   1.00
C111   C     0.42052   0.16547   0.48594   0.00000  Uiso   1.00
C112   C     0.56910   0.20416   0.02170   0.00000  Uiso   1.00
C113   C     0.50162   0.18852   0.47946   0.00000  Uiso   1.00
C114   C     0.49003   0.17811   0.02641   0.00000  Uiso   1.00
C115   C     0.44241   0.16547   0.05342   0.00000  Uiso   1.00
C116   C     0.54553   0.20952   0.45533   0.00000  Uiso   1.00
C117   C     0.40778   0.15917   0.03401   0.00000  Uiso   1.00
C118   C     0.57837   0.21845   0.47631   0.00000  Uiso   1.00
H119   H     0.49018   0.14312   0.10562   0.00000  Uiso   1.00
H120   H     0.51997   0.18439   0.38812   0.00000  Uiso   1.00
H121   H     0.61237   0.20891   0.10850   0.00000  Uiso   1.00
H122   H     0.37613   0.15483   0.40007   0.00000  Uiso   1.00
H123   H     0.34934   0.15247   0.48433   0.00000  Uiso   1.00
H124   H     0.63501   0.22803   0.02731   0.00000  Uiso   1.00
H125   H     0.43058   0.16126   0.09055   0.00000  Uiso   1.00
H126   H     0.55363   0.22221   0.42105   0.00000  Uiso   1.00
C127   C     0.52177   0.31090   0.27582   0.00000  Uiso   1.00
C128   C     0.47775   0.02246   0.22477   0.00000  Uiso   1.00
H129   H     0.53790   0.29321   0.29627   0.00000  Uiso   1.00
H130   H     0.46165   0.04011   0.20428   0.00000  Uiso   1.00
C131   C     0.52160   0.02057   0.27754   0.00000  Uiso   1.00
C132   C     0.47772   0.31281   0.22322   0.00000  Uiso   1.00
C133   C     0.49998   0.04264   0.25120   0.00000  Uiso   1.00
C134   C     0.49969   0.29071   0.24925   0.00000  Uiso   1.00
C135   C     0.64919   0.13170   0.23655   0.00000  Uiso   1.00
C136   C     0.35025   0.20102   0.26586   0.00000  Uiso   1.00
C137   C     0.36386   0.13233   0.23573   0.00000  Uiso   1.00
C138   C     0.63599   0.20098   0.26465   0.00000  Uiso   1.00
H139   H     0.38698   0.10468   0.22468   0.00000  Uiso   1.00
H140   H     0.61168   0.22768   0.27701   0.00000  Uiso   1.00
N141   N     0.38093   0.16668   0.25001   0.00000  Uiso   1.00
N142   N     0.61907   0.16666   0.24999   0.00000  Uiso   1.00
N143   N     0.36093   0.14441   0.06373   0.00000  Uiso   1.00
O144   O     0.34283   0.11177   0.05158   0.00000  Uiso   1.00
O145   O     0.34234   0.15698   0.10699   0.00000  Uiso   1.00
N146   N     0.62065   0.24220   0.45089   0.00000  Uiso   1.00
O147   O     0.64521   0.23399   0.40695   0.00000  Uiso   1.00
O148   O     0.62922   0.27652   0.46884   0.00000  Uiso   1.00
N149   N     0.54216   0.04131   0.30625   0.00000  Uiso   1.00
H150   H     0.57093   0.02516   0.30967   0.00000  Uiso   1.00
C151   C     0.50699   0.05564   0.35082   0.00000  Uiso   1.00
H152   H     0.49002   0.02846   0.37291   0.00000  Uiso   1.00
H153   H     0.47817   0.07543   0.34614   0.00000  Uiso   1.00
H154   H     0.52548   0.07470   0.36894   0.00000  Uiso   1.00
N155   N     0.45680   0.29210   0.19480   0.00000  Uiso   1.00
H156   H     0.42732   0.30790   0.19240   0.00000  Uiso   1.00
C157   C     0.49162   0.27898   0.14956   0.00000  Uiso   1.00
H158   H     0.50729   0.30672   0.12793   0.00000  Uiso   1.00
H159   H     0.47325   0.25968   0.13153   0.00000  Uiso   1.00
H160   H     0.52140   0.25988   0.15325   0.00000  Uiso   1.00
N161   N     0.63134   0.09310   0.22770   0.00000  Uiso   1.00
H162   H     0.64125   0.06818   0.24342   0.00000  Uiso   1.00
C163   C     0.64123   0.08427   0.17921   0.00000  Uiso   1.00
H164   H     0.62716   0.05299   0.17588   0.00000  Uiso   1.00
H165   H     0.34767   0.08435   0.15834   0.00000  Uiso   1.00
H166   H     0.62227   0.10751   0.16551   0.00000  Uiso   1.00
N167   N     0.36581   0.23537   0.28575   0.00000  Uiso   1.00
H168   H     0.37684   0.22726   0.31237   0.00000  Uiso   1.00
C169   C     0.34096   0.27558   0.29177   0.00000  Uiso   1.00
H170   H     0.36274   0.29955   0.30061   0.00000  Uiso   1.00
H171   H     0.63809   0.27439   0.32073   0.00000  Uiso   1.00
H172   H     0.33706   0.28503   0.25891   0.00000  Uiso   1.00
O173   O     0.79512   0.22775   0.25001   0.00000  Uiso   1.00
O174   O     0.87154   0.10558   0.25000   0.00000  Uiso   1.00
O175   O     0.87157   0.22774   0.25000   0.00000  Uiso   1.00
O176   O     0.79510   0.10559   0.25000   0.00000  Uiso   1.00
C177   C     0.83320   0.24654   0.24961   0.00000  Uiso   1.00
C178   C     0.83341   0.08680   0.25048   0.00000  Uiso   1.00
O179   O     0.77328   0.16667   0.31613   0.00000  Uiso   1.00
O180   O     0.89339   0.16666   0.18388   0.00000  Uiso   1.00
O181   O     0.84972   0.16666   0.31612   0.00000  Uiso   1.00
O182   O     0.81695   0.16667   0.18388   0.00000  Uiso   1.00
C183   C     0.80285   0.16729   0.33797   0.00000  Uiso   1.00
C184   C     0.86383   0.16747   0.16211   0.00000  Uiso   1.00
Zn185  Zn    0.78229   0.16667   0.25000   0.00000  Uiso   1.00
Zn186  Zn    0.88438   0.16666   0.25000   0.00000  Uiso   1.00
C187   C     0.78379   0.16930   0.38882   0.00000  Uiso   1.00
C188   C     0.88235   0.17485   0.11212   0.00000  Uiso   1.00
C189   C     0.72033   0.15928   0.46441   0.00000  Uiso   1.00
C190   C     0.93497   0.21137   0.04409   0.00000  Uiso   1.00
C191   C     0.73529   0.16114   0.41608   0.00000  Uiso   1.00
C192   C     0.92354   0.19869   0.08993   0.00000  Uiso   1.00
C193   C     0.81597   0.17893   0.41011   0.00000  Uiso   1.00
C194   C     0.85267   0.16436   0.08870   0.00000  Uiso   1.00
C195   C     0.80163   0.17858   0.45845   0.00000  Uiso   1.00
C196   C     0.85914   0.18209   0.04572   0.00000  Uiso   1.00
C197   C     0.75385   0.16547   0.48594   0.00000  Uiso   1.00
C198   C     0.90244   0.20416   0.02170   0.00000  Uiso   1.00
C199   C     0.83496   0.18852   0.47946   0.00000  Uiso   1.00
C200   C     0.82336   0.17811   0.02641   0.00000  Uiso   1.00
C201   C     0.77574   0.16547   0.05342   0.00000  Uiso   1.00
C202   C     0.87886   0.20952   0.45533   0.00000  Uiso   1.00
C203   C     0.74111   0.15917   0.03401   0.00000  Uiso   1.00
C204   C     0.91171   0.21845   0.47631   0.00000  Uiso   1.00
H205   H     0.82352   0.14312   0.10562   0.00000  Uiso   1.00
H206   H     0.85331   0.18439   0.38812   0.00000  Uiso   1.00
H207   H     0.94570   0.20891   0.10850   0.00000  Uiso   1.00
H208   H     0.70946   0.15483   0.40007   0.00000  Uiso   1.00
H209   H     0.68267   0.15247   0.48433   0.00000  Uiso   1.00
H210   H     0.96834   0.22803   0.02731   0.00000  Uiso   1.00
H211   H     0.76391   0.16126   0.09055   0.00000  Uiso   1.00
H212   H     0.88696   0.22221   0.42105   0.00000  Uiso   1.00
C213   C     0.85510   0.31090   0.27582   0.00000  Uiso   1.00
C214   C     0.81108   0.02246   0.22477   0.00000  Uiso   1.00
H215   H     0.87123   0.29321   0.29627   0.00000  Uiso   1.00
H216   H     0.79498   0.04011   0.20428   0.00000  Uiso   1.00
C217   C     0.85493   0.02057   0.27754   0.00000  Uiso   1.00
C218   C     0.81105   0.31281   0.22322   0.00000  Uiso   1.00
C219   C     0.83331   0.04264   0.25120   0.00000  Uiso   1.00
C220   C     0.83302   0.29071   0.24925   0.00000  Uiso   1.00
C221   C     0.98252   0.13170   0.23655   0.00000  Uiso   1.00
C222   C     0.68358   0.20102   0.26586   0.00000  Uiso   1.00
C223   C     0.69720   0.13233   0.23573   0.00000  Uiso   1.00
C224   C     0.96932   0.20098   0.26465   0.00000  Uiso   1.00
H225   H     0.72032   0.10468   0.22468   0.00000  Uiso   1.00
H226   H     0.94502   0.22768   0.27701   0.00000  Uiso   1.00
N227   N     0.71426   0.16668   0.25001   0.00000  Uiso   1.00
N228   N     0.95241   0.16666   0.24999   0.00000  Uiso   1.00
N229   N     0.69427   0.14441   0.06373   0.00000  Uiso   1.00
O230   O     0.67616   0.11177   0.05158   0.00000  Uiso   1.00
O231   O     0.67567   0.15698   0.10699   0.00000  Uiso   1.00
N232   N     0.95398   0.24220   0.45089   0.00000  Uiso   1.00
O233   O     0.97854   0.23399   0.40695   0.00000  Uiso   1.00
O234   O     0.96256   0.27652   0.46884   0.00000  Uiso   1.00
N235   N     0.87549   0.04131   0.30625   0.00000  Uiso   1.00
H236   H     0.90426   0.02516   0.30967   0.00000  Uiso   1.00
C237   C     0.84032   0.05564   0.35082   0.00000  Uiso   1.00
H238   H     0.82336   0.02846   0.37291   0.00000  Uiso   1.00
H239   H     0.81150   0.07543   0.34614   0.00000  Uiso   1.00
H240   H     0.85882   0.07470   0.36894   0.00000  Uiso   1.00
N241   N     0.79014   0.29210   0.19480   0.00000  Uiso   1.00
H242   H     0.76066   0.30790   0.19240   0.00000  Uiso   1.00
C243   C     0.82495   0.27898   0.14956   0.00000  Uiso   1.00
H244   H     0.84063   0.30672   0.12793   0.00000  Uiso   1.00
H245   H     0.80658   0.25968   0.13153   0.00000  Uiso   1.00
H246   H     0.85474   0.25988   0.15325   0.00000  Uiso   1.00
N247   N     0.96467   0.09310   0.22770   0.00000  Uiso   1.00
H248   H     0.97459   0.06818   0.24342   0.00000  Uiso   1.00
C249   C     0.97457   0.08427   0.17921   0.00000  Uiso   1.00
H250   H     0.96050   0.05299   0.17588   0.00000  Uiso   1.00
H251   H     0.68100   0.08435   0.15834   0.00000  Uiso   1.00
H252   H     0.95560   0.10751   0.16551   0.00000  Uiso   1.00
N253   N     0.69914   0.23537   0.28575   0.00000  Uiso   1.00
H254   H     0.71017   0.22726   0.31237   0.00000  Uiso   1.00
C255   C     0.67430   0.27558   0.29177   0.00000  Uiso   1.00
H256   H     0.69607   0.29955   0.30061   0.00000  Uiso   1.00
H257   H     0.97142   0.27439   0.32073   0.00000  Uiso   1.00
H258   H     0.67039   0.28503   0.25891   0.00000  Uiso   1.00
O259   O     0.12846   0.56108   0.25001   0.00000  Uiso   1.00
O260   O     0.20488   0.43892   0.25000   0.00000  Uiso   1.00
O261   O     0.20490   0.56107   0.25000   0.00000  Uiso   1.00
O262   O     0.12843   0.43893   0.25000   0.00000  Uiso   1.00
C263   C     0.16653   0.57988   0.24961   0.00000  Uiso   1.00
C264   C     0.16675   0.42013   0.25048   0.00000  Uiso   1.00
O265   O     0.10661   0.50001   0.31613   0.00000  Uiso   1.00
O266   O     0.22672   0.49999   0.18388   0.00000  Uiso   1.00
O267   O     0.18305   0.50000   0.31612   0.00000  Uiso   1.00
O268   O     0.15028   0.50000   0.18388   0.00000  Uiso   1.00
C269   C     0.13618   0.50062   0.33797   0.00000  Uiso   1.00
C270   C     0.19716   0.50080   0.16211   0.00000  Uiso   1.00
Zn271  Zn    0.11562   0.50001   0.25000   0.00000  Uiso   1.00
Zn272  Zn    0.21771   0.49999   0.25000   0.00000  Uiso   1.00
C273   C     0.11712   0.50263   0.38882   0.00000  Uiso   1.00
C274   C     0.21568   0.50818   0.11212   0.00000  Uiso   1.00
C275   C     0.05366   0.49261   0.46441   0.00000  Uiso   1.00
C276   C     0.26831   0.54470   0.04409   0.00000  Uiso   1.00
C277   C     0.06863   0.49448   0.41608   0.00000  Uiso   1.00
C278   C     0.25687   0.53202   0.08993   0.00000  Uiso   1.00
C279   C     0.14930   0.51226   0.41011   0.00000  Uiso   1.00
C280   C     0.18601   0.49769   0.08870   0.00000  Uiso   1.00
C281   C     0.13496   0.51192   0.45845   0.00000  Uiso   1.00
C282   C     0.19248   0.51542   0.04572   0.00000  Uiso   1.00
C283   C     0.08719   0.49880   0.48594   0.00000  Uiso   1.00
C284   C     0.23577   0.53749   0.02170   0.00000  Uiso   1.00
C285   C     0.16829   0.52185   0.47946   0.00000  Uiso   1.00
C286   C     0.15670   0.51145   0.02641   0.00000  Uiso   1.00
C287   C     0.10907   0.49880   0.05342   0.00000  Uiso   1.00
C288   C     0.21219   0.54285   0.45533   0.00000  Uiso   1.00
C289   C     0.07444   0.49250   0.03401   0.00000  Uiso   1.00
C290   C     0.24504   0.55178   0.47631   0.00000  Uiso   1.00
H291   H     0.15685   0.47646   0.10562   0.00000  Uiso   1.00
H292   H     0.18664   0.51772   0.38812   0.00000  Uiso   1.00
H293   H     0.27903   0.54225   0.10850   0.00000  Uiso   1.00
H294   H     0.04279   0.48816   0.40007   0.00000  Uiso   1.00
H295   H     0.01600   0.48580   0.48433   0.00000  Uiso   1.00
H296   H     0.30168   0.56136   0.02731   0.00000  Uiso   1.00
H297   H     0.09724   0.49459   0.09055   0.00000  Uiso   1.00
H298   H     0.22030   0.55554   0.42105   0.00000  Uiso   1.00
C299   C     0.18843   0.64423   0.27582   0.00000  Uiso   1.00
C300   C     0.14441   0.35579   0.22477   0.00000  Uiso   1.00
H301   H     0.20456   0.62654   0.29627   0.00000  Uiso   1.00
H302   H     0.12832   0.37345   0.20428   0.00000  Uiso   1.00
C303   C     0.18826   0.35390   0.27754   0.00000  Uiso   1.00
C304   C     0.14438   0.64615   0.22322   0.00000  Uiso   1.00
C305   C     0.16664   0.37598   0.25120   0.00000  Uiso   1.00
C306   C     0.16635   0.62405   0.24925   0.00000  Uiso   1.00
C307   C     0.31586   0.46503   0.23655   0.00000  Uiso   1.00
C308   C     0.01691   0.53435   0.26586   0.00000  Uiso   1.00
C309   C     0.03053   0.46566   0.23573   0.00000  Uiso   1.00
C310   C     0.30266   0.53431   0.26465   0.00000  Uiso   1.00
H311   H     0.05365   0.43801   0.22468   0.00000  Uiso   1.00
H312   H     0.27835   0.56102   0.27701   0.00000  Uiso   1.00
N313   N     0.04759   0.50001   0.25001   0.00000  Uiso   1.00
N314   N     0.28574   0.49999   0.24999   0.00000  Uiso   1.00
N315   N     0.02760   0.47775   0.06373   0.00000  Uiso   1.00
O316   O     0.00949   0.44510   0.05158   0.00000  Uiso   1.00
O317   O     0.00900   0.49031   0.10699   0.00000  Uiso   1.00
N318   N     0.28732   0.57554   0.45089   0.00000  Uiso   1.00
O319   O     0.31187   0.56732   0.40695   0.00000  Uiso   1.00
O320   O     0.29589   0.60985   0.46884   0.00000  Uiso   1.00
N321   N     0.20883   0.37465   0.30625   0.00000  Uiso   1.00
H322   H     0.23759   0.35849   0.30967   0.00000  Uiso   1.00
C323   C     0.17366   0.38898   0.35082   0.00000  Uiso   1.00
H324   H     0.15669   0.36179   0.37291   0.00000  Uiso   1.00
H325   H     0.14484   0.40877   0.34614   0.00000  Uiso   1.00
H326   H     0.19215   0.40804   0.36894   0.00000  Uiso   1.00
N327   N     0.12347   0.62544   0.19480   0.00000  Uiso   1.00
H328   H     0.09399   0.64123   0.19240   0.00000  Uiso   1.00
C329   C     0.15828   0.61231   0.14956   0.00000  Uiso   1.00
H330   H     0.17396   0.64006   0.12793   0.00000  Uiso   1.00
H331   H     0.13992   0.59302   0.13153   0.00000  Uiso   1.00
H332   H     0.18807   0.59321   0.15325   0.00000  Uiso   1.00
N333   N     0.29800   0.42644   0.22770   0.00000  Uiso   1.00
H334   H     0.30792   0.40151   0.24342   0.00000  Uiso   1.00
C335   C     0.30790   0.41761   0.17921   0.00000  Uiso   1.00
H336   H     0.29383   0.38632   0.17588   0.00000  Uiso   1.00
H337   H     0.01433   0.41768   0.15834   0.00000  Uiso   1.00
H338   H     0.28894   0.44084   0.16551   0.00000  Uiso   1.00
N339   N     0.03247   0.56871   0.28575   0.00000  Uiso   1.00
H340   H     0.04351   0.56059   0.31237   0.00000  Uiso   1.00
C341   C     0.00763   0.60892   0.29177   0.00000  Uiso   1.00
H342   H     0.02940   0.63288   0.30061   0.00000  Uiso   1.00
H343   H     0.30475   0.60772   0.32073   0.00000  Uiso   1.00
H344   H     0.00372   0.61837   0.25891   0.00000  Uiso   1.00
O345   O     0.46179   0.56108   0.25001   0.00000  Uiso   1.00
O346   O     0.53821   0.43892   0.25000   0.00000  Uiso   1.00
O347   O     0.53823   0.56107   0.25000   0.00000  Uiso   1.00
O348   O     0.46177   0.43893   0.25000   0.00000  Uiso   1.00
C349   C     0.49987   0.57988   0.24961   0.00000  Uiso   1.00
C350   C     0.50008   0.42013   0.25048   0.00000  Uiso   1.00
O351   O     0.43994   0.50001   0.31613   0.00000  Uiso   1.00
O352   O     0.56006   0.49999   0.18388   0.00000  Uiso   1.00
O353   O     0.51639   0.50000   0.31612   0.00000  Uiso   1.00
O354   O     0.48361   0.50000   0.18388   0.00000  Uiso   1.00
C355   C     0.46951   0.50062   0.33797   0.00000  Uiso   1.00
C356   C     0.53049   0.50080   0.16211   0.00000  Uiso   1.00
Zn357  Zn    0.44896   0.50001   0.25000   0.00000  Uiso   1.00
Zn358  Zn    0.55104   0.49999   0.25000   0.00000  Uiso   1.00
C359   C     0.45045   0.50263   0.38882   0.00000  Uiso   1.00
C360   C     0.54902   0.50818   0.11212   0.00000  Uiso   1.00
C361   C     0.38699   0.49261   0.46441   0.00000  Uiso   1.00
C362   C     0.60164   0.54470   0.04409   0.00000  Uiso   1.00
C363   C     0.40196   0.49448   0.41608   0.00000  Uiso   1.00
C364   C     0.59020   0.53202   0.08993   0.00000  Uiso   1.00
C365   C     0.48263   0.51226   0.41011   0.00000  Uiso   1.00
C366   C     0.51934   0.49769   0.08870   0.00000  Uiso   1.00
C367   C     0.46829   0.51192   0.45845   0.00000  Uiso   1.00
C368   C     0.52581   0.51542   0.04572   0.00000  Uiso   1.00
C369   C     0.42052   0.49880   0.48594   0.00000  Uiso   1.00
C370   C     0.56910   0.53749   0.02170   0.00000  Uiso   1.00
C371   C     0.50162   0.52185   0.47946   0.00000  Uiso   1.00
C372   C     0.49003   0.51145   0.02641   0.00000  Uiso   1.00
C373   C     0.44241   0.49880   0.05342   0.00000  Uiso   1.00
C374   C     0.54553   0.54285   0.45533   0.00000  Uiso   1.00
C375   C     0.40778   0.49250   0.03401   0.00000  Uiso   1.00
C376   C     0.57837   0.55178   0.47631   0.00000  Uiso   1.00
H377   H     0.49018   0.47646   0.10562   0.00000  Uiso   1.00
H378   H     0.51997   0.51772   0.38812   0.00000  Uiso   1.00
H379   H     0.61237   0.54225   0.10850   0.00000  Uiso   1.00
H380   H     0.37613   0.48816   0.40007   0.00000  Uiso   1.00
H381   H     0.34934   0.48580   0.48433   0.00000  Uiso   1.00
H382   H     0.63501   0.56136   0.02731   0.00000  Uiso   1.00
H383   H     0.43058   0.49459   0.09055   0.00000  Uiso   1.00
H384   H     0.55363   0.55554   0.42105   0.00000  Uiso   1.00
C385   C     0.52177   0.64423   0.27582   0.00000  Uiso   1.00
C386   C     0.47775   0.35579   0.22477   0.00000  Uiso   1.00
H387   H     0.53790   0.62654   0.29627   0.00000  Uiso   1.00
H388   H     0.46165   0.37345   0.20428   0.00000  Uiso   1.00
C389   C     0.52160   0.35390   0.27754   0.00000  Uiso   1.00
C390   C     0.47772   0.64615   0.22322   0.00000  Uiso   1.00
C391   C     0.49998   0.37598   0.25120   0.00000  Uiso   1.00
C392   C     0.49969   0.62405   0.24925   0.00000  Uiso   1.00
C393   C     0.64919   0.46503   0.23655   0.00000  Uiso   1.00
C394   C     0.35025   0.53435   0.26586   0.00000  Uiso   1.00
C395   C     0.36386   0.46566   0.23573   0.00000  Uiso   1.00
C396   C     0.63599   0.53431   0.26465   0.00000  Uiso   1.00
H397   H     0.38698   0.43801   0.22468   0.00000  Uiso   1.00
H398   H     0.61168   0.56102   0.27701   0.00000  Uiso   1.00
N399   N     0.38093   0.50001   0.25001   0.00000  Uiso   1.00
N400   N     0.61907   0.49999   0.24999   0.00000  Uiso   1.00
N401   N     0.36093   0.47775   0.06373   0.00000  Uiso   1.00
O402   O     0.34283   0.44510   0.05158   0.00000  Uiso   1.00
O403   O     0.34234   0.49031   0.10699   0.00000  Uiso   1.00
N404   N     0.62065   0.57554   0.45089   0.00000  Uiso   1.00
O405   O     0.64521   0.56732   0.40695   0.00000  Uiso   1.00
O406   O     0.62922   0.60985   0.46884   0.00000  Uiso   1.00
N407   N     0.54216   0.37465   0.30625   0.00000  Uiso   1.00
H408   H     0.57093   0.35849   0.30967   0.00000  Uiso   1.00
C409   C     0.50699   0.38898   0.35082   0.00000  Uiso   1.00
H410   H     0.49002   0.36179   0.37291   0.00000  Uiso   1.00
H411   H     0.47817   0.40877   0.34614   0.00000  Uiso   1.00
H412   H     0.52548   0.40804   0.36894   0.00000  Uiso   1.00
N413   N     0.45680   0.62544   0.19480   0.00000  Uiso   1.00
H414   H     0.42732   0.64123   0.19240   0.00000  Uiso   1.00
C415   C     0.49162   0.61231   0.14956   0.00000  Uiso   1.00
H416   H     0.50729   0.64006   0.12793   0.00000  Uiso   1.00
H417   H     0.47325   0.59302   0.13153   0.00000  Uiso   1.00
H418   H     0.52140   0.59321   0.15325   0.00000  Uiso   1.00
N419   N     0.63134   0.42644   0.22770   0.00000  Uiso   1.00
H420   H     0.64125   0.40151   0.24342   0.00000  Uiso   1.00
C421   C     0.64123   0.41761   0.17921   0.00000  Uiso   1.00
H422   H     0.62716   0.38632   0.17588   0.00000  Uiso   1.00
H423   H     0.34767   0.41768   0.15834   0.00000  Uiso   1.00
H424   H     0.62227   0.44084   0.16551   0.00000  Uiso   1.00
N425   N     0.36581   0.56871   0.28575   0.00000  Uiso   1.00
H426   H     0.37684   0.56059   0.31237   0.00000  Uiso   1.00
C427   C     0.34096   0.60892   0.29177   0.00000  Uiso   1.00
H428   H     0.36274   0.63288   0.30061   0.00000  Uiso   1.00
H429   H     0.63809   0.60772   0.32073   0.00000  Uiso   1.00
H430   H     0.33706   0.61837   0.25891   0.00000  Uiso   1.00
O431   O     0.79512   0.56108   0.25001   0.00000  Uiso   1.00
O432   O     0.87154   0.43892   0.25000   0.00000  Uiso   1.00
O433   O     0.87157   0.56107   0.25000   0.00000  Uiso   1.00
O434   O     0.79510   0.43893   0.25000   0.00000  Uiso   1.00
C435   C     0.83320   0.57988   0.24961   0.00000  Uiso   1.00
C436   C     0.83341   0.42013   0.25048   0.00000  Uiso   1.00
O437   O     0.77328   0.50001   0.31613   0.00000  Uiso   1.00
O438   O     0.89339   0.49999   0.18388   0.00000  Uiso   1.00
O439   O     0.84972   0.50000   0.31612   0.00000  Uiso   1.00
O440   O     0.81695   0.50000   0.18388   0.00000  Uiso   1.00
C441   C     0.80285   0.50062   0.33797   0.00000  Uiso   1.00
C442   C     0.86383   0.50080   0.16211   0.00000  Uiso   1.00
Zn443  Zn    0.78229   0.50001   0.25000   0.00000  Uiso   1.00
Zn444  Zn    0.88438   0.49999   0.25000   0.00000  Uiso   1.00
C445   C     0.78379   0.50263   0.38882   0.00000  Uiso   1.00
C446   C     0.88235   0.50818   0.11212   0.00000  Uiso   1.00
C447   C     0.72033   0.49261   0.46441   0.00000  Uiso   1.00
C448   C     0.93497   0.54470   0.04409   0.00000  Uiso   1.00
C449   C     0.73529   0.49448   0.41608   0.00000  Uiso   1.00
C450   C     0.92354   0.53202   0.08993   0.00000  Uiso   1.00
C451   C     0.81597   0.51226   0.41011   0.00000  Uiso   1.00
C452   C     0.85267   0.49769   0.08870   0.00000  Uiso   1.00
C453   C     0.80163   0.51192   0.45845   0.00000  Uiso   1.00
C454   C     0.85914   0.51542   0.04572   0.00000  Uiso   1.00
C455   C     0.75385   0.49880   0.48594   0.00000  Uiso   1.00
C456   C     0.90244   0.53749   0.02170   0.00000  Uiso   1.00
C457   C     0.83496   0.52185   0.47946   0.00000  Uiso   1.00
C458   C     0.82336   0.51145   0.02641   0.00000  Uiso   1.00
C459   C     0.77574   0.49880   0.05342   0.00000  Uiso   1.00
C460   C     0.87886   0.54285   0.45533   0.00000  Uiso   1.00
C461   C     0.74111   0.49250   0.03401   0.00000  Uiso   1.00
C462   C     0.91171   0.55178   0.47631   0.00000  Uiso   1.00
H463   H     0.82352   0.47646   0.10562   0.00000  Uiso   1.00
H464   H     0.85331   0.51772   0.38812   0.00000  Uiso   1.00
H465   H     0.94570   0.54225   0.10850   0.00000  Uiso   1.00
H466   H     0.70946   0.48816   0.40007   0.00000  Uiso   1.00
H467   H     0.68267   0.48580   0.48433   0.00000  Uiso   1.00
H468   H     0.96834   0.56136   0.02731   0.00000  Uiso   1.00
H469   H     0.76391   0.49459   0.09055   0.00000  Uiso   1.00
H470   H     0.88696   0.55554   0.42105   0.00000  Uiso   1.00
C471   C     0.85510   0.64423   0.27582   0.00000  Uiso   1.00
C472   C     0.81108   0.35579   0.22477   0.00000  Uiso   1.00
H473   H     0.87123   0.62654   0.29627   0.00000  Uiso   1.00
H474   H     0.79498   0.37345   0.20428   0.00000  Uiso   1.00
C475   C     0.85493   0.35390   0.27754   0.00000  Uiso   1.00
C476   C     0.81105   0.64615   0.22322   0.00000  Uiso   1.00
C477   C     0.83331   0.37598   0.25120   0.00000  Uiso   1.00
C478   C     0.83302   0.62405   0.24925   0.00000  Uiso   1.00
C479   C     0.98252   0.46503   0.23655   0.00000  Uiso   1.00
C480   C     0.68358   0.53435   0.26586   0.00000  Uiso   1.00
C481   C     0.69720   0.46566   0.23573   0.00000  Uiso   1.00
C482   C     0.96932   0.53431   0.26465   0.00000  Uiso   1.00
H483   H     0.72032   0.43801   0.22468   0.00000  Uiso   1.00
H484   H     0.94502   0.56102   0.27701   0.00000  Uiso   1.00
N485   N     0.71426   0.50001   0.25001   0.00000  Uiso   1.00
N486   N     0.95241   0.49999   0.24999   0.00000  Uiso   1.00
N487   N     0.69427   0.47775   0.06373   0.00000  Uiso   1.00
O488   O     0.67616   0.44510   0.05158   0.00000  Uiso   1.00
O489   O     0.67567   0.49031   0.10699   0.00000  Uiso   1.00
N490   N     0.95398   0.57554   0.45089   0.00000  Uiso   1.00
O491   O     0.97854   0.56732   0.40695   0.00000  Uiso   1.00
O492   O     0.96256   0.60985   0.46884   0.00000  Uiso   1.00
N493   N     0.87549   0.37465   0.30625   0.00000  Uiso   1.00
H494   H     0.90426   0.35849   0.30967   0.00000  Uiso   1.00
C495   C     0.84032   0.38898   0.35082   0.00000  Uiso   1.00
H496   H     0.82336   0.36179   0.37291   0.00000  Uiso   1.00
H497   H     0.81150   0.40877   0.34614   0.00000  Uiso   1.00
H498   H     0.85882   0.40804   0.36894   0.00000  Uiso   1.00
N499   N     0.79014   0.62544   0.19480   0.00000  Uiso   1.00
H500   H     0.76066   0.64123   0.19240   0.00000  Uiso   1.00
C501   C     0.82495   0.61231   0.14956   0.00000  Uiso   1.00
H502   H     0.84063   0.64006   0.12793   0.00000  Uiso   1.00
H503   H     0.80658   0.59302   0.13153   0.00000  Uiso   1.00
H504   H     0.85474   0.59321   0.15325   0.00000  Uiso   1.00
N505   N     0.96467   0.42644   0.22770   0.00000  Uiso   1.00
H506   H     0.97459   0.40151   0.24342   0.00000  Uiso   1.00
C507   C     0.97457   0.41761   0.17921   0.00000  Uiso   1.00
H508   H     0.96050   0.38632   0.17588   0.00000  Uiso   1.00
H509   H     0.68100   0.41768   0.15834   0.00000  Uiso   1.00
H510   H     0.95560   0.44084   0.16551   0.00000  Uiso   1.00
N511   N     0.69914   0.56871   0.28575   0.00000  Uiso   1.00
H512   H     0.71017   0.56059   0.31237   0.00000  Uiso   1.00
C513   C     0.67430   0.60892   0.29177   0.00000  Uiso   1.00
H514   H     0.69607   0.63288   0.30061   0.00000  Uiso   1.00
H515   H     0.97142   0.60772   0.32073   0.00000  Uiso   1.00
H516   H     0.67039   0.61837   0.25891   0.00000  Uiso   1.00
O517   O     0.12846   0.89442   0.25001   0.00000  Uiso   1.00
O518   O     0.20488   0.77225   0.25000   0.00000  Uiso   1.00
O519   O     0.20490   0.89441   0.25000   0.00000  Uiso   1.00
O520   O     0.12843   0.77226   0.25000   0.00000  Uiso   1.00
C521   C     0.16653   0.91321   0.24961   0.00000  Uiso   1.00
C522   C     0.16675   0.75347   0.25048   0.00000  Uiso   1.00
O523   O     0.10661   0.83334   0.31613   0.00000  Uiso   1.00
O524   O     0.22672   0.83333   0.18388   0.00000  Uiso   1.00
O525   O     0.18305   0.83333   0.31612   0.00000  Uiso   1.00
O526   O     0.15028   0.83334   0.18388   0.00000  Uiso   1.00
C527   C     0.13618   0.83396   0.33797   0.00000  Uiso   1.00
C528   C     0.19716   0.83414   0.16211   0.00000  Uiso   1.00
Zn529  Zn    0.11562   0.83334   0.25000   0.00000  Uiso   1.00
Zn530  Zn    0.21771   0.83333   0.25000   0.00000  Uiso   1.00
C531   C     0.11712   0.83597   0.38882   0.00000  Uiso   1.00
C532   C     0.21568   0.84151   0.11212   0.00000  Uiso   1.00
C533   C     0.05366   0.82594   0.46441   0.00000  Uiso   1.00
C534   C     0.26831   0.87804   0.04409   0.00000  Uiso   1.00
C535   C     0.06863   0.82781   0.41608   0.00000  Uiso   1.00
C536   C     0.25687   0.86536   0.08993   0.00000  Uiso   1.00
C537   C     0.14930   0.84559   0.41011   0.00000  Uiso   1.00
C538   C     0.18601   0.83102   0.08870   0.00000  Uiso   1.00
C539   C     0.13496   0.84525   0.45845   0.00000  Uiso   1.00
C540   C     0.19248   0.84876   0.04572   0.00000  Uiso   1.00
C541   C     0.08719   0.83213   0.48594   0.00000  Uiso   1.00
C542   C     0.23577   0.87083   0.02170   0.00000  Uiso   1.00
C543   C     0.16829   0.85518   0.47946   0.00000  Uiso   1.00
C544   C     0.15670   0.84478   0.02641   0.00000  Uiso   1.00
C545   C     0.10907   0.83214   0.05342   0.00000  Uiso   1.00
C546   C     0.21219   0.87618   0.45533   0.00000  Uiso   1.00
C547   C     0.07444   0.82584   0.03401   0.00000  Uiso   1.00
C548   C     0.24504   0.88511   0.47631   0.00000  Uiso   1.00
H549   H     0.15685   0.80979   0.10562   0.00000  Uiso   1.00
H550   H     0.18664   0.85106   0.38812   0.00000  Uiso   1.00
H551   H     0.27903   0.87558   0.10850   0.00000  Uiso   1.00
H552   H     0.04279   0.82150   0.40007   0.00000  Uiso   1.00
H553   H     0.01600   0.81913   0.48433   0.00000  Uiso   1.00
H554   H     0.30168   0.89470   0.02731   0.00000  Uiso   1.00
H555   H     0.09724   0.82792   0.09055   0.00000  Uiso   1.00
H556   H     0.22030   0.88887   0.42105   0.00000  Uiso   1.00
C557   C     0.18843   0.97756   0.27582   0.00000  Uiso   1.00
C558   C     0.14441   0.68913   0.22477   0.00000  Uiso   1.00
H559   H     0.20456   0.95988   0.29627   0.00000  Uiso   1.00
H560   H     0.12832   0.70678   0.20428   0.00000  Uiso   1.00
C561   C     0.18826   0.68723   0.27754   0.00000  Uiso   1.00
C562   C     0.14438   0.97948   0.22322   0.00000  Uiso   1.00
C563   C     0.16664   0.70931   0.25120   0.00000  Uiso   1.00
C564   C     0.16635   0.95738   0.24925   0.00000  Uiso   1.00
C565   C     0.31586   0.79836   0.23655   0.00000  Uiso   1.00
C566   C     0.01691   0.86769   0.26586   0.00000  Uiso   1.00
C567   C     0.03053   0.79899   0.23573   0.00000  Uiso   1.00
C568   C     0.30266   0.86764   0.26465   0.00000  Uiso   1.00
H569   H     0.05365   0.77134   0.22468   0.00000  Uiso   1.00
H570   H     0.27835   0.89435   0.27701   0.00000  Uiso   1.00
N571   N     0.04759   0.83334   0.25001   0.00000  Uiso   1.00
N572   N     0.28574   0.83332   0.24999   0.00000  Uiso   1.00
N573   N     0.02760   0.81108   0.06373   0.00000  Uiso   1.00
O574   O     0.00949   0.77844   0.05158   0.00000  Uiso   1.00
O575   O     0.00900   0.82365   0.10699   0.00000  Uiso   1.00
N576   N     0.28732   0.90887   0.45089   0.00000  Uiso   1.00
O577   O     0.31187   0.90066   0.40695   0.00000  Uiso   1.00
O578   O     0.29589   0.94319   0.46884   0.00000  Uiso   1.00
N579   N     0.20883   0.70798   0.30625   0.00000  Uiso   1.00
H580   H     0.23759   0.69183   0.30967   0.00000  Uiso   1.00
C581   C     0.17366   0.72231   0.35082   0.00000  Uiso   1.00
H582   H     0.15669   0.69513   0.37291   0.00000  Uiso   1.00
H583   H     0.14484   0.74210   0.34614   0.00000  Uiso   1.00
H584   H     0.19215   0.74137   0.36894   0.00000  Uiso   1.00
N585   N     0.12347   0.95877   0.19480   0.00000  Uiso   1.00
H586   H     0.09399   0.97456   0.19240   0.00000  Uiso   1.00
C587   C     0.15828   0.94565   0.14956   0.00000  Uiso   1.00
H588   H     0.17396   0.97339   0.12793   0.00000  Uiso   1.00
H589   H     0.13992   0.92635   0.13153   0.00000  Uiso   1.00
H590   H     0.18807   0.92654   0.15325   0.00000  Uiso   1.00
N591   N     0.29800   0.75977   0.22770   0.00000  Uiso   1.00
H592   H     0.30792   0.73485   0.24342   0.00000  Uiso   1.00
C593   C     0.30790   0.75094   0.17921   0.00000  Uiso   1.00
H594   H     0.29383   0.71966   0.17588   0.00000  Uiso   1.00
H595   H     0.01433   0.75101   0.15834   0.00000  Uiso   1.00
H596   H     0.28894   0.77418   0.16551   0.00000  Uiso   1.00
N597   N     0.03247   0.90204   0.28575   0.00000  Uiso   1.00
H598   H     0.04351   0.89393   0.31237   0.00000  Uiso   1.00
C599   C     0.00763   0.94225   0.29177   0.00000  Uiso   1.00
H600   H     0.02940   0.96621   0.30061   0.00000  Uiso   1.00
H601   H     0.30475   0.94105   0.32073   0.00000  Uiso   1.00
H602   H     0.00372   0.95170   0.25891   0.00000  Uiso   1.00
O603   O     0.46179   0.89442   0.25001   0.00000  Uiso   1.00
O604   O     0.53821   0.77225   0.25000   0.00000  Uiso   1.00
O605   O     0.53823   0.89441   0.25000   0.00000  Uiso   1.00
O606   O     0.46177   0.77226   0.25000   0.00000  Uiso   1.00
C607   C     0.49987   0.91321   0.24961   0.00000  Uiso   1.00
C608   C     0.50008   0.75347   0.25048   0.00000  Uiso   1.00
O609   O     0.43994   0.83334   0.31613   0.00000  Uiso   1.00
O610   O     0.56006   0.83333   0.18388   0.00000  Uiso   1.00
O611   O     0.51639   0.83333   0.31612   0.00000  Uiso   1.00
O612   O     0.48361   0.83334   0.18388   0.00000  Uiso   1.00
C613   C     0.46951   0.83396   0.33797   0.00000  Uiso   1.00
C614   C     0.53049   0.83414   0.16211   0.00000  Uiso   1.00
Zn615  Zn    0.44896   0.83334   0.25000   0.00000  Uiso   1.00
Zn616  Zn    0.55104   0.83333   0.25000   0.00000  Uiso   1.00
C617   C     0.45045   0.83597   0.38882   0.00000  Uiso   1.00
C618   C     0.54902   0.84151   0.11212   0.00000  Uiso   1.00
C619   C     0.38699   0.82594   0.46441   0.00000  Uiso   1.00
C620   C     0.60164   0.87804   0.04409   0.00000  Uiso   1.00
C621   C     0.40196   0.82781   0.41608   0.00000  Uiso   1.00
C622   C     0.59020   0.86536   0.08993   0.00000  Uiso   1.00
C623   C     0.48263   0.84559   0.41011   0.00000  Uiso   1.00
C624   C     0.51934   0.83102   0.08870   0.00000  Uiso   1.00
C625   C     0.46829   0.84525   0.45845   0.00000  Uiso   1.00
C626   C     0.52581   0.84876   0.04572   0.00000  Uiso   1.00
C627   C     0.42052   0.83213   0.48594   0.00000  Uiso   1.00
C628   C     0.56910   0.87083   0.02170   0.00000  Uiso   1.00
C629   C     0.50162   0.85518   0.47946   0.00000  Uiso   1.00
C630   C     0.49003   0.84478   0.02641   0.00000  Uiso   1.00
C631   C     0.44241   0.83214   0.05342   0.00000  Uiso   1.00
C632   C     0.54553   0.87618   0.45533   0.00000  Uiso   1.00
C633   C     0.40778   0.82584   0.03401   0.00000  Uiso   1.00
C634   C     0.57837   0.88511   0.47631   0.00000  Uiso   1.00
H635   H     0.49018   0.80979   0.10562   0.00000  Uiso   1.00
H636   H     0.51997   0.85106   0.38812   0.00000  Uiso   1.00
H637   H     0.61237   0.87558   0.10850   0.00000  Uiso   1.00
H638   H     0.37613   0.82150   0.40007   0.00000  Uiso   1.00
H639   H     0.34934   0.81913   0.48433   0.00000  Uiso   1.00
H640   H     0.63501   0.89470   0.02731   0.00000  Uiso   1.00
H641   H     0.43058   0.82792   0.09055   0.00000  Uiso   1.00
H642   H     0.55363   0.88887   0.42105   0.00000  Uiso   1.00
C643   C     0.52177   0.97756   0.27582   0.00000  Uiso   1.00
C644   C     0.47775   0.68913   0.22477   0.00000  Uiso   1.00
H645   H     0.53790   0.95988   0.29627   0.00000  Uiso   1.00
H646   H     0.46165   0.70678   0.20428   0.00000  Uiso   1.00
C647   C     0.52160   0.68723   0.27754   0.00000  Uiso   1.00
C648   C     0.47772   0.97948   0.22322   0.00000  Uiso   1.00
C649   C     0.49998   0.70931   0.25120   0.00000  Uiso   1.00
C650   C     0.49969   0.95738   0.24925   0.00000  Uiso   1.00
C651   C     0.64919   0.79836   0.23655   0.00000  Uiso   1.00
C652   C     0.35025   0.86769   0.26586   0.00000  Uiso   1.00
C653   C     0.36386   0.79899   0.23573   0.00000  Uiso   1.00
C654   C     0.63599   0.86764   0.26465   0.00000  Uiso   1.00
H655   H     0.38698   0.77134   0.22468   0.00000  Uiso   1.00
H656   H     0.61168   0.89435   0.27701   0.00000  Uiso   1.00
N657   N     0.38093   0.83334   0.25001   0.00000  Uiso   1.00
N658   N     0.61907   0.83332   0.24999   0.00000  Uiso   1.00
N659   N     0.36093   0.81108   0.06373   0.00000  Uiso   1.00
O660   O     0.34283   0.77844   0.05158   0.00000  Uiso   1.00
O661   O     0.34234   0.82365   0.10699   0.00000  Uiso   1.00
N662   N     0.62065   0.90887   0.45089   0.00000  Uiso   1.00
O663   O     0.64521   0.90066   0.40695   0.00000  Uiso   1.00
O664   O     0.62922   0.94319   0.46884   0.00000  Uiso   1.00
N665   N     0.54216   0.70798   0.30625   0.00000  Uiso   1.00
H666   H     0.57093   0.69183   0.30967   0.00000  Uiso   1.00
C667   C     0.50699   0.72231   0.35082   0.00000  Uiso   1.00
H668   H     0.49002   0.69513   0.37291   0.00000  Uiso   1.00
H669   H     0.47817   0.74210   0.34614   0.00000  Uiso   1.00
H670   H     0.52548   0.74137   0.36894   0.00000  Uiso   1.00
N671   N     0.45680   0.95877   0.19480   0.00000  Uiso   1.00
H672   H     0.42732   0.97456   0.19240   0.00000  Uiso   1.00
C673   C     0.49162   0.94565   0.14956   0.00000  Uiso   1.00
H674   H     0.50729   0.97339   0.12793   0.00000  Uiso   1.00
H675   H     0.47325   0.92635   0.13153   0.00000  Uiso   1.00
H676   H     0.52140   0.92654   0.15325   0.00000  Uiso   1.00
N677   N     0.63134   0.75977   0.22770   0.00000  Uiso   1.00
H678   H     0.64125   0.73485   0.24342   0.00000  Uiso   1.00
C679   C     0.64123   0.75094   0.17921   0.00000  Uiso   1.00
H680   H     0.62716   0.71966   0.17588   0.00000  Uiso   1.00
H681   H     0.34767   0.75101   0.15834   0.00000  Uiso   1.00
H682   H     0.62227   0.77418   0.16551   0.00000  Uiso   1.00
N683   N     0.36581   0.90204   0.28575   0.00000  Uiso   1.00
H684   H     0.37684   0.89393   0.31237   0.00000  Uiso   1.00
C685   C     0.34096   0.94225   0.29177   0.00000  Uiso   1.00
H686   H     0.36274   0.96621   0.30061   0.00000  Uiso   1.00
H687   H     0.63809   0.94105   0.32073   0.00000  Uiso   1.00
H688   H     0.33706   0.95170   0.25891   0.00000  Uiso   1.00
O689   O     0.79512   0.89442   0.25001   0.00000  Uiso   1.00
O690   O     0.87154   0.77225   0.25000   0.00000  Uiso   1.00
O691   O     0.87157   0.89441   0.25000   0.00000  Uiso   1.00
O692   O     0.79510   0.77226   0.25000   0.00000  Uiso   1.00
C693   C     0.83320   0.91321   0.24961   0.00000  Uiso   1.00
C694   C     0.83341   0.75347   0.25048   0.00000  Uiso   1.00
O695   O     0.77328   0.83334   0.31613   0.00000  Uiso   1.00
O696   O     0.89339   0.83333   0.18388   0.00000  Uiso   1.00
O697   O     0.84972   0.83333   0.31612   0.00000  Uiso   1.00
O698   O     0.81695   0.83334   0.18388   0.00000  Uiso   1.00
C699   C     0.80285   0.83396   0.33797   0.00000  Uiso   1.00
C700   C     0.86383   0.83414   0.16211   0.00000  Uiso   1.00
Zn701  Zn    0.78229   0.83334   0.25000   0.00000  Uiso   1.00
Zn702  Zn    0.88438   0.83333   0.25000   0.00000  Uiso   1.00
C703   C     0.78379   0.83597   0.38882   0.00000  Uiso   1.00
C704   C     0.88235   0.84151   0.11212   0.00000  Uiso   1.00
C705   C     0.72033   0.82594   0.46441   0.00000  Uiso   1.00
C706   C     0.93497   0.87804   0.04409   0.00000  Uiso   1.00
C707   C     0.73529   0.82781   0.41608   0.00000  Uiso   1.00
C708   C     0.92354   0.86536   0.08993   0.00000  Uiso   1.00
C709   C     0.81597   0.84559   0.41011   0.00000  Uiso   1.00
C710   C     0.85267   0.83102   0.08870   0.00000  Uiso   1.00
C711   C     0.80163   0.84525   0.45845   0.00000  Uiso   1.00
C712   C     0.85914   0.84876   0.04572   0.00000  Uiso   1.00
C713   C     0.75385   0.83213   0.48594   0.00000  Uiso   1.00
C714   C     0.90244   0.87083   0.02170   0.00000  Uiso   1.00
C715   C     0.83496   0.85518   0.47946   0.00000  Uiso   1.00
C716   C     0.82336   0.84478   0.02641   0.00000  Uiso   1.00
C717   C     0.77574   0.83214   0.05342   0.00000  Uiso   1.00
C718   C     0.87886   0.87618   0.45533   0.00000  Uiso   1.00
C719   C     0.74111   0.82584   0.03401   0.00000  Uiso   1.00
C720   C     0.91171   0.88511   0.47631   0.00000  Uiso   1.00
H721   H     0.82352   0.80979   0.10562   0.00000  Uiso   1.00
H722   H     0.85331   0.85106   0.38812   0.00000  Uiso   1.00
H723   H     0.94570   0.87558   0.10850   0.00000  Uiso   1.00
H724   H     0.70946   0.82150   0.40007   0.00000  Uiso   1.00
H725   H     0.68267   0.81913   0.48433   0.00000  Uiso   1.00
H726   H     0.96834   0.89470   0.02731   0.00000  Uiso   1.00
H727   H     0.76391   0.82792   0.09055   0.00000  Uiso   1.00
H728   H     0.88696   0.88887   0.42105   0.00000  Uiso   1.00
C729   C     0.85510   0.97756   0.27582   0.00000  Uiso   1.00
C730   C     0.81108   0.68913   0.22477   0.00000  Uiso   1.00
H731   H     0.87123   0.95988   0.29627   0.00000  Uiso   1.00
H732   H     0.79498   0.70678   0.20428   0.00000  Uiso   1.00
C733   C     0.85493   0.68723   0.27754   0.00000  Uiso   1.00
C734   C     0.81105   0.97948   0.22322   0.00000  Uiso   1.00
C735   C     0.83331   0.70931   0.25120   0.00000  Uiso   1.00
C736   C     0.83302   0.95738   0.24925   0.00000  Uiso   1.00
C737   C     0.98252   0.79836   0.23655   0.00000  Uiso   1.00
C738   C     0.68358   0.86769   0.26586   0.00000  Uiso   1.00
C739   C     0.69720   0.79899   0.23573   0.00000  Uiso   1.00
C740   C     0.96932   0.86764   0.26465   0.00000  Uiso   1.00
H741   H     0.72032   0.77134   0.22468   0.00000  Uiso   1.00
H742   H     0.94502   0.89435   0.27701   0.00000  Uiso   1.00
N743   N     0.71426   0.83334   0.25001   0.00000  Uiso   1.00
N744   N     0.95241   0.83332   0.24999   0.00000  Uiso   1.00
N745   N     0.69427   0.81108   0.06373   0.00000  Uiso   1.00
O746   O     0.67616   0.77844   0.05158   0.00000  Uiso   1.00
O747   O     0.67567   0.82365   0.10699   0.00000  Uiso   1.00
N748   N     0.95398   0.90887   0.45089   0.00000  Uiso   1.00
O749   O     0.97854   0.90066   0.40695   0.00000  Uiso   1.00
O750   O     0.96256   0.94319   0.46884   0.00000  Uiso   1.00
N751   N     0.87549   0.70798   0.30625   0.00000  Uiso   1.00
H752   H     0.90426   0.69183   0.30967   0.00000  Uiso   1.00
C753   C     0.84032   0.72231   0.35082   0.00000  Uiso   1.00
H754   H     0.82336   0.69513   0.37291   0.00000  Uiso   1.00
H755   H     0.81150   0.74210   0.34614   0.00000  Uiso   1.00
H756   H     0.85882   0.74137   0.36894   0.00000  Uiso   1.00
N757   N     0.79014   0.95877   0.19480   0.00000  Uiso   1.00
H758   H     0.76066   0.97456   0.19240   0.00000  Uiso   1.00
C759   C     0.82495   0.94565   0.14956   0.00000  Uiso   1.00
H760   H     0.84063   0.97339   0.12793   0.00000  Uiso   1.00
H761   H     0.80658   0.92635   0.13153   0.00000  Uiso   1.00
H762   H     0.85474   0.92654   0.15325   0.00000  Uiso   1.00
N763   N     0.96467   0.75977   0.22770   0.00000  Uiso   1.00
H764   H     0.97459   0.73485   0.24342   0.00000  Uiso   1.00
C765   C     0.97457   0.75094   0.17921   0.00000  Uiso   1.00
H766   H     0.96050   0.71966   0.17588   0.00000  Uiso   1.00
H767   H     0.68100   0.75101   0.15834   0.00000  Uiso   1.00
H768   H     0.95560   0.77418   0.16551   0.00000  Uiso   1.00
N769   N     0.69914   0.90204   0.28575   0.00000  Uiso   1.00
H770   H     0.71017   0.89393   0.31237   0.00000  Uiso   1.00
C771   C     0.67430   0.94225   0.29177   0.00000  Uiso   1.00
H772   H     0.69607   0.96621   0.30061   0.00000  Uiso   1.00
H773   H     0.97142   0.94105   0.32073   0.00000  Uiso   1.00
H774   H     0.67039   0.95170   0.25891   0.00000  Uiso   1.00
O775   O     0.12846   0.22775   0.75001   0.00000  Uiso   1.00
O776   O     0.20488   0.10558   0.75000   0.00000  Uiso   1.00
O777   O     0.20490   0.22774   0.75000   0.00000  Uiso   1.00
O778   O     0.12843   0.10559   0.75000   0.00000  Uiso   1.00
C779   C     0.16653   0.24654   0.74961   0.00000  Uiso   1.00
C780   C     0.16675   0.08680   0.75048   0.00000  Uiso   1.00
O781   O     0.10661   0.16667   0.81613   0.00000  Uiso   1.00
O782   O     0.22672   0.16666   0.68388   0.00000  Uiso   1.00
O783   O     0.18305   0.16666   0.81612   0.00000  Uiso   1.00
O784   O     0.15028   0.16667   0.68388   0.00000  Uiso   1.00
C785   C     0.13618   0.16729   0.83797   0.00000  Uiso   1.00
C786   C     0.19716   0.16747   0.66211   0.00000  Uiso   1.00
Zn787  Zn    0.11562   0.16667   0.75000   0.00000  Uiso   1.00
Zn788  Zn    0.21771   0.16666   0.75000   0.00000  Uiso   1.00
C789   C     0.11712   0.16930   0.88882   0.00000  Uiso   1.00
C790   C     0.21568   0.17485   0.61212   0.00000  Uiso   1.00
C791   C     0.05366   0.15928   0.96441   0.00000  Uiso   1.00
C792   C     0.26831   0.21137   0.54409   0.00000  Uiso   1.00
C793   C     0.06863   0.16114   0.91608   0.00000  Uiso   1.00
C794   C     0.25687   0.19869   0.58993   0.00000  Uiso   1.00
C795   C     0.14930   0.17893   0.91011   0.00000  Uiso   1.00
C796   C     0.18601   0.16436   0.58870   0.00000  Uiso   1.00
C797   C     0.13496   0.17858   0.95845   0.00000  Uiso   1.00
C798   C     0.19248   0.18209   0.54572   0.00000  Uiso   1.00
C799   C     0.08719   0.16547   0.98594   0.00000  Uiso   1.00
C800   C     0.23577   0.20416   0.52170   0.00000  Uiso   1.00
C801   C     0.16829   0.18852   0.97946   0.00000  Uiso   1.00
C802   C     0.15670   0.17811   0.52641   0.00000  Uiso   1.00
C803   C     0.10907   0.16547   0.55342   0.00000  Uiso   1.00
C804   C     0.21219   0.20952   0.95533   0.00000  Uiso   1.00
C805   C     0.07444   0.15917   0.53401   0.00000  Uiso   1.00
C806   C     0.24504   0.21845   0.97631   0.00000  Uiso   1.00
H807   H     0.15685   0.14312   0.60562   0.00000  Uiso   1.00
H808   H     0.18664   0.18439   0.88812   0.00000  Uiso   1.00
H809   H     0.27903   0.20891   0.60850   0.00000  Uiso   1.00
H810   H     0.04279   0.15483   0.90007   0.00000  Uiso   1.00
H811   H     0.01600   0.15247   0.98433   0.00000  Uiso   1.00
H812   H     0.30168   0.22803   0.52731   0.00000  Uiso   1.00
H813   H     0.09724   0.16126   0.59055   0.00000  Uiso   1.00
H814   H     0.22030   0.22221   0.92105   0.00000  Uiso   1.00
C815   C     0.18843   0.31090   0.77582   0.00000  Uiso   1.00
C816   C     0.14441   0.02246   0.72477   0.00000  Uiso   1.00
H817   H     0.20456   0.29321   0.79627   0.00000  Uiso   1.00
H818   H     0.12832   0.04011   0.70428   0.00000  Uiso   1.00
C819   C     0.18826   0.02057   0.77754   0.00000  Uiso   1.00
C820   C     0.14438   0.31281   0.72322   0.00000  Uiso   1.00
C821   C     0.16664   0.04264   0.75120   0.00000  Uiso   1.00
C822   C     0.16635   0.29071   0.74925   0.00000  Uiso   1.00
C823   C     0.31586   0.13170   0.73655   0.00000  Uiso   1.00
C824   C     0.01691   0.20102   0.76586   0.00000  Uiso   1.00
C825   C     0.03053   0.13233   0.73573   0.00000  Uiso   1.00
C826   C     0.30266   0.20098   0.76465   0.00000  Uiso   1.00
H827   H     0.05365   0.10468   0.72468   0.00000  Uiso   1.00
H828   H     0.27835   0.22768   0.77701   0.00000  Uiso   1.00
N829   N     0.04759   0.16668   0.75001   0.00000  Uiso   1.00
N830   N     0.28574   0.16666   0.74999   0.00000  Uiso   1.00
N831   N     0.02760   0.14441   0.56373   0.00000  Uiso   1.00
O832   O     0.00949   0.11177   0.55158   0.00000  Uiso   1.00
O833   O     0.00900   0.15698   0.60699   0.00000  Uiso   1.00
N834   N     0.28732   0.24220   0.95089   0.00000  Uiso   1.00
O835   O     0.31187   0.23399   0.90695   0.00000  Uiso   1.00
O836   O     0.29589   0.27652   0.96884   0.00000  Uiso   1.00
N837   N     0.20883   0.04131   0.80625   0.00000  Uiso   1.00
H838   H     0.23759   0.02516   0.80967   0.00000  Uiso   1.00
C839   C     0.17366   0.05564   0.85082   0.00000  Uiso   1.00
H840   H     0.15669   0.02846   0.87291   0.00000  Uiso   1.00
H841   H     0.14484   0.07543   0.84614   0.00000  Uiso   1.00
H842   H     0.19215   0.07470   0.86894   0.00000  Uiso   1.00
N843   N     0.12347   0.29210   0.69480   0.00000  Uiso   1.00
H844   H     0.09399   0.30790   0.69240   0.00000  Uiso   1.00
C845   C     0.15828   0.27898   0.64956   0.00000  Uiso   1.00
H846   H     0.17396   0.30672   0.62793   0.00000  Uiso   1.00
H847   H     0.13992   0.25968   0.63153   0.00000  Uiso   1.00
H848   H     0.18807   0.25988   0.65325   0.00000  Uiso   1.00
N849   N     0.29800   0.09310   0.72770   0.00000  Uiso   1.00
H850   H     0.30792   0.06818   0.74342   0.00000  Uiso   1.00
C851   C     0.30790   0.08427   0.67921   0.00000  Uiso   1.00
H852   H     0.29383   0.05299   0.67588   0.00000  Uiso   1.00
H853   H     0.01433   0.08435   0.65834   0.00000  Uiso   1.00
H854   H     0.28894   0.10751   0.66551   0.00000  Uiso   1.00
N855   N     0.03247   0.23537   0.78575   0.00000  Uiso   1.00
H856   H     0.04351   0.22726   0.81237   0.00000  Uiso   1.00
C857   C     0.00763   0.27558   0.79177   0.00000  Uiso   1.00
H858   H     0.02940   0.29955   0.80061   0.00000  Uiso   1.00
H859   H     0.30475   0.27439   0.82073   0.00000  Uiso   1.00
H860   H     0.00372   0.28503   0.75891   0.00000  Uiso   1.00
O861   O     0.46179   0.22775   0.75001   0.00000  Uiso   1.00
O862   O     0.53821   0.10558   0.75000   0.00000  Uiso   1.00
O863   O     0.53823   0.22774   0.75000   0.00000  Uiso   1.00
O864   O     0.46177   0.10559   0.75000   0.00000  Uiso   1.00
C865   C     0.49987   0.24654   0.74961   0.00000  Uiso   1.00
C866   C     0.50008   0.08680   0.75048   0.00000  Uiso   1.00
O867   O     0.43994   0.16667   0.81613   0.00000  Uiso   1.00
O868   O     0.56006   0.16666   0.68388   0.00000  Uiso   1.00
O869   O     0.51639   0.16666   0.81612   0.00000  Uiso   1.00
O870   O     0.48361   0.16667   0.68388   0.00000  Uiso   1.00
C871   C     0.46951   0.16729   0.83797   0.00000  Uiso   1.00
C872   C     0.53049   0.16747   0.66211   0.00000  Uiso   1.00
Zn873  Zn    0.44896   0.16667   0.75000   0.00000  Uiso   1.00
Zn874  Zn    0.55104   0.16666   0.75000   0.00000  Uiso   1.00
C875   C     0.45045   0.16930   0.88882   0.00000  Uiso   1.00
C876   C     0.54902   0.17485   0.61212   0.00000  Uiso   1.00
C877   C     0.38699   0.15928   0.96441   0.00000  Uiso   1.00
C878   C     0.60164   0.21137   0.54409   0.00000  Uiso   1.00
C879   C     0.40196   0.16114   0.91608   0.00000  Uiso   1.00
C880   C     0.59020   0.19869   0.58993   0.00000  Uiso   1.00
C881   C     0.48263   0.17893   0.91011   0.00000  Uiso   1.00
C882   C     0.51934   0.16436   0.58870   0.00000  Uiso   1.00
C883   C     0.46829   0.17858   0.95845   0.00000  Uiso   1.00
C884   C     0.52581   0.18209   0.54572   0.00000  Uiso   1.00
C885   C     0.42052   0.16547   0.98594   0.00000  Uiso   1.00
C886   C     0.56910   0.20416   0.52170   0.00000  Uiso   1.00
C887   C     0.50162   0.18852   0.97946   0.00000  Uiso   1.00
C888   C     0.49003   0.17811   0.52641   0.00000  Uiso   1.00
C889   C     0.44241   0.16547   0.55342   0.00000  Uiso   1.00
C890   C     0.54553   0.20952   0.95533   0.00000  Uiso   1.00
C891   C     0.40778   0.15917   0.53401   0.00000  Uiso   1.00
C892   C     0.57837   0.21845   0.97631   0.00000  Uiso   1.00
H893   H     0.49018   0.14312   0.60562   0.00000  Uiso   1.00
H894   H     0.51997   0.18439   0.88812   0.00000  Uiso   1.00
H895   H     0.61237   0.20891   0.60850   0.00000  Uiso   1.00
H896   H     0.37613   0.15483   0.90007   0.00000  Uiso   1.00
H897   H     0.34934   0.15247   0.98433   0.00000  Uiso   1.00
H898   H     0.63501   0.22803   0.52731   0.00000  Uiso   1.00
H899   H     0.43058   0.16126   0.59055   0.00000  Uiso   1.00
H900   H     0.55363   0.22221   0.92105   0.00000  Uiso   1.00
C901   C     0.52177   0.31090   0.77582   0.00000  Uiso   1.00
C902   C     0.47775   0.02246   0.72477   0.00000  Uiso   1.00
H903   H     0.53790   0.29321   0.79627   0.00000  Uiso   1.00
H904   H     0.46165   0.04011   0.70428   0.00000  Uiso   1.00
C905   C     0.52160   0.02057   0.77754   0.00000  Uiso   1.00
C906   C     0.47772   0.31281   0.72322   0.00000  Uiso   1.00
C907   C     0.49998   0.04264   0.75120   0.00000  Uiso   1.00
C908   C     0.49969   0.29071   0.74925   0.00000  Uiso   1.00
C909   C     0.64919   0.13170   0.73655   0.00000  Uiso   1.00
C910   C     0.35025   0.20102   0.76586   0.00000  Uiso   1.00
C911   C     0.36386   0.13233   0.73573   0.00000  Uiso   1.00
C912   C     0.63599   0.20098   0.76465   0.00000  Uiso   1.00
H913   H     0.38698   0.10468   0.72468   0.00000  Uiso   1.00
H914   H     0.61168   0.22768   0.77701   0.00000  Uiso   1.00
N915   N     0.38093   0.16668   0.75001   0.00000  Uiso   1.00
N916   N     0.61907   0.16666   0.74999   0.00000  Uiso   1.00
N917   N     0.36093   0.14441   0.56373   0.00000  Uiso   1.00
O918   O     0.34283   0.11177   0.55158   0.00000  Uiso   1.00
O919   O     0.34234   0.15698   0.60699   0.00000  Uiso   1.00
N920   N     0.62065   0.24220   0.95089   0.00000  Uiso   1.00
O921   O     0.64521   0.23399   0.90695   0.00000  Uiso   1.00
O922   O     0.62922   0.27652   0.96884   0.00000  Uiso   1.00
N923   N     0.54216   0.04131   0.80625   0.00000  Uiso   1.00
H924   H     0.57093   0.02516   0.80967   0.00000  Uiso   1.00
C925   C     0.50699   0.05564   0.85082   0.00000  Uiso   1.00
H926   H     0.49002   0.02846   0.87291   0.00000  Uiso   1.00
H927   H     0.47817   0.07543   0.84614   0.00000  Uiso   1.00
H928   H     0.52548   0.07470   0.86894   0.00000  Uiso   1.00
N929   N     0.45680   0.29210   0.69480   0.00000  Uiso   1.00
H930   H     0.42732   0.30790   0.69240   0.00000  Uiso   1.00
C931   C     0.49162   0.27898   0.64956   0.00000  Uiso   1.00
H932   H     0.50729   0.30672   0.62793   0.00000  Uiso   1.00
H933   H     0.47325   0.25968   0.63153   0.00000  Uiso   1.00
H934   H     0.52140   0.25988   0.65325   0.00000  Uiso   1.00
N935   N     0.63134   0.09310   0.72770   0.00000  Uiso   1.00
H936   H     0.64125   0.06818   0.74342   0.00000  Uiso   1.00
C937   C     0.64123   0.08427   0.67921   0.00000  Uiso   1.00
H938   H     0.62716   0.05299   0.67588   0.00000  Uiso   1.00
H939   H     0.34767   0.08435   0.65834   0.00000  Uiso   1.00
H940   H     0.62227   0.10751   0.66551   0.00000  Uiso   1.00
N941   N     0.36581   0.23537   0.78575   0.00000  Uiso   1.00
H942   H     0.37684   0.22726   0.81237   0.00000  Uiso   1.00
C943   C     0.34096   0.27558   0.79177   0.00000  Uiso   1.00
H944   H     0.36274   0.29955   0.80061   0.00000  Uiso   1.00
H945   H     0.63809   0.27439   0.82073   0.00000  Uiso   1.00
H946   H     0.33706   0.28503   0.75891   0.00000  Uiso   1.00
O947   O     0.79512   0.22775   0.75001   0.00000  Uiso   1.00
O948   O     0.87154   0.10558   0.75000   0.00000  Uiso   1.00
O949   O     0.87157   0.22774   0.75000   0.00000  Uiso   1.00
O950   O     0.79510   0.10559   0.75000   0.00000  Uiso   1.00
C951   C     0.83320   0.24654   0.74961   0.00000  Uiso   1.00
C952   C     0.83341   0.08680   0.75048   0.00000  Uiso   1.00
O953   O     0.77328   0.16667   0.81613   0.00000  Uiso   1.00
O954   O     0.89339   0.16666   0.68388   0.00000  Uiso   1.00
O955   O     0.84972   0.16666   0.81612   0.00000  Uiso   1.00
O956   O     0.81695   0.16667   0.68388   0.00000  Uiso   1.00
C957   C     0.80285   0.16729   0.83797   0.00000  Uiso   1.00
C958   C     0.86383   0.16747   0.66211   0.00000  Uiso   1.00
Zn959  Zn    0.78229   0.16667   0.75000   0.00000  Uiso   1.00
Zn960  Zn    0.88438   0.16666   0.75000   0.00000  Uiso   1.00
C961   C     0.78379   0.16930   0.88882   0.00000  Uiso   1.00
C962   C     0.88235   0.17485   0.61212   0.00000  Uiso   1.00
C963   C     0.72033   0.15928   0.96441   0.00000  Uiso   1.00
C964   C     0.93497   0.21137   0.54409   0.00000  Uiso   1.00
C965   C     0.73529   0.16114   0.91608   0.00000  Uiso   1.00
C966   C     0.92354   0.19869   0.58993   0.00000  Uiso   1.00
C967   C     0.81597   0.17893   0.91011   0.00000  Uiso   1.00
C968   C     0.85267   0.16436   0.58870   0.00000  Uiso   1.00
C969   C     0.80163   0.17858   0.95845   0.00000  Uiso   1.00
C970   C     0.85914   0.18209   0.54572   0.00000  Uiso   1.00
C971   C     0.75385   0.16547   0.98594   0.00000  Uiso   1.00
C972   C     0.90244   0.20416   0.52170   0.00000  Uiso   1.00
C973   C     0.83496   0.18852   0.97946   0.00000  Uiso   1.00
C974   C     0.82336   0.17811   0.52641   0.00000  Uiso   1.00
C975   C     0.77574   0.16547   0.55342   0.00000  Uiso   1.00
C976   C     0.87886   0.20952   0.95533   0.00000  Uiso   1.00
C977   C     0.74111   0.15917   0.53401   0.00000  Uiso   1.00
C978   C     0.91171   0.21845   0.97631   0.00000  Uiso   1.00
H979   H     0.82352   0.14312   0.60562   0.00000  Uiso   1.00
H980   H     0.85331   0.18439   0.88812   0.00000  Uiso   1.00
H981   H     0.94570   0.20891   0.60850   0.00000  Uiso   1.00
H982   H     0.70946   0.15483   0.90007   0.00000  Uiso   1.00
H983   H     0.68267   0.15247   0.98433   0.00000  Uiso   1.00
H984   H     0.96834   0.22803   0.52731   0.00000  Uiso   1.00
H985   H     0.76391   0.16126   0.59055   0.00000  Uiso   1.00
H986   H     0.88696   0.22221   0.92105   0.00000  Uiso   1.00
C987   C     0.85510   0.31090   0.77582   0.00000  Uiso   1.00
C988   C     0.81108   0.02246   0.72477   0.00000  Uiso   1.00
H989   H     0.87123   0.29321   0.79627   0.00000  Uiso   1.00
H990   H     0.79498   0.04011   0.70428   0.00000  Uiso   1.00
C991   C     0.85493   0.02057   0.77754   0.00000  Uiso   1.00
C992   C     0.81105   0.31281   0.72322   0.00000  Uiso   1.00
C993   C     0.83331   0.04264   0.75120   0.00000  Uiso   1.00
C994   C     0.83302   0.29071   0.74925   0.00000  Uiso   1.00
C995   C     0.98252   0.13170   0.73655   0.00000  Uiso   1.00
C996   C     0.68358   0.20102   0.76586   0.00000  Uiso   1.00
C997   C     0.69720   0.13233   0.73573   0.00000  Uiso   1.00
C998   C     0.96932   0.20098   0.76465   0.00000  Uiso   1.00
H999   H     0.72032   0.10468   0.72468   0.00000  Uiso   1.00
H1000  H     0.94502   0.22768   0.77701   0.00000  Uiso   1.00
N1001  N     0.71426   0.16668   0.75001   0.00000  Uiso   1.00
N1002  N     0.95241   0.16666   0.74999   0.00000  Uiso   1.00
N1003  N     0.69427   0.14441   0.56373   0.00000  Uiso   1.00
O1004  O     0.67616   0.11177   0.55158   0.00000  Uiso   1.00
O1005  O     0.67567   0.15698   0.60699   0.00000  Uiso   1.00
N1006  N     0.95398   0.24220   0.95089   0.00000  Uiso   1.00
O1007  O     0.97854   0.23399   0.90695   0.00000  Uiso   1.00
O1008  O     0.96256   0.27652   0.96884   0.00000  Uiso   1.00
N1009  N     0.87549   0.04131   0.80625   0.00000  Uiso   1.00
H1010  H     0.90426   0.02516   0.80967   0.00000  Uiso   1.00
C1011  C     0.84032   0.05564   0.85082   0.00000  Uiso   1.00
H1012  H     0.82336   0.02846   0.87291   0.00000  Uiso   1.00
H1013  H     0.81150   0.07543   0.84614   0.00000  Uiso   1.00
H1014  H     0.85882   0.07470   0.86894   0.00000  Uiso   1.00
N1015  N     0.79014   0.29210   0.69480   0.00000  Uiso   1.00
H1016  H     0.76066   0.30790   0.69240   0.00000  Uiso   1.00
C1017  C     0.82495   0.27898   0.64956   0.00000  Uiso   1.00
H1018  H     0.84063   0.30672   0.62793   0.00000  Uiso   1.00
H1019  H     0.80658   0.25968   0.63153   0.00000  Uiso   1.00
H1020  H     0.85474   0.25988   0.65325   0.00000  Uiso   1.00
N1021  N     0.96467   0.09310   0.72770   0.00000  Uiso   1.00
H1022  H     0.97459   0.06818   0.74342   0.00000  Uiso   1.00
C1023  C     0.97457   0.08427   0.67921   0.00000  Uiso   1.00
H1024  H     0.96050   0.05299   0.67588   0.00000  Uiso   1.00
H1025  H     0.68100   0.08435   0.65834   0.00000  Uiso   1.00
H1026  H     0.95560   0.10751   0.66551   0.00000  Uiso   1.00
N1027  N     0.69914   0.23537   0.78575   0.00000  Uiso   1.00
H1028  H     0.71017   0.22726   0.81237   0.00000  Uiso   1.00
C1029  C     0.67430   0.27558   0.79177   0.00000  Uiso   1.00
H1030  H     0.69607   0.29955   0.80061   0.00000  Uiso   1.00
H1031  H     0.97142   0.27439   0.82073   0.00000  Uiso   1.00
H1032  H     0.67039   0.28503   0.75891   0.00000  Uiso   1.00
O1033  O     0.12846   0.56108   0.75001   0.00000  Uiso   1.00
O1034  O     0.20488   0.43892   0.75000   0.00000  Uiso   1.00
O1035  O     0.20490   0.56107   0.75000   0.00000  Uiso   1.00
O1036  O     0.12843   0.43893   0.75000   0.00000  Uiso   1.00
C1037  C     0.16653   0.57988   0.74961   0.00000  Uiso   1.00
C1038  C     0.16675   0.42013   0.75048   0.00000  Uiso   1.00
O1039  O     0.10661   0.50001   0.81613   0.00000  Uiso   1.00
O1040  O     0.22672   0.49999   0.68388   0.00000  Uiso   1.00
O1041  O     0.18305   0.50000   0.81612   0.00000  Uiso   1.00
O1042  O     0.15028   0.50000   0.68388   0.00000  Uiso   1.00
C1043  C     0.13618   0.50062   0.83797   0.00000  Uiso   1.00
C1044  C     0.19716   0.50080   0.66211   0.00000  Uiso   1.00
Zn1045 Zn    0.11562   0.50001   0.75000   0.00000  Uiso   1.00
Zn1046 Zn    0.21771   0.49999   0.75000   0.00000  Uiso   1.00
C1047  C     0.11712   0.50263   0.88882   0.00000  Uiso   1.00
C1048  C     0.21568   0.50818   0.61212   0.00000  Uiso   1.00
C1049  C     0.05366   0.49261   0.96441   0.00000  Uiso   1.00
C1050  C     0.26831   0.54470   0.54409   0.00000  Uiso   1.00
C1051  C     0.06863   0.49448   0.91608   0.00000  Uiso   1.00
C1052  C     0.25687   0.53202   0.58993   0.00000  Uiso   1.00
C1053  C     0.14930   0.51226   0.91011   0.00000  Uiso   1.00
C1054  C     0.18601   0.49769   0.58870   0.00000  Uiso   1.00
C1055  C     0.13496   0.51192   0.95845   0.00000  Uiso   1.00
C1056  C     0.19248   0.51542   0.54572   0.00000  Uiso   1.00
C1057  C     0.08719   0.49880   0.98594   0.00000  Uiso   1.00
C1058  C     0.23577   0.53749   0.52170   0.00000  Uiso   1.00
C1059  C     0.16829   0.52185   0.97946   0.00000  Uiso   1.00
C1060  C     0.15670   0.51145   0.52641   0.00000  Uiso   1.00
C1061  C     0.10907   0.49880   0.55342   0.00000  Uiso   1.00
C1062  C     0.21219   0.54285   0.95533   0.00000  Uiso   1.00
C1063  C     0.07444   0.49250   0.53401   0.00000  Uiso   1.00
C1064  C     0.24504   0.55178   0.97631   0.00000  Uiso   1.00
H1065  H     0.15685   0.47646   0.60562   0.00000  Uiso   1.00
H1066  H     0.18664   0.51772   0.88812   0.00000  Uiso   1.00
H1067  H     0.27903   0.54225   0.60850   0.00000  Uiso   1.00
H1068  H     0.04279   0.48816   0.90007   0.00000  Uiso   1.00
H1069  H     0.01600   0.48580   0.98433   0.00000  Uiso   1.00
H1070  H     0.30168   0.56136   0.52731   0.00000  Uiso   1.00
H1071  H     0.09724   0.49459   0.59055   0.00000  Uiso   1.00
H1072  H     0.22030   0.55554   0.92105   0.00000  Uiso   1.00
C1073  C     0.18843   0.64423   0.77582   0.00000  Uiso   1.00
C1074  C     0.14441   0.35579   0.72477   0.00000  Uiso   1.00
H1075  H     0.20456   0.62654   0.79627   0.00000  Uiso   1.00
H1076  H     0.12832   0.37345   0.70428   0.00000  Uiso   1.00
C1077  C     0.18826   0.35390   0.77754   0.00000  Uiso   1.00
C1078  C     0.14438   0.64615   0.72322   0.00000  Uiso   1.00
C1079  C     0.16664   0.37598   0.75120   0.00000  Uiso   1.00
C1080  C     0.16635   0.62405   0.74925   0.00000  Uiso   1.00
C1081  C     0.31586   0.46503   0.73655   0.00000  Uiso   1.00
C1082  C     0.01691   0.53435   0.76586   0.00000  Uiso   1.00
C1083  C     0.03053   0.46566   0.73573   0.00000  Uiso   1.00
C1084  C     0.30266   0.53431   0.76465   0.00000  Uiso   1.00
H1085  H     0.05365   0.43801   0.72468   0.00000  Uiso   1.00
H1086  H     0.27835   0.56102   0.77701   0.00000  Uiso   1.00
N1087  N     0.04759   0.50001   0.75001   0.00000  Uiso   1.00
N1088  N     0.28574   0.49999   0.74999   0.00000  Uiso   1.00
N1089  N     0.02760   0.47775   0.56373   0.00000  Uiso   1.00
O1090  O     0.00949   0.44510   0.55158   0.00000  Uiso   1.00
O1091  O     0.00900   0.49031   0.60699   0.00000  Uiso   1.00
N1092  N     0.28732   0.57554   0.95089   0.00000  Uiso   1.00
O1093  O     0.31187   0.56732   0.90695   0.00000  Uiso   1.00
O1094  O     0.29589   0.60985   0.96884   0.00000  Uiso   1.00
N1095  N     0.20883   0.37465   0.80625   0.00000  Uiso   1.00
H1096  H     0.23759   0.35849   0.80967   0.00000  Uiso   1.00
C1097  C     0.17366   0.38898   0.85082   0.00000  Uiso   1.00
H1098  H     0.15669   0.36179   0.87291   0.00000  Uiso   1.00
H1099  H     0.14484   0.40877   0.84614   0.00000  Uiso   1.00
H1100  H     0.19215   0.40804   0.86894   0.00000  Uiso   1.00
N1101  N     0.12347   0.62544   0.69480   0.00000  Uiso   1.00
H1102  H     0.09399   0.64123   0.69240   0.00000  Uiso   1.00
C1103  C     0.15828   0.61231   0.64956   0.00000  Uiso   1.00
H1104  H     0.17396   0.64006   0.62793   0.00000  Uiso   1.00
H1105  H     0.13992   0.59302   0.63153   0.00000  Uiso   1.00
H1106  H     0.18807   0.59321   0.65325   0.00000  Uiso   1.00
N1107  N     0.29800   0.42644   0.72770   0.00000  Uiso   1.00
H1108  H     0.30792   0.40151   0.74342   0.00000  Uiso   1.00
C1109  C     0.30790   0.41761   0.67921   0.00000  Uiso   1.00
H1110  H     0.29383   0.38632   0.67588   0.00000  Uiso   1.00
H1111  H     0.01433   0.41768   0.65834   0.00000  Uiso   1.00
H1112  H     0.28894   0.44084   0.66551   0.00000  Uiso   1.00
N1113  N     0.03247   0.56871   0.78575   0.00000  Uiso   1.00
H1114  H     0.04351   0.56059   0.81237   0.00000  Uiso   1.00
C1115  C     0.00763   0.60892   0.79177   0.00000  Uiso   1.00
H1116  H     0.02940   0.63288   0.80061   0.00000  Uiso   1.00
H1117  H     0.30475   0.60772   0.82073   0.00000  Uiso   1.00
H1118  H     0.00372   0.61837   0.75891   0.00000  Uiso   1.00
O1119  O     0.46179   0.56108   0.75001   0.00000  Uiso   1.00
O1120  O     0.53821   0.43892   0.75000   0.00000  Uiso   1.00
O1121  O     0.53823   0.56107   0.75000   0.00000  Uiso   1.00
O1122  O     0.46177   0.43893   0.75000   0.00000  Uiso   1.00
C1123  C     0.49987   0.57988   0.74961   0.00000  Uiso   1.00
C1124  C     0.50008   0.42013   0.75048   0.00000  Uiso   1.00
O1125  O     0.43994   0.50001   0.81613   0.00000  Uiso   1.00
O1126  O     0.56006   0.49999   0.68388   0.00000  Uiso   1.00
O1127  O     0.51639   0.50000   0.81612   0.00000  Uiso   1.00
O1128  O     0.48361   0.50000   0.68388   0.00000  Uiso   1.00
C1129  C     0.46951   0.50062   0.83797   0.00000  Uiso   1.00
C1130  C     0.53049   0.50080   0.66211   0.00000  Uiso   1.00
Zn1131 Zn    0.44896   0.50001   0.75000   0.00000  Uiso   1.00
Zn1132 Zn    0.55104   0.49999   0.75000   0.00000  Uiso   1.00
C1133  C     0.45045   0.50263   0.88882   0.00000  Uiso   1.00
C1134  C     0.54902   0.50818   0.61212   0.00000  Uiso   1.00
C1135  C     0.38699   0.49261   0.96441   0.00000  Uiso   1.00
C1136  C     0.60164   0.54470   0.54409   0.00000  Uiso   1.00
C1137  C     0.40196   0.49448   0.91608   0.00000  Uiso   1.00
C1138  C     0.59020   0.53202   0.58993   0.00000  Uiso   1.00
C1139  C     0.48263   0.51226   0.91011   0.00000  Uiso   1.00
C1140  C     0.51934   0.49769   0.58870   0.00000  Uiso   1.00
C1141  C     0.46829   0.51192   0.95845   0.00000  Uiso   1.00
C1142  C     0.52581   0.51542   0.54572   0.00000  Uiso   1.00
C1143  C     0.42052   0.49880   0.98594   0.00000  Uiso   1.00
C1144  C     0.56910   0.53749   0.52170   0.00000  Uiso   1.00
C1145  C     0.50162   0.52185   0.97946   0.00000  Uiso   1.00
C1146  C     0.49003   0.51145   0.52641   0.00000  Uiso   1.00
C1147  C     0.44241   0.49880   0.55342   0.00000  Uiso   1.00
C1148  C     0.54553   0.54285   0.95533   0.00000  Uiso   1.00
C1149  C     0.40778   0.49250   0.53401   0.00000  Uiso   1.00
C1150  C     0.57837   0.55178   0.97631   0.00000  Uiso   1.00
H1151  H     0.49018   0.47646   0.60562   0.00000  Uiso   1.00
H1152  H     0.51997   0.51772   0.88812   0.00000  Uiso   1.00
H1153  H     0.61237   0.54225   0.60850   0.00000  Uiso   1.00
H1154  H     0.37613   0.48816   0.90007   0.00000  Uiso   1.00
H1155  H     0.34934   0.48580   0.98433   0.00000  Uiso   1.00
H1156  H     0.63501   0.56136   0.52731   0.00000  Uiso   1.00
H1157  H     0.43058   0.49459   0.59055   0.00000  Uiso   1.00
H1158  H     0.55363   0.55554   0.92105   0.00000  Uiso   1.00
C1159  C     0.52177   0.64423   0.77582   0.00000  Uiso   1.00
C1160  C     0.47775   0.35579   0.72477   0.00000  Uiso   1.00
H1161  H     0.53790   0.62654   0.79627   0.00000  Uiso   1.00
H1162  H     0.46165   0.37345   0.70428   0.00000  Uiso   1.00
C1163  C     0.52160   0.35390   0.77754   0.00000  Uiso   1.00
C1164  C     0.47772   0.64615   0.72322   0.00000  Uiso   1.00
C1165  C     0.49998   0.37598   0.75120   0.00000  Uiso   1.00
C1166  C     0.49969   0.62405   0.74925   0.00000  Uiso   1.00
C1167  C     0.64919   0.46503   0.73655   0.00000  Uiso   1.00
C1168  C     0.35025   0.53435   0.76586   0.00000  Uiso   1.00
C1169  C     0.36386   0.46566   0.73573   0.00000  Uiso   1.00
C1170  C     0.63599   0.53431   0.76465   0.00000  Uiso   1.00
H1171  H     0.38698   0.43801   0.72468   0.00000  Uiso   1.00
H1172  H     0.61168   0.56102   0.77701   0.00000  Uiso   1.00
N1173  N     0.38093   0.50001   0.75001   0.00000  Uiso   1.00
N1174  N     0.61907   0.49999   0.74999   0.00000  Uiso   1.00
N1175  N     0.36093   0.47775   0.56373   0.00000  Uiso   1.00
O1176  O     0.34283   0.44510   0.55158   0.00000  Uiso   1.00
O1177  O     0.34234   0.49031   0.60699   0.00000  Uiso   1.00
N1178  N     0.62065   0.57554   0.95089   0.00000  Uiso   1.00
O1179  O     0.64521   0.56732   0.90695   0.00000  Uiso   1.00
O1180  O     0.62922   0.60985   0.96884   0.00000  Uiso   1.00
N1181  N     0.54216   0.37465   0.80625   0.00000  Uiso   1.00
H1182  H     0.57093   0.35849   0.80967   0.00000  Uiso   1.00
C1183  C     0.50699   0.38898   0.85082   0.00000  Uiso   1.00
H1184  H     0.49002   0.36179   0.87291   0.00000  Uiso   1.00
H1185  H     0.47817   0.40877   0.84614   0.00000  Uiso   1.00
H1186  H     0.52548   0.40804   0.86894   0.00000  Uiso   1.00
N1187  N     0.45680   0.62544   0.69480   0.00000  Uiso   1.00
H1188  H     0.42732   0.64123   0.69240   0.00000  Uiso   1.00
C1189  C     0.49162   0.61231   0.64956   0.00000  Uiso   1.00
H1190  H     0.50729   0.64006   0.62793   0.00000  Uiso   1.00
H1191  H     0.47325   0.59302   0.63153   0.00000  Uiso   1.00
H1192  H     0.52140   0.59321   0.65325   0.00000  Uiso   1.00
N1193  N     0.63134   0.42644   0.72770   0.00000  Uiso   1.00
H1194  H     0.64125   0.40151   0.74342   0.00000  Uiso   1.00
C1195  C     0.64123   0.41761   0.67921   0.00000  Uiso   1.00
H1196  H     0.62716   0.38632   0.67588   0.00000  Uiso   1.00
H1197  H     0.34767   0.41768   0.65834   0.00000  Uiso   1.00
H1198  H     0.62227   0.44084   0.66551   0.00000  Uiso   1.00
N1199  N     0.36581   0.56871   0.78575   0.00000  Uiso   1.00
H1200  H     0.37684   0.56059   0.81237   0.00000  Uiso   1.00
C1201  C     0.34096   0.60892   0.79177   0.00000  Uiso   1.00
H1202  H     0.36274   0.63288   0.80061   0.00000  Uiso   1.00
H1203  H     0.63809   0.60772   0.82073   0.00000  Uiso   1.00
H1204  H     0.33706   0.61837   0.75891   0.00000  Uiso   1.00
O1205  O     0.79512   0.56108   0.75001   0.00000  Uiso   1.00
O1206  O     0.87154   0.43892   0.75000   0.00000  Uiso   1.00
O1207  O     0.87157   0.56107   0.75000   0.00000  Uiso   1.00
O1208  O     0.79510   0.43893   0.75000   0.00000  Uiso   1.00
C1209  C     0.83320   0.57988   0.74961   0.00000  Uiso   1.00
C1210  C     0.83341   0.42013   0.75048   0.00000  Uiso   1.00
O1211  O     0.77328   0.50001   0.81613   0.00000  Uiso   1.00
O1212  O     0.89339   0.49999   0.68388   0.00000  Uiso   1.00
O1213  O     0.84972   0.50000   0.81612   0.00000  Uiso   1.00
O1214  O     0.81695   0.50000   0.68388   0.00000  Uiso   1.00
C1215  C     0.80285   0.50062   0.83797   0.00000  Uiso   1.00
C1216  C     0.86383   0.50080   0.66211   0.00000  Uiso   1.00
Zn1217 Zn    0.78229   0.50001   0.75000   0.00000  Uiso   1.00
Zn1218 Zn    0.88438   0.49999   0.75000   0.00000  Uiso   1.00
C1219  C     0.78379   0.50263   0.88882   0.00000  Uiso   1.00
C1220  C     0.88235   0.50818   0.61212   0.00000  Uiso   1.00
C1221  C     0.72033   0.49261   0.96441   0.00000  Uiso   1.00
C1222  C     0.93497   0.54470   0.54409   0.00000  Uiso   1.00
C1223  C     0.73529   0.49448   0.91608   0.00000  Uiso   1.00
C1224  C     0.92354   0.53202   0.58993   0.00000  Uiso   1.00
C1225  C     0.81597   0.51226   0.91011   0.00000  Uiso   1.00
C1226  C     0.85267   0.49769   0.58870   0.00000  Uiso   1.00
C1227  C     0.80163   0.51192   0.95845   0.00000  Uiso   1.00
C1228  C     0.85914   0.51542   0.54572   0.00000  Uiso   1.00
C1229  C     0.75385   0.49880   0.98594   0.00000  Uiso   1.00
C1230  C     0.90244   0.53749   0.52170   0.00000  Uiso   1.00
C1231  C     0.83496   0.52185   0.97946   0.00000  Uiso   1.00
C1232  C     0.82336   0.51145   0.52641   0.00000  Uiso   1.00
C1233  C     0.77574   0.49880   0.55342   0.00000  Uiso   1.00
C1234  C     0.87886   0.54285   0.95533   0.00000  Uiso   1.00
C1235  C     0.74111   0.49250   0.53401   0.00000  Uiso   1.00
C1236  C     0.91171   0.55178   0.97631   0.00000  Uiso   1.00
H1237  H     0.82352   0.47646   0.60562   0.00000  Uiso   1.00
H1238  H     0.85331   0.51772   0.88812   0.00000  Uiso   1.00
H1239  H     0.94570   0.54225   0.60850   0.00000  Uiso   1.00
H1240  H     0.70946   0.48816   0.90007   0.00000  Uiso   1.00
H1241  H     0.68267   0.48580   0.98433   0.00000  Uiso   1.00
H1242  H     0.96834   0.56136   0.52731   0.00000  Uiso   1.00
H1243  H     0.76391   0.49459   0.59055   0.00000  Uiso   1.00
H1244  H     0.88696   0.55554   0.92105   0.00000  Uiso   1.00
C1245  C     0.85510   0.64423   0.77582   0.00000  Uiso   1.00
C1246  C     0.81108   0.35579   0.72477   0.00000  Uiso   1.00
H1247  H     0.87123   0.62654   0.79627   0.00000  Uiso   1.00
H1248  H     0.79498   0.37345   0.70428   0.00000  Uiso   1.00
C1249  C     0.85493   0.35390   0.77754   0.00000  Uiso   1.00
C1250  C     0.81105   0.64615   0.72322   0.00000  Uiso   1.00
C1251  C     0.83331   0.37598   0.75120   0.00000  Uiso   1.00
C1252  C     0.83302   0.62405   0.74925   0.00000  Uiso   1.00
C1253  C     0.98252   0.46503   0.73655   0.00000  Uiso   1.00
C1254  C     0.68358   0.53435   0.76586   0.00000  Uiso   1.00
C1255  C     0.69720   0.46566   0.73573   0.00000  Uiso   1.00
C1256  C     0.96932   0.53431   0.76465   0.00000  Uiso   1.00
H1257  H     0.72032   0.43801   0.72468   0.00000  Uiso   1.00
H1258  H     0.94502   0.56102   0.77701   0.00000  Uiso   1.00
N1259  N     0.71426   0.50001   0.75001   0.00000  Uiso   1.00
N1260  N     0.95241   0.49999   0.74999   0.00000  Uiso   1.00
N1261  N     0.69427   0.47775   0.56373   0.00000  Uiso   1.00
O1262  O     0.67616   0.44510   0.55158   0.00000  Uiso   1.00
O1263  O     0.67567   0.49031   0.60699   0.00000  Uiso   1.00
N1264  N     0.95398   0.57554   0.95089   0.00000  Uiso   1.00
O1265  O     0.97854   0.56732   0.90695   0.00000  Uiso   1.00
O1266  O     0.96256   0.60985   0.96884   0.00000  Uiso   1.00
N1267  N     0.87549   0.37465   0.80625   0.00000  Uiso   1.00
H1268  H     0.90426   0.35849   0.80967   0.00000  Uiso   1.00
C1269  C     0.84032   0.38898   0.85082   0.00000  Uiso   1.00
H1270  H     0.82336   0.36179   0.87291   0.00000  Uiso   1.00
H1271  H     0.81150   0.40877   0.84614   0.00000  Uiso   1.00
H1272  H     0.85882   0.40804   0.86894   0.00000  Uiso   1.00
N1273  N     0.79014   0.62544   0.69480   0.00000  Uiso   1.00
H1274  H     0.76066   0.64123   0.69240   0.00000  Uiso   1.00
C1275  C     0.82495   0.61231   0.64956   0.00000  Uiso   1.00
H1276  H     0.84063   0.64006   0.62793   0.00000  Uiso   1.00
H1277  H     0.80658   0.59302   0.63153   0.00000  Uiso   1.00
H1278  H     0.85474   0.59321   0.65325   0.00000  Uiso   1.00
N1279  N     0.96467   0.42644   0.72770   0.00000  Uiso   1.00
H1280  H     0.97459   0.40151   0.74342   0.00000  Uiso   1.00
C1281  C     0.97457   0.41761   0.67921   0.00000  Uiso   1.00
H1282  H     0.96050   0.38632   0.67588   0.00000  Uiso   1.00
H1283  H     0.68100   0.41768   0.65834   0.00000  Uiso   1.00
H1284  H     0.95560   0.44084   0.66551   0.00000  Uiso   1.00
N1285  N     0.69914   0.56871   0.78575   0.00000  Uiso   1.00
H1286  H     0.71017   0.56059   0.81237   0.00000  Uiso   1.00
C1287  C     0.67430   0.60892   0.79177   0.00000  Uiso   1.00
H1288  H     0.69607   0.63288   0.80061   0.00000  Uiso   1.00
H1289  H     0.97142   0.60772   0.82073   0.00000  Uiso   1.00
H1290  H     0.67039   0.61837   0.75891   0.00000  Uiso   1.00
O1291  O     0.12846   0.89442   0.75001   0.00000  Uiso   1.00
O1292  O     0.20488   0.77225   0.75000   0.00000  Uiso   1.00
O1293  O     0.20490   0.89441   0.75000   0.00000  Uiso   1.00
O1294  O     0.12843   0.77226   0.75000   0.00000  Uiso   1.00
C1295  C     0.16653   0.91321   0.74961   0.00000  Uiso   1.00
C1296  C     0.16675   0.75347   0.75048   0.00000  Uiso   1.00
O1297  O     0.10661   0.83334   0.81613   0.00000  Uiso   1.00
O1298  O     0.22672   0.83333   0.68388   0.00000  Uiso   1.00
O1299  O     0.18305   0.83333   0.81612   0.00000  Uiso   1.00
O1300  O     0.15028   0.83334   0.68388   0.00000  Uiso   1.00
C1301  C     0.13618   0.83396   0.83797   0.00000  Uiso   1.00
C1302  C     0.19716   0.83414   0.66211   0.00000  Uiso   1.00
Zn1303 Zn    0.11562   0.83334   0.75000   0.00000  Uiso   1.00
Zn1304 Zn    0.21771   0.83333   0.75000   0.00000  Uiso   1.00
C1305  C     0.11712   0.83597   0.88882   0.00000  Uiso   1.00
C1306  C     0.21568   0.84151   0.61212   0.00000  Uiso   1.00
C1307  C     0.05366   0.82594   0.96441   0.00000  Uiso   1.00
C1308  C     0.26831   0.87804   0.54409   0.00000  Uiso   1.00
C1309  C     0.06863   0.82781   0.91608   0.00000  Uiso   1.00
C1310  C     0.25687   0.86536   0.58993   0.00000  Uiso   1.00
C1311  C     0.14930   0.84559   0.91011   0.00000  Uiso   1.00
C1312  C     0.18601   0.83102   0.58870   0.00000  Uiso   1.00
C1313  C     0.13496   0.84525   0.95845   0.00000  Uiso   1.00
C1314  C     0.19248   0.84876   0.54572   0.00000  Uiso   1.00
C1315  C     0.08719   0.83213   0.98594   0.00000  Uiso   1.00
C1316  C     0.23577   0.87083   0.52170   0.00000  Uiso   1.00
C1317  C     0.16829   0.85518   0.97946   0.00000  Uiso   1.00
C1318  C     0.15670   0.84478   0.52641   0.00000  Uiso   1.00
C1319  C     0.10907   0.83214   0.55342   0.00000  Uiso   1.00
C1320  C     0.21219   0.87618   0.95533   0.00000  Uiso   1.00
C1321  C     0.07444   0.82584   0.53401   0.00000  Uiso   1.00
C1322  C     0.24504   0.88511   0.97631   0.00000  Uiso   1.00
H1323  H     0.15685   0.80979   0.60562   0.00000  Uiso   1.00
H1324  H     0.18664   0.85106   0.88812   0.00000  Uiso   1.00
H1325  H     0.27903   0.87558   0.60850   0.00000  Uiso   1.00
H1326  H     0.04279   0.82150   0.90007   0.00000  Uiso   1.00
H1327  H     0.01600   0.81913   0.98433   0.00000  Uiso   1.00
H1328  H     0.30168   0.89470   0.52731   0.00000  Uiso   1.00
H1329  H     0.09724   0.82792   0.59055   0.00000  Uiso   1.00
H1330  H     0.22030   0.88887   0.92105   0.00000  Uiso   1.00
C1331  C     0.18843   0.97756   0.77582   0.00000  Uiso   1.00
C1332  C     0.14441   0.68913   0.72477   0.00000  Uiso   1.00
H1333  H     0.20456   0.95988   0.79627   0.00000  Uiso   1.00
H1334  H     0.12832   0.70678   0.70428   0.00000  Uiso   1.00
C1335  C     0.18826   0.68723   0.77754   0.00000  Uiso   1.00
C1336  C     0.14438   0.97948   0.72322   0.00000  Uiso   1.00
C1337  C     0.16664   0.70931   0.75120   0.00000  Uiso   1.00
C1338  C     0.16635   0.95738   0.74925   0.00000  Uiso   1.00
C1339  C     0.31586   0.79836   0.73655   0.00000  Uiso   1.00
C1340  C     0.01691   0.86769   0.76586   0.00000  Uiso   1.00
C1341  C     0.03053   0.79899   0.73573   0.00000  Uiso   1.00
C1342  C     0.30266   0.86764   0.76465   0.00000  Uiso   1.00
H1343  H     0.05365   0.77134   0.72468   0.00000  Uiso   1.00
H1344  H     0.27835   0.89435   0.77701   0.00000  Uiso   1.00
N1345  N     0.04759   0.83334   0.75001   0.00000  Uiso   1.00
N1346  N     0.28574   0.83332   0.74999   0.00000  Uiso   1.00
N1347  N     0.02760   0.81108   0.56373   0.00000  Uiso   1.00
O1348  O     0.00949   0.77844   0.55158   0.00000  Uiso   1.00
O1349  O     0.00900   0.82365   0.60699   0.00000  Uiso   1.00
N1350  N     0.28732   0.90887   0.95089   0.00000  Uiso   1.00
O1351  O     0.31187   0.90066   0.90695   0.00000  Uiso   1.00
O1352  O     0.29589   0.94319   0.96884   0.00000  Uiso   1.00
N1353  N     0.20883   0.70798   0.80625   0.00000  Uiso   1.00
H1354  H     0.23759   0.69183   0.80967   0.00000  Uiso   1.00
C1355  C     0.17366   0.72231   0.85082   0.00000  Uiso   1.00
H1356  H     0.15669   0.69513   0.87291   0.00000  Uiso   1.00
H1357  H     0.14484   0.74210   0.84614   0.00000  Uiso   1.00
H1358  H     0.19215   0.74137   0.86894   0.00000  Uiso   1.00
N1359  N     0.12347   0.95877   0.69480   0.00000  Uiso   1.00
H1360  H     0.09399   0.97456   0.69240   0.00000  Uiso   1.00
C1361  C     0.15828   0.94565   0.64956   0.00000  Uiso   1.00
H1362  H     0.17396   0.97339   0.62793   0.00000  Uiso   1.00
H1363  H     0.13992   0.92635   0.63153   0.00000  Uiso   1.00
H1364  H     0.18807   0.92654   0.65325   0.00000  Uiso   1.00
N1365  N     0.29800   0.75977   0.72770   0.00000  Uiso   1.00
H1366  H     0.30792   0.73485   0.74342   0.00000  Uiso   1.00
C1367  C     0.30790   0.75094   0.67921   0.00000  Uiso   1.00
H1368  H     0.29383   0.71966   0.67588   0.00000  Uiso   1.00
H1369  H     0.01433   0.75101   0.65834   0.00000  Uiso   1.00
H1370  H     0.28894   0.77418   0.66551   0.00000  Uiso   1.00
N1371  N     0.03247   0.90204   0.78575   0.00000  Uiso   1.00
H1372  H     0.04351   0.89393   0.81237   0.00000  Uiso   1.00
C1373  C     0.00763   0.94225   0.79177   0.00000  Uiso   1.00
H1374  H     0.02940   0.96621   0.80061   0.00000  Uiso   1.00
H1375  H     0.30475   0.94105   0.82073   0.00000  Uiso   1.00
H1376  H     0.00372   0.95170   0.75891   0.00000  Uiso   1.00
O1377  O     0.46179   0.89442   0.75001   0.00000  Uiso   1.00
O1378  O     0.53821   0.77225   0.75000   0.00000  Uiso   1.00
O1379  O     0.53823   0.89441   0.75000   0.00000  Uiso   1.00
O1380  O     0.46177   0.77226   0.75000   0.00000  Uiso   1.00
C1381  C     0.49987   0.91321   0.74961   0.00000  Uiso   1.00
C1382  C     0.50008   0.75347   0.75048   0.00000  Uiso   1.00
O1383  O     0.43994   0.83334   0.81613   0.00000  Uiso   1.00
O1384  O     0.56006   0.83333   0.68388   0.00000  Uiso   1.00
O1385  O     0.51639   0.83333   0.81612   0.00000  Uiso   1.00
O1386  O     0.48361   0.83334   0.68388   0.00000  Uiso   1.00
C1387  C     0.46951   0.83396   0.83797   0.00000  Uiso   1.00
C1388  C     0.53049   0.83414   0.66211   0.00000  Uiso   1.00
Zn1389 Zn    0.44896   0.83334   0.75000   0.00000  Uiso   1.00
Zn1390 Zn    0.55104   0.83333   0.75000   0.00000  Uiso   1.00
C1391  C     0.45045   0.83597   0.88882   0.00000  Uiso   1.00
C1392  C     0.54902   0.84151   0.61212   0.00000  Uiso   1.00
C1393  C     0.38699   0.82594   0.96441   0.00000  Uiso   1.00
C1394  C     0.60164   0.87804   0.54409   0.00000  Uiso   1.00
C1395  C     0.40196   0.82781   0.91608   0.00000  Uiso   1.00
C1396  C     0.59020   0.86536   0.58993   0.00000  Uiso   1.00
C1397  C     0.48263   0.84559   0.91011   0.00000  Uiso   1.00
C1398  C     0.51934   0.83102   0.58870   0.00000  Uiso   1.00
C1399  C     0.46829   0.84525   0.95845   0.00000  Uiso   1.00
C1400  C     0.52581   0.84876   0.54572   0.00000  Uiso   1.00
C1401  C     0.42052   0.83213   0.98594   0.00000  Uiso   1.00
C1402  C     0.56910   0.87083   0.52170   0.00000  Uiso   1.00
C1403  C     0.50162   0.85518   0.97946   0.00000  Uiso   1.00
C1404  C     0.49003   0.84478   0.52641   0.00000  Uiso   1.00
C1405  C     0.44241   0.83214   0.55342   0.00000  Uiso   1.00
C1406  C     0.54553   0.87618   0.95533   0.00000  Uiso   1.00
C1407  C     0.40778   0.82584   0.53401   0.00000  Uiso   1.00
C1408  C     0.57837   0.88511   0.97631   0.00000  Uiso   1.00
H1409  H     0.49018   0.80979   0.60562   0.00000  Uiso   1.00
H1410  H     0.51997   0.85106   0.88812   0.00000  Uiso   1.00
H1411  H     0.61237   0.87558   0.60850   0.00000  Uiso   1.00
H1412  H     0.37613   0.82150   0.90007   0.00000  Uiso   1.00
H1413  H     0.34934   0.81913   0.98433   0.00000  Uiso   1.00
H1414  H     0.63501   0.89470   0.52731   0.00000  Uiso   1.00
H1415  H     0.43058   0.82792   0.59055   0.00000  Uiso   1.00
H1416  H     0.55363   0.88887   0.92105   0.00000  Uiso   1.00
C1417  C     0.52177   0.97756   0.77582   0.00000  Uiso   1.00
C1418  C     0.47775   0.68913   0.72477   0.00000  Uiso   1.00
H1419  H     0.53790   0.95988   0.79627   0.00000  Uiso   1.00
H1420  H     0.46165   0.70678   0.70428   0.00000  Uiso   1.00
C1421  C     0.52160   0.68723   0.77754   0.00000  Uiso   1.00
C1422  C     0.47772   0.97948   0.72322   0.00000  Uiso   1.00
C1423  C     0.49998   0.70931   0.75120   0.00000  Uiso   1.00
C1424  C     0.49969   0.95738   0.74925   0.00000  Uiso   1.00
C1425  C     0.64919   0.79836   0.73655   0.00000  Uiso   1.00
C1426  C     0.35025   0.86769   0.76586   0.00000  Uiso   1.00
C1427  C     0.36386   0.79899   0.73573   0.00000  Uiso   1.00
C1428  C     0.63599   0.86764   0.76465   0.00000  Uiso   1.00
H1429  H     0.38698   0.77134   0.72468   0.00000  Uiso   1.00
H1430  H     0.61168   0.89435   0.77701   0.00000  Uiso   1.00
N1431  N     0.38093   0.83334   0.75001   0.00000  Uiso   1.00
N1432  N     0.61907   0.83332   0.74999   0.00000  Uiso   1.00
N1433  N     0.36093   0.81108   0.56373   0.00000  Uiso   1.00
O1434  O     0.34283   0.77844   0.55158   0.00000  Uiso   1.00
O1435  O     0.34234   0.82365   0.60699   0.00000  Uiso   1.00
N1436  N     0.62065   0.90887   0.95089   0.00000  Uiso   1.00
O1437  O     0.64521   0.90066   0.90695   0.00000  Uiso   1.00
O1438  O     0.62922   0.94319   0.96884   0.00000  Uiso   1.00
N1439  N     0.54216   0.70798   0.80625   0.00000  Uiso   1.00
H1440  H     0.57093   0.69183   0.80967   0.00000  Uiso   1.00
C1441  C     0.50699   0.72231   0.85082   0.00000  Uiso   1.00
H1442  H     0.49002   0.69513   0.87291   0.00000  Uiso   1.00
H1443  H     0.47817   0.74210   0.84614   0.00000  Uiso   1.00
H1444  H     0.52548   0.74137   0.86894   0.00000  Uiso   1.00
N1445  N     0.45680   0.95877   0.69480   0.00000  Uiso   1.00
H1446  H     0.42732   0.97456   0.69240   0.00000  Uiso   1.00
C1447  C     0.49162   0.94565   0.64956   0.00000  Uiso   1.00
H1448  H     0.50729   0.97339   0.62793   0.00000  Uiso   1.00
H1449  H     0.47325   0.92635   0.63153   0.00000  Uiso   1.00
H1450  H     0.52140   0.92654   0.65325   0.00000  Uiso   1.00
N1451  N     0.63134   0.75977   0.72770   0.00000  Uiso   1.00
H1452  H     0.64125   0.73485   0.74342   0.00000  Uiso   1.00
C1453  C     0.64123   0.75094   0.67921   0.00000  Uiso   1.00
H1454  H     0.62716   0.71966   0.67588   0.00000  Uiso   1.00
H1455  H     0.34767   0.75101   0.65834   0.00000  Uiso   1.00
H1456  H     0.62227   0.77418   0.66551   0.00000  Uiso   1.00
N1457  N     0.36581   0.90204   0.78575   0.00000  Uiso   1.00
H1458  H     0.37684   0.89393   0.81237   0.00000  Uiso   1.00
C1459  C     0.34096   0.94225   0.79177   0.00000  Uiso   1.00
H1460  H     0.36274   0.96621   0.80061   0.00000  Uiso   1.00
H1461  H     0.63809   0.94105   0.82073   0.00000  Uiso   1.00
H1462  H     0.33706   0.95170   0.75891   0.00000  Uiso   1.00
O1463  O     0.79512   0.89442   0.75001   0.00000  Uiso   1.00
O1464  O     0.87154   0.77225   0.75000   0.00000  Uiso   1.00
O1465  O     0.87157   0.89441   0.75000   0.00000  Uiso   1.00
O1466  O     0.79510   0.77226   0.75000   0.00000  Uiso   1.00
C1467  C     0.83320   0.91321   0.74961   0.00000  Uiso   1.00
C1468  C     0.83341   0.75347   0.75048   0.00000  Uiso   1.00
O1469  O     0.77328   0.83334   0.81613   0.00000  Uiso   1.00
O1470  O     0.89339   0.83333   0.68388   0.00000  Uiso   1.00
O1471  O     0.84972   0.83333   0.81612   0.00000  Uiso   1.00
O1472  O     0.81695   0.83334   0.68388   0.00000  Uiso   1.00
C1473  C     0.80285   0.83396   0.83797   0.00000  Uiso   1.00
C1474  C     0.86383   0.83414   0.66211   0.00000  Uiso   1.00
Zn1475 Zn    0.78229   0.83334   0.75000   0.00000  Uiso   1.00
Zn1476 Zn    0.88438   0.83333   0.75000   0.00000  Uiso   1.00
C1477  C     0.78379   0.83597   0.88882   0.00000  Uiso   1.00
C1478  C     0.88235   0.84151   0.61212   0.00000  Uiso   1.00
C1479  C     0.72033   0.82594   0.96441   0.00000  Uiso   1.00
C1480  C     0.93497   0.87804   0.54409   0.00000  Uiso   1.00
C1481  C     0.73529   0.82781   0.91608   0.00000  Uiso   1.00
C1482  C     0.92354   0.86536   0.58993   0.00000  Uiso   1.00
C1483  C     0.81597   0.84559   0.91011   0.00000  Uiso   1.00
C1484  C     0.85267   0.83102   0.58870   0.00000  Uiso   1.00
C1485  C     0.80163   0.84525   0.95845   0.00000  Uiso   1.00
C1486  C     0.85914   0.84876   0.54572   0.00000  Uiso   1.00
C1487  C     0.75385   0.83213   0.98594   0.00000  Uiso   1.00
C1488  C     0.90244   0.87083   0.52170   0.00000  Uiso   1.00
C1489  C     0.83496   0.85518   0.97946   0.00000  Uiso   1.00
C1490  C     0.82336   0.84478   0.52641   0.00000  Uiso   1.00
C1491  C     0.77574   0.83214   0.55342   0.00000  Uiso   1.00
C1492  C     0.87886   0.87618   0.95533   0.00000  Uiso   1.00
C1493  C     0.74111   0.82584   0.53401   0.00000  Uiso   1.00
C1494  C     0.91171   0.88511   0.97631   0.00000  Uiso   1.00
H1495  H     0.82352   0.80979   0.60562   0.00000  Uiso   1.00
H1496  H     0.85331   0.85106   0.88812   0.00000  Uiso   1.00
H1497  H     0.94570   0.87558   0.60850   0.00000  Uiso   1.00
H1498  H     0.70946   0.82150   0.90007   0.00000  Uiso   1.00
H1499  H     0.68267   0.81913   0.98433   0.00000  Uiso   1.00
H1500  H     0.96834   0.89470   0.52731   0.00000  Uiso   1.00
H1501  H     0.76391   0.82792   0.59055   0.00000  Uiso   1.00
H1502  H     0.88696   0.88887   0.92105   0.00000  Uiso   1.00
C1503  C     0.85510   0.97756   0.77582   0.00000  Uiso   1.00
C1504  C     0.81108   0.68913   0.72477   0.00000  Uiso   1.00
H1505  H     0.87123   0.95988   0.79627   0.00000  Uiso   1.00
H1506  H     0.79498   0.70678   0.70428   0.00000  Uiso   1.00
C1507  C     0.85493   0.68723   0.77754   0.00000  Uiso   1.00
C1508  C     0.81105   0.97948   0.72322   0.00000  Uiso   1.00
C1509  C     0.83331   0.70931   0.75120   0.00000  Uiso   1.00
C1510  C     0.83302   0.95738   0.74925   0.00000  Uiso   1.00
C1511  C     0.98252   0.79836   0.73655   0.00000  Uiso   1.00
C1512  C     0.68358   0.86769   0.76586   0.00000  Uiso   1.00
C1513  C     0.69720   0.79899   0.73573   0.00000  Uiso   1.00
C1514  C     0.96932   0.86764   0.76465   0.00000  Uiso   1.00
H1515  H     0.72032   0.77134   0.72468   0.00000  Uiso   1.00
H1516  H     0.94502   0.89435   0.77701   0.00000  Uiso   1.00
N1517  N     0.71426   0.83334   0.75001   0.00000  Uiso   1.00
N1518  N     0.95241   0.83332   0.74999   0.00000  Uiso   1.00
N1519  N     0.69427   0.81108   0.56373   0.00000  Uiso   1.00
O1520  O     0.67616   0.77844   0.55158   0.00000  Uiso   1.00
O1521  O     0.67567   0.82365   0.60699   0.00000  Uiso   1.00
N1522  N     0.95398   0.90887   0.95089   0.00000  Uiso   1.00
O1523  O     0.97854   0.90066   0.90695   0.00000  Uiso   1.00
O1524  O     0.96256   0.94319   0.96884   0.00000  Uiso   1.00
N1525  N     0.87549   0.70798   0.80625   0.00000  Uiso   1.00
H1526  H     0.90426   0.69183   0.80967   0.00000  Uiso   1.00
C1527  C     0.84032   0.72231   0.85082   0.00000  Uiso   1.00
H1528  H     0.82336   0.69513   0.87291   0.00000  Uiso   1.00
H1529  H     0.81150   0.74210   0.84614   0.00000  Uiso   1.00
H1530  H     0.85882   0.74137   0.86894   0.00000  Uiso   1.00
N1531  N     0.79014   0.95877   0.69480   0.00000  Uiso   1.00
H1532  H     0.76066   0.97456   0.69240   0.00000  Uiso   1.00
C1533  C     0.82495   0.94565   0.64956   0.00000  Uiso   1.00
H1534  H     0.84063   0.97339   0.62793   0.00000  Uiso   1.00
H1535  H     0.80658   0.92635   0.63153   0.00000  Uiso   1.00
H1536  H     0.85474   0.92654   0.65325   0.00000  Uiso   1.00
N1537  N     0.96467   0.75977   0.72770   0.00000  Uiso   1.00
H1538  H     0.97459   0.73485   0.74342   0.00000  Uiso   1.00
C1539  C     0.97457   0.75094   0.67921   0.00000  Uiso   1.00
H1540  H     0.96050   0.71966   0.67588   0.00000  Uiso   1.00
H1541  H     0.68100   0.75101   0.65834   0.00000  Uiso   1.00
H1542  H     0.95560   0.77418   0.66551   0.00000  Uiso   1.00
N1543  N     0.69914   0.90204   0.78575   0.00000  Uiso   1.00
H1544  H     0.71017   0.89393   0.81237   0.00000  Uiso   1.00
C1545  C     0.67430   0.94225   0.79177   0.00000  Uiso   1.00
H1546  H     0.69607   0.96621   0.80061   0.00000  Uiso   1.00
H1547  H     0.97142   0.94105   0.82073   0.00000  Uiso   1.00
H1548  H     0.67039   0.95170   0.75891   0.00000  Uiso   1.00
loop_
_geom_bond_atom_site_label_1
_geom_bond_atom_site_label_2
_geom_bond_distance
_geom_bond_site_symmetry_2
_ccdc_geom_bond_type
O1     C5      1.288   .     A
O1     Zn13    1.997   .     S
O2     C6      1.288   .     A
O2     Zn14    1.997   .     S
O3     Zn14    1.984   .     S
O3     C5      1.285   .     A
O4     Zn13    1.984   .     S
O4     C6      1.285   .     A
C5     C48     1.413   .     S
C6     C47     1.413   .     S
O7     C11     1.299   .     A
O7     Zn13    1.964   .     S
O8     C12     1.297   .     A
O8     Zn14    1.964   .     S
O9     Zn14    1.913   .     S
O9     C11     1.298   .     A
O10    C12     1.299   .     A
O10    Zn13    1.913   .     S
C11    C15     1.459   .     S
C12    C16     1.456   .     S
Zn13   N55     2.024   .     S
Zn14   N56     2.024   .     S
C15    C19     1.397   .     A
C15    C21     1.392   .     A
C16    C20     1.397   .     A
C16    C22     1.384   .     A
C17    H37     1.080   .     S
C17    C25     1.412   .     A
C17    C19     1.394   .     A
C18    C26     1.411   .     A
C18    C20     1.394   .     A
C18    H38     1.081   .     S
C19    H36     1.083   .     S
C20    H35     1.081   .     S
C21    H34     1.077   .     S
C21    C23     1.394   .     A
C22    C24     1.396   .     A
C22    H33     1.080   .     S
C23    C27     1.418   .     A
C23    C25     1.423   .     A
C24    C26     1.420   .     A
C24    C28     1.413   .     A
C25    C805    1.408   .     S
C26    C806    1.407   1_554 S
C27    C30     1.417   .     A
C27    C802    1.405   .     S
C28    C29     1.411   .     A
C28    C801    1.405   1_554 S
C29    H39     1.078   .     S
C29    C31     1.394   .     A
C30    H40     1.079   .     S
C30    C32     1.397   .     A
C31    N57     1.436   .     S
C31    C799    1.408   1_554 S
C32    N60     1.437   .     S
C32    C800    1.407   .     S
C41    H43     1.085   .     S
C41    C48     1.396   .     A
C41    C303    1.376   .     S
C42    H44     1.085   .     S
C42    C47     1.396   .     A
C42    C562    1.375   1_545 S
C45    C47     1.403   .     A
C45    N63     1.425   .     S
C45    C557    1.376   1_545 S
C46    N69     1.425   .     S
C46    C48     1.403   .     A
C46    C300    1.375   .     S
C49    N75     1.419   .     S
C49    N56     1.380   .     A
C49    C137    1.419   .     S
C50    N55     1.379   .     A
C50    N81     1.425   .     S
C50    C224    1.431   1_455 S
C51    H53     1.082   .     S
C51    N55     1.359   .     A
C51    C221    1.419   1_455 S
C52    H54     1.079   .     S
C52    N56     1.362   .     A
C52    C136    1.431   .     S
N57    O59     1.300   .     A
N57    O58     1.301   .     A
N60    O62     1.301   .     A
N60    O61     1.301   .     A
N63    C65     1.447   .     S
N63    H64     1.032   .     S
C65    H67     1.111   .     S
C65    H68     1.111   .     S
C65    H66     1.112   .     S
N69    C71     1.446   .     S
N69    H70     1.032   .     S
C71    H73     1.111   .     S
C71    H74     1.110   .     S
C71    H72     1.111   .     S
N75    H76     1.032   .     S
N75    C77     1.444   .     S
C77    H78     1.111   .     S
C77    H80     1.105   .     S
C77    H165    1.112   .     S
H79    C249    1.112   1_455 S
N81    H82     1.031   .     S
N81    C83     1.448   .     S
C83    H84     1.110   .     S
C83    H86     1.111   .     S
C83    H257    1.111   1_455 S
H85    C169    1.111   .     S
O87    C91     1.288   .     A
O87    Zn99    1.997   .     S
O88    C92     1.288   .     A
O88    Zn100   1.997   .     S
O89    Zn100   1.984   .     S
O89    C91     1.285   .     A
O90    Zn99    1.984   .     S
O90    C92     1.285   .     A
C91    C134    1.413   .     S
C92    C133    1.413   .     S
O93    C97     1.299   .     A
O93    Zn99    1.964   .     S
O94    C98     1.297   .     A
O94    Zn100   1.964   .     S
O95    Zn100   1.913   .     S
O95    C97     1.298   .     A
O96    C98     1.299   .     A
O96    Zn99    1.913   .     S
C97    C101    1.459   .     S
C98    C102    1.456   .     S
Zn99   N141    2.024   .     S
Zn100  N142    2.024   .     S
C101   C105    1.397   .     A
C101   C107    1.392   .     A
C102   C106    1.397   .     A
C102   C108    1.384   .     A
C103   H123    1.080   .     S
C103   C111    1.412   .     A
C103   C105    1.394   .     A
C104   C112    1.411   .     A
C104   C106    1.394   .     A
C104   H124    1.081   .     S
C105   H122    1.083   .     S
C106   H121    1.081   .     S
C107   H120    1.077   .     S
C107   C109    1.394   .     A
C108   C110    1.396   .     A
C108   H119    1.080   .     S
C109   C113    1.418   .     A
C109   C111    1.423   .     A
C110   C112    1.420   .     A
C110   C114    1.413   .     A
C111   C891    1.408   .     S
C112   C892    1.407   1_554 S
C113   C116    1.417   .     A
C113   C888    1.405   .     S
C114   C115    1.411   .     A
C114   C887    1.405   1_554 S
C115   H125    1.078   .     S
C115   C117    1.394   .     A
C116   H126    1.079   .     S
C116   C118    1.397   .     A
C117   N143    1.436   .     S
C117   C885    1.408   1_554 S
C118   N146    1.437   .     S
C118   C886    1.407   .     S
C127   H129    1.085   .     S
C127   C134    1.396   .     A
C127   C389    1.376   .     S
C128   H130    1.085   .     S
C128   C133    1.396   .     A
C128   C648    1.375   1_545 S
C131   C133    1.403   .     A
C131   N149    1.425   .     S
C131   C643    1.376   1_545 S
C132   N155    1.425   .     S
C132   C134    1.403   .     A
C132   C386    1.375   .     S
C135   N161    1.419   .     S
C135   N142    1.380   .     A
C135   C223    1.419   .     S
C136   N141    1.379   .     A
C136   N167    1.425   .     S
C137   H139    1.082   .     S
C137   N141    1.359   .     A
C138   H140    1.079   .     S
C138   N142    1.362   .     A
C138   C222    1.431   .     S
N143   O145    1.300   .     A
N143   O144    1.301   .     A
N146   O148    1.301   .     A
N146   O147    1.301   .     A
N149   C151    1.447   .     S
N149   H150    1.032   .     S
C151   H153    1.111   .     S
C151   H154    1.111   .     S
C151   H152    1.112   .     S
N155   C157    1.446   .     S
N155   H156    1.032   .     S
C157   H159    1.111   .     S
C157   H160    1.110   .     S
C157   H158    1.111   .     S
N161   H162    1.032   .     S
N161   C163    1.444   .     S
C163   H164    1.111   .     S
C163   H166    1.105   .     S
C163   H251    1.112   .     S
N167   H168    1.031   .     S
N167   C169    1.448   .     S
C169   H170    1.110   .     S
C169   H172    1.111   .     S
H171   C255    1.111   .     S
O173   C177    1.288   .     A
O173   Zn185   1.997   .     S
O174   C178    1.288   .     A
O174   Zn186   1.997   .     S
O175   Zn186   1.984   .     S
O175   C177    1.285   .     A
O176   Zn185   1.984   .     S
O176   C178    1.285   .     A
C177   C220    1.413   .     S
C178   C219    1.413   .     S
O179   C183    1.299   .     A
O179   Zn185   1.964   .     S
O180   C184    1.297   .     A
O180   Zn186   1.964   .     S
O181   Zn186   1.913   .     S
O181   C183    1.298   .     A
O182   C184    1.299   .     A
O182   Zn185   1.913   .     S
C183   C187    1.459   .     S
C184   C188    1.456   .     S
Zn185  N227    2.024   .     S
Zn186  N228    2.024   .     S
C187   C191    1.397   .     A
C187   C193    1.392   .     A
C188   C192    1.397   .     A
C188   C194    1.384   .     A
C189   H209    1.080   .     S
C189   C197    1.412   .     A
C189   C191    1.394   .     A
C190   C198    1.411   .     A
C190   C192    1.394   .     A
C190   H210    1.081   .     S
C191   H208    1.083   .     S
C192   H207    1.081   .     S
C193   H206    1.077   .     S
C193   C195    1.394   .     A
C194   C196    1.396   .     A
C194   H205    1.080   .     S
C195   C199    1.418   .     A
C195   C197    1.423   .     A
C196   C198    1.420   .     A
C196   C200    1.413   .     A
C197   C977    1.408   .     S
C198   C978    1.407   1_554 S
C199   C202    1.417   .     A
C199   C974    1.405   .     S
C200   C201    1.411   .     A
C200   C973    1.405   1_554 S
C201   H211    1.078   .     S
C201   C203    1.394   .     A
C202   H212    1.079   .     S
C202   C204    1.397   .     A
C203   N229    1.436   .     S
C203   C971    1.408   1_554 S
C204   N232    1.437   .     S
C204   C972    1.407   .     S
C213   H215    1.085   .     S
C213   C220    1.396   .     A
C213   C475    1.376   .     S
C214   H216    1.085   .     S
C214   C219    1.396   .     A
C214   C734    1.375   1_545 S
C217   C219    1.403   .     A
C217   N235    1.425   .     S
C217   C729    1.376   1_545 S
C218   N241    1.425   .     S
C218   C220    1.403   .     A
C218   C472    1.375   .     S
C221   N247    1.419   .     S
C221   N228    1.380   .     A
C221   C51     1.419   1_655 S
C222   N227    1.379   .     A
C222   N253    1.425   .     S
C223   H225    1.082   .     S
C223   N227    1.359   .     A
C224   H226    1.079   .     S
C224   N228    1.362   .     A
C224   C50     1.431   1_655 S
N229   O231    1.300   .     A
N229   O230    1.301   .     A
N232   O234    1.301   .     A
N232   O233    1.301   .     A
N235   C237    1.447   .     S
N235   H236    1.032   .     S
C237   H239    1.111   .     S
C237   H240    1.111   .     S
C237   H238    1.112   .     S
N241   C243    1.446   .     S
N241   H242    1.032   .     S
C243   H245    1.111   .     S
C243   H246    1.110   .     S
C243   H244    1.111   .     S
N247   H248    1.032   .     S
N247   C249    1.444   .     S
C249   H250    1.111   .     S
C249   H252    1.105   .     S
C249   H79     1.112   1_655 S
N253   H254    1.031   .     S
N253   C255    1.448   .     S
C255   H256    1.110   .     S
C255   H258    1.111   .     S
H257   C83     1.111   1_655 S
O259   C263    1.288   .     A
O259   Zn271   1.997   .     S
O260   C264    1.288   .     A
O260   Zn272   1.997   .     S
O261   Zn272   1.984   .     S
O261   C263    1.285   .     A
O262   Zn271   1.984   .     S
O262   C264    1.285   .     A
C263   C306    1.413   .     S
C264   C305    1.413   .     S
O265   C269    1.299   .     A
O265   Zn271   1.964   .     S
O266   C270    1.297   .     A
O266   Zn272   1.964   .     S
O267   Zn272   1.913   .     S
O267   C269    1.298   .     A
O268   C270    1.299   .     A
O268   Zn271   1.913   .     S
C269   C273    1.459   .     S
C270   C274    1.456   .     S
Zn271  N313    2.024   .     S
Zn272  N314    2.024   .     S
C273   C277    1.397   .     A
C273   C279    1.392   .     A
C274   C278    1.397   .     A
C274   C280    1.384   .     A
C275   H295    1.080   .     S
C275   C283    1.412   .     A
C275   C277    1.394   .     A
C276   C284    1.411   .     A
C276   C278    1.394   .     A
C276   H296    1.081   .     S
C277   H294    1.083   .     S
C278   H293    1.081   .     S
C279   H292    1.077   .     S
C279   C281    1.394   .     A
C280   C282    1.396   .     A
C280   H291    1.080   .     S
C281   C285    1.418   .     A
C281   C283    1.423   .     A
C282   C284    1.420   .     A
C282   C286    1.413   .     A
C283   C1063   1.408   .     S
C284   C1064   1.407   1_554 S
C285   C288    1.417   .     A
C285   C1060   1.405   .     S
C286   C287    1.411   .     A
C286   C1059   1.405   1_554 S
C287   H297    1.078   .     S
C287   C289    1.394   .     A
C288   H298    1.079   .     S
C288   C290    1.397   .     A
C289   N315    1.436   .     S
C289   C1057   1.408   1_554 S
C290   N318    1.437   .     S
C290   C1058   1.407   .     S
C299   H301    1.085   .     S
C299   C306    1.396   .     A
C299   C561    1.376   .     S
C300   H302    1.085   .     S
C300   C305    1.396   .     A
C303   C305    1.403   .     A
C303   N321    1.425   .     S
C304   N327    1.425   .     S
C304   C306    1.403   .     A
C304   C558    1.375   .     S
C307   N333    1.419   .     S
C307   N314    1.380   .     A
C307   C395    1.419   .     S
C308   N313    1.379   .     A
C308   N339    1.425   .     S
C308   C482    1.431   1_455 S
C309   H311    1.082   .     S
C309   N313    1.359   .     A
C309   C479    1.419   1_455 S
C310   H312    1.079   .     S
C310   N314    1.362   .     A
C310   C394    1.431   .     S
N315   O317    1.300   .     A
N315   O316    1.301   .     A
N318   O320    1.301   .     A
N318   O319    1.301   .     A
N321   C323    1.447   .     S
N321   H322    1.032   .     S
C323   H325    1.111   .     S
C323   H326    1.111   .     S
C323   H324    1.112   .     S
N327   C329    1.446   .     S
N327   H328    1.032   .     S
C329   H331    1.111   .     S
C329   H332    1.110   .     S
C329   H330    1.111   .     S
N333   H334    1.032   .     S
N333   C335    1.444   .     S
C335   H336    1.111   .     S
C335   H338    1.105   .     S
C335   H423    1.112   .     S
H337   C507    1.112   1_455 S
N339   H340    1.031   .     S
N339   C341    1.448   .     S
C341   H342    1.110   .     S
C341   H344    1.111   .     S
C341   H515    1.111   1_455 S
H343   C427    1.111   .     S
O345   C349    1.288   .     A
O345   Zn357   1.997   .     S
O346   C350    1.288   .     A
O346   Zn358   1.997   .     S
O347   Zn358   1.984   .     S
O347   C349    1.285   .     A
O348   Zn357   1.984   .     S
O348   C350    1.285   .     A
C349   C392    1.413   .     S
C350   C391    1.413   .     S
O351   C355    1.299   .     A
O351   Zn357   1.964   .     S
O352   C356    1.297   .     A
O352   Zn358   1.964   .     S
O353   Zn358   1.913   .     S
O353   C355    1.298   .     A
O354   C356    1.299   .     A
O354   Zn357   1.913   .     S
C355   C359    1.459   .     S
C356   C360    1.456   .     S
Zn357  N399    2.024   .     S
Zn358  N400    2.024   .     S
C359   C363    1.397   .     A
C359   C365    1.392   .     A
C360   C364    1.397   .     A
C360   C366    1.384   .     A
C361   H381    1.080   .     S
C361   C369    1.412   .     A
C361   C363    1.394   .     A
C362   C370    1.411   .     A
C362   C364    1.394   .     A
C362   H382    1.081   .     S
C363   H380    1.083   .     S
C364   H379    1.081   .     S
C365   H378    1.077   .     S
C365   C367    1.394   .     A
C366   C368    1.396   .     A
C366   H377    1.080   .     S
C367   C371    1.418   .     A
C367   C369    1.423   .     A
C368   C370    1.420   .     A
C368   C372    1.413   .     A
C369   C1149   1.408   .     S
C370   C1150   1.407   1_554 S
C371   C374    1.417   .     A
C371   C1146   1.405   .     S
C372   C373    1.411   .     A
C372   C1145   1.405   1_554 S
C373   H383    1.078   .     S
C373   C375    1.394   .     A
C374   H384    1.079   .     S
C374   C376    1.397   .     A
C375   N401    1.436   .     S
C375   C1143   1.408   1_554 S
C376   N404    1.437   .     S
C376   C1144   1.407   .     S
C385   H387    1.085   .     S
C385   C392    1.396   .     A
C385   C647    1.376   .     S
C386   H388    1.085   .     S
C386   C391    1.396   .     A
C389   C391    1.403   .     A
C389   N407    1.425   .     S
C390   N413    1.425   .     S
C390   C392    1.403   .     A
C390   C644    1.375   .     S
C393   N419    1.419   .     S
C393   N400    1.380   .     A
C393   C481    1.419   .     S
C394   N399    1.379   .     A
C394   N425    1.425   .     S
C395   H397    1.082   .     S
C395   N399    1.359   .     A
C396   H398    1.079   .     S
C396   N400    1.362   .     A
C396   C480    1.431   .     S
N401   O403    1.300   .     A
N401   O402    1.301   .     A
N404   O406    1.301   .     A
N404   O405    1.301   .     A
N407   C409    1.447   .     S
N407   H408    1.032   .     S
C409   H411    1.111   .     S
C409   H412    1.111   .     S
C409   H410    1.112   .     S
N413   C415    1.446   .     S
N413   H414    1.032   .     S
C415   H417    1.111   .     S
C415   H418    1.110   .     S
C415   H416    1.111   .     S
N419   H420    1.032   .     S
N419   C421    1.444   .     S
C421   H422    1.111   .     S
C421   H424    1.105   .     S
C421   H509    1.112   .     S
N425   H426    1.031   .     S
N425   C427    1.448   .     S
C427   H428    1.110   .     S
C427   H430    1.111   .     S
H429   C513    1.111   .     S
O431   C435    1.288   .     A
O431   Zn443   1.997   .     S
O432   C436    1.288   .     A
O432   Zn444   1.997   .     S
O433   Zn444   1.984   .     S
O433   C435    1.285   .     A
O434   Zn443   1.984   .     S
O434   C436    1.285   .     A
C435   C478    1.413   .     S
C436   C477    1.413   .     S
O437   C441    1.299   .     A
O437   Zn443   1.964   .     S
O438   C442    1.297   .     A
O438   Zn444   1.964   .     S
O439   Zn444   1.913   .     S
O439   C441    1.298   .     A
O440   C442    1.299   .     A
O440   Zn443   1.913   .     S
C441   C445    1.459   .     S
C442   C446    1.456   .     S
Zn443  N485    2.024   .     S
Zn444  N486    2.024   .     S
C445   C449    1.397   .     A
C445   C451    1.392   .     A
C446   C450    1.397   .     A
C446   C452    1.384   .     A
C447   H467    1.080   .     S
C447   C455    1.412   .     A
C447   C449    1.394   .     A
C448   C456    1.411   .     A
C448   C450    1.394   .     A
C448   H468    1.081   .     S
C449   H466    1.083   .     S
C450   H465    1.081   .     S
C451   H464    1.077   .     S
C451   C453    1.394   .     A
C452   C454    1.396   .     A
C452   H463    1.080   .     S
C453   C457    1.418   .     A
C453   C455    1.423   .     A
C454   C456    1.420   .     A
C454   C458    1.413   .     A
C455   C1235   1.408   .     S
C456   C1236   1.407   1_554 S
C457   C460    1.417   .     A
C457   C1232   1.405   .     S
C458   C459    1.411   .     A
C458   C1231   1.405   1_554 S
C459   H469    1.078   .     S
C459   C461    1.394   .     A
C460   H470    1.079   .     S
C460   C462    1.397   .     A
C461   N487    1.436   .     S
C461   C1229   1.408   1_554 S
C462   N490    1.437   .     S
C462   C1230   1.407   .     S
C471   H473    1.085   .     S
C471   C478    1.396   .     A
C471   C733    1.376   .     S
C472   H474    1.085   .     S
C472   C477    1.396   .     A
C475   C477    1.403   .     A
C475   N493    1.425   .     S
C476   N499    1.425   .     S
C476   C478    1.403   .     A
C476   C730    1.375   .     S
C479   N505    1.419   .     S
C479   N486    1.380   .     A
C479   C309    1.419   1_655 S
C480   N485    1.379   .     A
C480   N511    1.425   .     S
C481   H483    1.082   .     S
C481   N485    1.359   .     A
C482   H484    1.079   .     S
C482   N486    1.362   .     A
C482   C308    1.431   1_655 S
N487   O489    1.300   .     A
N487   O488    1.301   .     A
N490   O492    1.301   .     A
N490   O491    1.301   .     A
N493   C495    1.447   .     S
N493   H494    1.032   .     S
C495   H497    1.111   .     S
C495   H498    1.111   .     S
C495   H496    1.112   .     S
N499   C501    1.446   .     S
N499   H500    1.032   .     S
C501   H503    1.111   .     S
C501   H504    1.110   .     S
C501   H502    1.111   .     S
N505   H506    1.032   .     S
N505   C507    1.444   .     S
C507   H508    1.111   .     S
C507   H510    1.105   .     S
C507   H337    1.112   1_655 S
N511   H512    1.031   .     S
N511   C513    1.448   .     S
C513   H514    1.110   .     S
C513   H516    1.111   .     S
H515   C341    1.111   1_655 S
O517   C521    1.288   .     A
O517   Zn529   1.997   .     S
O518   C522    1.288   .     A
O518   Zn530   1.997   .     S
O519   Zn530   1.984   .     S
O519   C521    1.285   .     A
O520   Zn529   1.984   .     S
O520   C522    1.285   .     A
C521   C564    1.413   .     S
C522   C563    1.413   .     S
O523   C527    1.299   .     A
O523   Zn529   1.964   .     S
O524   C528    1.297   .     A
O524   Zn530   1.964   .     S
O525   Zn530   1.913   .     S
O525   C527    1.298   .     A
O526   C528    1.299   .     A
O526   Zn529   1.913   .     S
C527   C531    1.459   .     S
C528   C532    1.456   .     S
Zn529  N571    2.024   .     S
Zn530  N572    2.024   .     S
C531   C535    1.397   .     A
C531   C537    1.392   .     A
C532   C536    1.397   .     A
C532   C538    1.384   .     A
C533   H553    1.080   .     S
C533   C541    1.412   .     A
C533   C535    1.394   .     A
C534   C542    1.411   .     A
C534   C536    1.394   .     A
C534   H554    1.081   .     S
C535   H552    1.083   .     S
C536   H551    1.081   .     S
C537   H550    1.077   .     S
C537   C539    1.394   .     A
C538   C540    1.396   .     A
C538   H549    1.080   .     S
C539   C543    1.418   .     A
C539   C541    1.423   .     A
C540   C542    1.420   .     A
C540   C544    1.413   .     A
C541   C1321   1.408   .     S
C542   C1322   1.407   1_554 S
C543   C546    1.417   .     A
C543   C1318   1.405   .     S
C544   C545    1.411   .     A
C544   C1317   1.405   1_554 S
C545   H555    1.078   .     S
C545   C547    1.394   .     A
C546   H556    1.079   .     S
C546   C548    1.397   .     A
C547   N573    1.436   .     S
C547   C1315   1.408   1_554 S
C548   N576    1.437   .     S
C548   C1316   1.407   .     S
C557   H559    1.085   .     S
C557   C564    1.396   .     A
C557   C45     1.376   1_565 S
C558   H560    1.085   .     S
C558   C563    1.396   .     A
C561   C563    1.403   .     A
C561   N579    1.425   .     S
C562   N585    1.425   .     S
C562   C564    1.403   .     A
C562   C42     1.375   1_565 S
C565   N591    1.419   .     S
C565   N572    1.380   .     A
C565   C653    1.419   .     S
C566   N571    1.379   .     A
C566   N597    1.425   .     S
C566   C740    1.431   1_455 S
C567   H569    1.082   .     S
C567   N571    1.359   .     A
C567   C737    1.419   1_455 S
C568   H570    1.079   .     S
C568   N572    1.362   .     A
C568   C652    1.431   .     S
N573   O575    1.300   .     A
N573   O574    1.301   .     A
N576   O578    1.301   .     A
N576   O577    1.301   .     A
N579   C581    1.447   .     S
N579   H580    1.032   .     S
C581   H583    1.111   .     S
C581   H584    1.111   .     S
C581   H582    1.112   .     S
N585   C587    1.446   .     S
N585   H586    1.032   .     S
C587   H589    1.111   .     S
C587   H590    1.110   .     S
C587   H588    1.111   .     S
N591   H592    1.032   .     S
N591   C593    1.444   .     S
C593   H594    1.111   .     S
C593   H596    1.105   .     S
C593   H681    1.112   .     S
H595   C765    1.112   1_455 S
N597   H598    1.031   .     S
N597   C599    1.448   .     S
C599   H600    1.110   .     S
C599   H602    1.111   .     S
C599   H773    1.111   1_455 S
H601   C685    1.111   .     S
O603   C607    1.288   .     A
O603   Zn615   1.997   .     S
O604   C608    1.288   .     A
O604   Zn616   1.997   .     S
O605   Zn616   1.984   .     S
O605   C607    1.285   .     A
O606   Zn615   1.984   .     S
O606   C608    1.285   .     A
C607   C650    1.413   .     S
C608   C649    1.413   .     S
O609   C613    1.299   .     A
O609   Zn615   1.964   .     S
O610   C614    1.297   .     A
O610   Zn616   1.964   .     S
O611   Zn616   1.913   .     S
O611   C613    1.298   .     A
O612   C614    1.299   .     A
O612   Zn615   1.913   .     S
C613   C617    1.459   .     S
C614   C618    1.456   .     S
Zn615  N657    2.024   .     S
Zn616  N658    2.024   .     S
C617   C621    1.397   .     A
C617   C623    1.392   .     A
C618   C622    1.397   .     A
C618   C624    1.384   .     A
C619   H639    1.080   .     S
C619   C627    1.412   .     A
C619   C621    1.394   .     A
C620   C628    1.411   .     A
C620   C622    1.394   .     A
C620   H640    1.081   .     S
C621   H638    1.083   .     S
C622   H637    1.081   .     S
C623   H636    1.077   .     S
C623   C625    1.394   .     A
C624   C626    1.396   .     A
C624   H635    1.080   .     S
C625   C629    1.418   .     A
C625   C627    1.423   .     A
C626   C628    1.420   .     A
C626   C630    1.413   .     A
C627   C1407   1.408   .     S
C628   C1408   1.407   1_554 S
C629   C632    1.417   .     A
C629   C1404   1.405   .     S
C630   C631    1.411   .     A
C630   C1403   1.405   1_554 S
C631   H641    1.078   .     S
C631   C633    1.394   .     A
C632   H642    1.079   .     S
C632   C634    1.397   .     A
C633   N659    1.436   .     S
C633   C1401   1.408   1_554 S
C634   N662    1.437   .     S
C634   C1402   1.407   .     S
C643   H645    1.085   .     S
C643   C650    1.396   .     A
C643   C131    1.376   1_565 S
C644   H646    1.085   .     S
C644   C649    1.396   .     A
C647   C649    1.403   .     A
C647   N665    1.425   .     S
C648   N671    1.425   .     S
C648   C650    1.403   .     A
C648   C128    1.375   1_565 S
C651   N677    1.419   .     S
C651   N658    1.380   .     A
C651   C739    1.419   .     S
C652   N657    1.379   .     A
C652   N683    1.425   .     S
C653   H655    1.082   .     S
C653   N657    1.359   .     A
C654   H656    1.079   .     S
C654   N658    1.362   .     A
C654   C738    1.431   .     S
N659   O661    1.300   .     A
N659   O660    1.301   .     A
N662   O664    1.301   .     A
N662   O663    1.301   .     A
N665   C667    1.447   .     S
N665   H666    1.032   .     S
C667   H669    1.111   .     S
C667   H670    1.111   .     S
C667   H668    1.112   .     S
N671   C673    1.446   .     S
N671   H672    1.032   .     S
C673   H675    1.111   .     S
C673   H676    1.110   .     S
C673   H674    1.111   .     S
N677   H678    1.032   .     S
N677   C679    1.444   .     S
C679   H680    1.111   .     S
C679   H682    1.105   .     S
C679   H767    1.112   .     S
N683   H684    1.031   .     S
N683   C685    1.448   .     S
C685   H686    1.110   .     S
C685   H688    1.111   .     S
H687   C771    1.111   .     S
O689   C693    1.288   .     A
O689   Zn701   1.997   .     S
O690   C694    1.288   .     A
O690   Zn702   1.997   .     S
O691   Zn702   1.984   .     S
O691   C693    1.285   .     A
O692   Zn701   1.984   .     S
O692   C694    1.285   .     A
C693   C736    1.413   .     S
C694   C735    1.413   .     S
O695   C699    1.299   .     A
O695   Zn701   1.964   .     S
O696   C700    1.297   .     A
O696   Zn702   1.964   .     S
O697   Zn702   1.913   .     S
O697   C699    1.298   .     A
O698   C700    1.299   .     A
O698   Zn701   1.913   .     S
C699   C703    1.459   .     S
C700   C704    1.456   .     S
Zn701  N743    2.024   .     S
Zn702  N744    2.024   .     S
C703   C707    1.397   .     A
C703   C709    1.392   .     A
C704   C708    1.397   .     A
C704   C710    1.384   .     A
C705   H725    1.080   .     S
C705   C713    1.412   .     A
C705   C707    1.394   .     A
C706   C714    1.411   .     A
C706   C708    1.394   .     A
C706   H726    1.081   .     S
C707   H724    1.083   .     S
C708   H723    1.081   .     S
C709   H722    1.077   .     S
C709   C711    1.394   .     A
C710   C712    1.396   .     A
C710   H721    1.080   .     S
C711   C715    1.418   .     A
C711   C713    1.423   .     A
C712   C714    1.420   .     A
C712   C716    1.413   .     A
C713   C1493   1.408   .     S
C714   C1494   1.407   1_554 S
C715   C718    1.417   .     A
C715   C1490   1.405   .     S
C716   C717    1.411   .     A
C716   C1489   1.405   1_554 S
C717   H727    1.078   .     S
C717   C719    1.394   .     A
C718   H728    1.079   .     S
C718   C720    1.397   .     A
C719   N745    1.436   .     S
C719   C1487   1.408   1_554 S
C720   N748    1.437   .     S
C720   C1488   1.407   .     S
C729   H731    1.085   .     S
C729   C736    1.396   .     A
C729   C217    1.376   1_565 S
C730   H732    1.085   .     S
C730   C735    1.396   .     A
C733   C735    1.403   .     A
C733   N751    1.425   .     S
C734   N757    1.425   .     S
C734   C736    1.403   .     A
C734   C214    1.375   1_565 S
C737   N763    1.419   .     S
C737   N744    1.380   .     A
C737   C567    1.419   1_655 S
C738   N743    1.379   .     A
C738   N769    1.425   .     S
C739   H741    1.082   .     S
C739   N743    1.359   .     A
C740   H742    1.079   .     S
C740   N744    1.362   .     A
C740   C566    1.431   1_655 S
N745   O747    1.300   .     A
N745   O746    1.301   .     A
N748   O750    1.301   .     A
N748   O749    1.301   .     A
N751   C753    1.447   .     S
N751   H752    1.032   .     S
C753   H755    1.111   .     S
C753   H756    1.111   .     S
C753   H754    1.112   .     S
N757   C759    1.446   .     S
N757   H758    1.032   .     S
C759   H761    1.111   .     S
C759   H762    1.110   .     S
C759   H760    1.111   .     S
N763   H764    1.032   .     S
N763   C765    1.444   .     S
C765   H766    1.111   .     S
C765   H768    1.105   .     S
C765   H595    1.112   1_655 S
N769   H770    1.031   .     S
N769   C771    1.448   .     S
C771   H772    1.110   .     S
C771   H774    1.111   .     S
H773   C599    1.111   1_655 S
O775   C779    1.288   .     A
O775   Zn787   1.997   .     S
O776   C780    1.288   .     A
O776   Zn788   1.997   .     S
O777   Zn788   1.984   .     S
O777   C779    1.285   .     A
O778   Zn787   1.984   .     S
O778   C780    1.285   .     A
C779   C822    1.413   .     S
C780   C821    1.413   .     S
O781   C785    1.299   .     A
O781   Zn787   1.964   .     S
O782   C786    1.297   .     A
O782   Zn788   1.964   .     S
O783   Zn788   1.913   .     S
O783   C785    1.298   .     A
O784   C786    1.299   .     A
O784   Zn787   1.913   .     S
C785   C789    1.459   .     S
C786   C790    1.456   .     S
Zn787  N829    2.024   .     S
Zn788  N830    2.024   .     S
C789   C793    1.397   .     A
C789   C795    1.392   .     A
C790   C794    1.397   .     A
C790   C796    1.384   .     A
C791   H811    1.080   .     S
C791   C799    1.412   .     A
C791   C793    1.394   .     A
C792   C800    1.411   .     A
C792   C794    1.394   .     A
C792   H812    1.081   .     S
C793   H810    1.083   .     S
C794   H809    1.081   .     S
C795   H808    1.077   .     S
C795   C797    1.394   .     A
C796   C798    1.396   .     A
C796   H807    1.080   .     S
C797   C801    1.418   .     A
C797   C799    1.423   .     A
C798   C800    1.420   .     A
C798   C802    1.413   .     A
C799   C31     1.408   1_556 S
C801   C804    1.417   .     A
C801   C28     1.405   1_556 S
C802   C803    1.411   .     A
C803   H813    1.078   .     S
C803   C805    1.394   .     A
C804   H814    1.079   .     S
C804   C806    1.397   .     A
C805   N831    1.436   .     S
C806   N834    1.437   .     S
C806   C26     1.407   1_556 S
C815   H817    1.085   .     S
C815   C822    1.396   .     A
C815   C1077   1.376   .     S
C816   H818    1.085   .     S
C816   C821    1.396   .     A
C816   C1336   1.375   1_545 S
C819   C821    1.403   .     A
C819   N837    1.425   .     S
C819   C1331   1.376   1_545 S
C820   N843    1.425   .     S
C820   C822    1.403   .     A
C820   C1074   1.375   .     S
C823   N849    1.419   .     S
C823   N830    1.380   .     A
C823   C911    1.419   .     S
C824   N829    1.379   .     A
C824   N855    1.425   .     S
C824   C998    1.431   1_455 S
C825   H827    1.082   .     S
C825   N829    1.359   .     A
C825   C995    1.419   1_455 S
C826   H828    1.079   .     S
C826   N830    1.362   .     A
C826   C910    1.431   .     S
N831   O833    1.300   .     A
N831   O832    1.301   .     A
N834   O836    1.301   .     A
N834   O835    1.301   .     A
N837   C839    1.447   .     S
N837   H838    1.032   .     S
C839   H841    1.111   .     S
C839   H842    1.111   .     S
C839   H840    1.112   .     S
N843   C845    1.446   .     S
N843   H844    1.032   .     S
C845   H847    1.111   .     S
C845   H848    1.110   .     S
C845   H846    1.111   .     S
N849   H850    1.032   .     S
N849   C851    1.444   .     S
C851   H852    1.111   .     S
C851   H854    1.105   .     S
C851   H939    1.112   .     S
H853   C1023   1.112   1_455 S
N855   H856    1.031   .     S
N855   C857    1.448   .     S
C857   H858    1.110   .     S
C857   H860    1.111   .     S
C857   H1031   1.111   1_455 S
H859   C943    1.111   .     S
O861   C865    1.288   .     A
O861   Zn873   1.997   .     S
O862   C866    1.288   .     A
O862   Zn874   1.997   .     S
O863   Zn874   1.984   .     S
O863   C865    1.285   .     A
O864   Zn873   1.984   .     S
O864   C866    1.285   .     A
C865   C908    1.413   .     S
C866   C907    1.413   .     S
O867   C871    1.299   .     A
O867   Zn873   1.964   .     S
O868   C872    1.297   .     A
O868   Zn874   1.964   .     S
O869   Zn874   1.913   .     S
O869   C871    1.298   .     A
O870   C872    1.299   .     A
O870   Zn873   1.913   .     S
C871   C875    1.459   .     S
C872   C876    1.456   .     S
Zn873  N915    2.024   .     S
Zn874  N916    2.024   .     S
C875   C879    1.397   .     A
C875   C881    1.392   .     A
C876   C880    1.397   .     A
C876   C882    1.384   .     A
C877   H897    1.080   .     S
C877   C885    1.412   .     A
C877   C879    1.394   .     A
C878   C886    1.411   .     A
C878   C880    1.394   .     A
C878   H898    1.081   .     S
C879   H896    1.083   .     S
C880   H895    1.081   .     S
C881   H894    1.077   .     S
C881   C883    1.394   .     A
C882   C884    1.396   .     A
C882   H893    1.080   .     S
C883   C887    1.418   .     A
C883   C885    1.423   .     A
C884   C886    1.420   .     A
C884   C888    1.413   .     A
C885   C117    1.408   1_556 S
C887   C890    1.417   .     A
C887   C114    1.405   1_556 S
C888   C889    1.411   .     A
C889   H899    1.078   .     S
C889   C891    1.394   .     A
C890   H900    1.079   .     S
C890   C892    1.397   .     A
C891   N917    1.436   .     S
C892   N920    1.437   .     S
C892   C112    1.407   1_556 S
C901   H903    1.085   .     S
C901   C908    1.396   .     A
C901   C1163   1.376   .     S
C902   H904    1.085   .     S
C902   C907    1.396   .     A
C902   C1422   1.375   1_545 S
C905   C907    1.403   .     A
C905   N923    1.425   .     S
C905   C1417   1.376   1_545 S
C906   N929    1.425   .     S
C906   C908    1.403   .     A
C906   C1160   1.375   .     S
C909   N935    1.419   .     S
C909   N916    1.380   .     A
C909   C997    1.419   .     S
C910   N915    1.379   .     A
C910   N941    1.425   .     S
C911   H913    1.082   .     S
C911   N915    1.359   .     A
C912   H914    1.079   .     S
C912   N916    1.362   .     A
C912   C996    1.431   .     S
N917   O919    1.300   .     A
N917   O918    1.301   .     A
N920   O922    1.301   .     A
N920   O921    1.301   .     A
N923   C925    1.447   .     S
N923   H924    1.032   .     S
C925   H927    1.111   .     S
C925   H928    1.111   .     S
C925   H926    1.112   .     S
N929   C931    1.446   .     S
N929   H930    1.032   .     S
C931   H933    1.111   .     S
C931   H934    1.110   .     S
C931   H932    1.111   .     S
N935   H936    1.032   .     S
N935   C937    1.444   .     S
C937   H938    1.111   .     S
C937   H940    1.105   .     S
C937   H1025   1.112   .     S
N941   H942    1.031   .     S
N941   C943    1.448   .     S
C943   H944    1.110   .     S
C943   H946    1.111   .     S
H945   C1029   1.111   .     S
O947   C951    1.288   .     A
O947   Zn959   1.997   .     S
O948   C952    1.288   .     A
O948   Zn960   1.997   .     S
O949   Zn960   1.984   .     S
O949   C951    1.285   .     A
O950   Zn959   1.984   .     S
O950   C952    1.285   .     A
C951   C994    1.413   .     S
C952   C993    1.413   .     S
O953   C957    1.299   .     A
O953   Zn959   1.964   .     S
O954   C958    1.297   .     A
O954   Zn960   1.964   .     S
O955   Zn960   1.913   .     S
O955   C957    1.298   .     A
O956   C958    1.299   .     A
O956   Zn959   1.913   .     S
C957   C961    1.459   .     S
C958   C962    1.456   .     S
Zn959  N1001   2.024   .     S
Zn960  N1002   2.024   .     S
C961   C965    1.397   .     A
C961   C967    1.392   .     A
C962   C966    1.397   .     A
C962   C968    1.384   .     A
C963   H983    1.080   .     S
C963   C971    1.412   .     A
C963   C965    1.394   .     A
C964   C972    1.411   .     A
C964   C966    1.394   .     A
C964   H984    1.081   .     S
C965   H982    1.083   .     S
C966   H981    1.081   .     S
C967   H980    1.077   .     S
C967   C969    1.394   .     A
C968   C970    1.396   .     A
C968   H979    1.080   .     S
C969   C973    1.418   .     A
C969   C971    1.423   .     A
C970   C972    1.420   .     A
C970   C974    1.413   .     A
C971   C203    1.408   1_556 S
C973   C976    1.417   .     A
C973   C200    1.405   1_556 S
C974   C975    1.411   .     A
C975   H985    1.078   .     S
C975   C977    1.394   .     A
C976   H986    1.079   .     S
C976   C978    1.397   .     A
C977   N1003   1.436   .     S
C978   N1006   1.437   .     S
C978   C198    1.407   1_556 S
C987   H989    1.085   .     S
C987   C994    1.396   .     A
C987   C1249   1.376   .     S
C988   H990    1.085   .     S
C988   C993    1.396   .     A
C988   C1508   1.375   1_545 S
C991   C993    1.403   .     A
C991   N1009   1.425   .     S
C991   C1503   1.376   1_545 S
C992   N1015   1.425   .     S
C992   C994    1.403   .     A
C992   C1246   1.375   .     S
C995   N1021   1.419   .     S
C995   N1002   1.380   .     A
C995   C825    1.419   1_655 S
C996   N1001   1.379   .     A
C996   N1027   1.425   .     S
C997   H999    1.082   .     S
C997   N1001   1.359   .     A
C998   H1000   1.079   .     S
C998   N1002   1.362   .     A
C998   C824    1.431   1_655 S
N1003  O1005   1.300   .     A
N1003  O1004   1.301   .     A
N1006  O1008   1.301   .     A
N1006  O1007   1.301   .     A
N1009  C1011   1.447   .     S
N1009  H1010   1.032   .     S
C1011  H1013   1.111   .     S
C1011  H1014   1.111   .     S
C1011  H1012   1.112   .     S
N1015  C1017   1.446   .     S
N1015  H1016   1.032   .     S
C1017  H1019   1.111   .     S
C1017  H1020   1.110   .     S
C1017  H1018   1.111   .     S
N1021  H1022   1.032   .     S
N1021  C1023   1.444   .     S
C1023  H1024   1.111   .     S
C1023  H1026   1.105   .     S
C1023  H853    1.112   1_655 S
N1027  H1028   1.031   .     S
N1027  C1029   1.448   .     S
C1029  H1030   1.110   .     S
C1029  H1032   1.111   .     S
H1031  C857    1.111   1_655 S
O1033  C1037   1.288   .     A
O1033  Zn1045  1.997   .     S
O1034  C1038   1.288   .     A
O1034  Zn1046  1.997   .     S
O1035  Zn1046  1.984   .     S
O1035  C1037   1.285   .     A
O1036  Zn1045  1.984   .     S
O1036  C1038   1.285   .     A
C1037  C1080   1.413   .     S
C1038  C1079   1.413   .     S
O1039  C1043   1.299   .     A
O1039  Zn1045  1.964   .     S
O1040  C1044   1.297   .     A
O1040  Zn1046  1.964   .     S
O1041  Zn1046  1.913   .     S
O1041  C1043   1.298   .     A
O1042  C1044   1.299   .     A
O1042  Zn1045  1.913   .     S
C1043  C1047   1.459   .     S
C1044  C1048   1.456   .     S
Zn1045 N1087   2.024   .     S
Zn1046 N1088   2.024   .     S
C1047  C1051   1.397   .     A
C1047  C1053   1.392   .     A
C1048  C1052   1.397   .     A
C1048  C1054   1.384   .     A
C1049  H1069   1.080   .     S
C1049  C1057   1.412   .     A
C1049  C1051   1.394   .     A
C1050  C1058   1.411   .     A
C1050  C1052   1.394   .     A
C1050  H1070   1.081   .     S
C1051  H1068   1.083   .     S
C1052  H1067   1.081   .     S
C1053  H1066   1.077   .     S
C1053  C1055   1.394   .     A
C1054  C1056   1.396   .     A
C1054  H1065   1.080   .     S
C1055  C1059   1.418   .     A
C1055  C1057   1.423   .     A
C1056  C1058   1.420   .     A
C1056  C1060   1.413   .     A
C1057  C289    1.408   1_556 S
C1059  C1062   1.417   .     A
C1059  C286    1.405   1_556 S
C1060  C1061   1.411   .     A
C1061  H1071   1.078   .     S
C1061  C1063   1.394   .     A
C1062  H1072   1.079   .     S
C1062  C1064   1.397   .     A
C1063  N1089   1.436   .     S
C1064  N1092   1.437   .     S
C1064  C284    1.407   1_556 S
C1073  H1075   1.085   .     S
C1073  C1080   1.396   .     A
C1073  C1335   1.376   .     S
C1074  H1076   1.085   .     S
C1074  C1079   1.396   .     A
C1077  C1079   1.403   .     A
C1077  N1095   1.425   .     S
C1078  N1101   1.425   .     S
C1078  C1080   1.403   .     A
C1078  C1332   1.375   .     S
C1081  N1107   1.419   .     S
C1081  N1088   1.380   .     A
C1081  C1169   1.419   .     S
C1082  N1087   1.379   .     A
C1082  N1113   1.425   .     S
C1082  C1256   1.431   1_455 S
C1083  H1085   1.082   .     S
C1083  N1087   1.359   .     A
C1083  C1253   1.419   1_455 S
C1084  H1086   1.079   .     S
C1084  N1088   1.362   .     A
C1084  C1168   1.431   .     S
N1089  O1091   1.300   .     A
N1089  O1090   1.301   .     A
N1092  O1094   1.301   .     A
N1092  O1093   1.301   .     A
N1095  C1097   1.447   .     S
N1095  H1096   1.032   .     S
C1097  H1099   1.111   .     S
C1097  H1100   1.111   .     S
C1097  H1098   1.112   .     S
N1101  C1103   1.446   .     S
N1101  H1102   1.032   .     S
C1103  H1105   1.111   .     S
C1103  H1106   1.110   .     S
C1103  H1104   1.111   .     S
N1107  H1108   1.032   .     S
N1107  C1109   1.444   .     S
C1109  H1110   1.111   .     S
C1109  H1112   1.105   .     S
C1109  H1197   1.112   .     S
H1111  C1281   1.112   1_455 S
N1113  H1114   1.031   .     S
N1113  C1115   1.448   .     S
C1115  H1116   1.110   .     S
C1115  H1118   1.111   .     S
C1115  H1289   1.111   1_455 S
H1117  C1201   1.111   .     S
O1119  C1123   1.288   .     A
O1119  Zn1131  1.997   .     S
O1120  C1124   1.288   .     A
O1120  Zn1132  1.997   .     S
O1121  Zn1132  1.984   .     S
O1121  C1123   1.285   .     A
O1122  Zn1131  1.984   .     S
O1122  C1124   1.285   .     A
C1123  C1166   1.413   .     S
C1124  C1165   1.413   .     S
O1125  C1129   1.299   .     A
O1125  Zn1131  1.964   .     S
O1126  C1130   1.297   .     A
O1126  Zn1132  1.964   .     S
O1127  Zn1132  1.913   .     S
O1127  C1129   1.298   .     A
O1128  C1130   1.299   .     A
O1128  Zn1131  1.913   .     S
C1129  C1133   1.459   .     S
C1130  C1134   1.456   .     S
Zn1131 N1173   2.024   .     S
Zn1132 N1174   2.024   .     S
C1133  C1137   1.397   .     A
C1133  C1139   1.392   .     A
C1134  C1138   1.397   .     A
C1134  C1140   1.384   .     A
C1135  H1155   1.080   .     S
C1135  C1143   1.412   .     A
C1135  C1137   1.394   .     A
C1136  C1144   1.411   .     A
C1136  C1138   1.394   .     A
C1136  H1156   1.081   .     S
C1137  H1154   1.083   .     S
C1138  H1153   1.081   .     S
C1139  H1152   1.077   .     S
C1139  C1141   1.394   .     A
C1140  C1142   1.396   .     A
C1140  H1151   1.080   .     S
C1141  C1145   1.418   .     A
C1141  C1143   1.423   .     A
C1142  C1144   1.420   .     A
C1142  C1146   1.413   .     A
C1143  C375    1.408   1_556 S
C1145  C1148   1.417   .     A
C1145  C372    1.405   1_556 S
C1146  C1147   1.411   .     A
C1147  H1157   1.078   .     S
C1147  C1149   1.394   .     A
C1148  H1158   1.079   .     S
C1148  C1150   1.397   .     A
C1149  N1175   1.436   .     S
C1150  N1178   1.437   .     S
C1150  C370    1.407   1_556 S
C1159  H1161   1.085   .     S
C1159  C1166   1.396   .     A
C1159  C1421   1.376   .     S
C1160  H1162   1.085   .     S
C1160  C1165   1.396   .     A
C1163  C1165   1.403   .     A
C1163  N1181   1.425   .     S
C1164  N1187   1.425   .     S
C1164  C1166   1.403   .     A
C1164  C1418   1.375   .     S
C1167  N1193   1.419   .     S
C1167  N1174   1.380   .     A
C1167  C1255   1.419   .     S
C1168  N1173   1.379   .     A
C1168  N1199   1.425   .     S
C1169  H1171   1.082   .     S
C1169  N1173   1.359   .     A
C1170  H1172   1.079   .     S
C1170  N1174   1.362   .     A
C1170  C1254   1.431   .     S
N1175  O1177   1.300   .     A
N1175  O1176   1.301   .     A
N1178  O1180   1.301   .     A
N1178  O1179   1.301   .     A
N1181  C1183   1.447   .     S
N1181  H1182   1.032   .     S
C1183  H1185   1.111   .     S
C1183  H1186   1.111   .     S
C1183  H1184   1.112   .     S
N1187  C1189   1.446   .     S
N1187  H1188   1.032   .     S
C1189  H1191   1.111   .     S
C1189  H1192   1.110   .     S
C1189  H1190   1.111   .     S
N1193  H1194   1.032   .     S
N1193  C1195   1.444   .     S
C1195  H1196   1.111   .     S
C1195  H1198   1.105   .     S
C1195  H1283   1.112   .     S
N1199  H1200   1.031   .     S
N1199  C1201   1.448   .     S
C1201  H1202   1.110   .     S
C1201  H1204   1.111   .     S
H1203  C1287   1.111   .     S
O1205  C1209   1.288   .     A
O1205  Zn1217  1.997   .     S
O1206  C1210   1.288   .     A
O1206  Zn1218  1.997   .     S
O1207  Zn1218  1.984   .     S
O1207  C1209   1.285   .     A
O1208  Zn1217  1.984   .     S
O1208  C1210   1.285   .     A
C1209  C1252   1.413   .     S
C1210  C1251   1.413   .     S
O1211  C1215   1.299   .     A
O1211  Zn1217  1.964   .     S
O1212  C1216   1.297   .     A
O1212  Zn1218  1.964   .     S
O1213  Zn1218  1.913   .     S
O1213  C1215   1.298   .     A
O1214  C1216   1.299   .     A
O1214  Zn1217  1.913   .     S
C1215  C1219   1.459   .     S
C1216  C1220   1.456   .     S
Zn1217 N1259   2.024   .     S
Zn1218 N1260   2.024   .     S
C1219  C1223   1.397   .     A
C1219  C1225   1.392   .     A
C1220  C1224   1.397   .     A
C1220  C1226   1.384   .     A
C1221  H1241   1.080   .     S
C1221  C1229   1.412   .     A
C1221  C1223   1.394   .     A
C1222  C1230   1.411   .     A
C1222  C1224   1.394   .     A
C1222  H1242   1.081   .     S
C1223  H1240   1.083   .     S
C1224  H1239   1.081   .     S
C1225  H1238   1.077   .     S
C1225  C1227   1.394   .     A
C1226  C1228   1.396   .     A
C1226  H1237   1.080   .     S
C1227  C1231   1.418   .     A
C1227  C1229   1.423   .     A
C1228  C1230   1.420   .     A
C1228  C1232   1.413   .     A
C1229  C461    1.408   1_556 S
C1231  C1234   1.417   .     A
C1231  C458    1.405   1_556 S
C1232  C1233   1.411   .     A
C1233  H1243   1.078   .     S
C1233  C1235   1.394   .     A
C1234  H1244   1.079   .     S
C1234  C1236   1.397   .     A
C1235  N1261   1.436   .     S
C1236  N1264   1.437   .     S
C1236  C456    1.407   1_556 S
C1245  H1247   1.085   .     S
C1245  C1252   1.396   .     A
C1245  C1507   1.376   .     S
C1246  H1248   1.085   .     S
C1246  C1251   1.396   .     A
C1249  C1251   1.403   .     A
C1249  N1267   1.425   .     S
C1250  N1273   1.425   .     S
C1250  C1252   1.403   .     A
C1250  C1504   1.375   .     S
C1253  N1279   1.419   .     S
C1253  N1260   1.380   .     A
C1253  C1083   1.419   1_655 S
C1254  N1259   1.379   .     A
C1254  N1285   1.425   .     S
C1255  H1257   1.082   .     S
C1255  N1259   1.359   .     A
C1256  H1258   1.079   .     S
C1256  N1260   1.362   .     A
C1256  C1082   1.431   1_655 S
N1261  O1263   1.300   .     A
N1261  O1262   1.301   .     A
N1264  O1266   1.301   .     A
N1264  O1265   1.301   .     A
N1267  C1269   1.447   .     S
N1267  H1268   1.032   .     S
C1269  H1271   1.111   .     S
C1269  H1272   1.111   .     S
C1269  H1270   1.112   .     S
N1273  C1275   1.446   .     S
N1273  H1274   1.032   .     S
C1275  H1277   1.111   .     S
C1275  H1278   1.110   .     S
C1275  H1276   1.111   .     S
N1279  H1280   1.032   .     S
N1279  C1281   1.444   .     S
C1281  H1282   1.111   .     S
C1281  H1284   1.105   .     S
C1281  H1111   1.112   1_655 S
N1285  H1286   1.031   .     S
N1285  C1287   1.448   .     S
C1287  H1288   1.110   .     S
C1287  H1290   1.111   .     S
H1289  C1115   1.111   1_655 S
O1291  C1295   1.288   .     A
O1291  Zn1303  1.997   .     S
O1292  C1296   1.288   .     A
O1292  Zn1304  1.997   .     S
O1293  Zn1304  1.984   .     S
O1293  C1295   1.285   .     A
O1294  Zn1303  1.984   .     S
O1294  C1296   1.285   .     A
C1295  C1338   1.413   .     S
C1296  C1337   1.413   .     S
O1297  C1301   1.299   .     A
O1297  Zn1303  1.964   .     S
O1298  C1302   1.297   .     A
O1298  Zn1304  1.964   .     S
O1299  Zn1304  1.913   .     S
O1299  C1301   1.298   .     A
O1300  C1302   1.299   .     A
O1300  Zn1303  1.913   .     S
C1301  C1305   1.459   .     S
C1302  C1306   1.456   .     S
Zn1303 N1345   2.024   .     S
Zn1304 N1346   2.024   .     S
C1305  C1309   1.397   .     A
C1305  C1311   1.392   .     A
C1306  C1310   1.397   .     A
C1306  C1312   1.384   .     A
C1307  H1327   1.080   .     S
C1307  C1315   1.412   .     A
C1307  C1309   1.394   .     A
C1308  C1316   1.411   .     A
C1308  C1310   1.394   .     A
C1308  H1328   1.081   .     S
C1309  H1326   1.083   .     S
C1310  H1325   1.081   .     S
C1311  H1324   1.077   .     S
C1311  C1313   1.394   .     A
C1312  C1314   1.396   .     A
C1312  H1323   1.080   .     S
C1313  C1317   1.418   .     A
C1313  C1315   1.423   .     A
C1314  C1316   1.420   .     A
C1314  C1318   1.413   .     A
C1315  C547    1.408   1_556 S
C1317  C1320   1.417   .     A
C1317  C544    1.405   1_556 S
C1318  C1319   1.411   .     A
C1319  H1329   1.078   .     S
C1319  C1321   1.394   .     A
C1320  H1330   1.079   .     S
C1320  C1322   1.397   .     A
C1321  N1347   1.436   .     S
C1322  N1350   1.437   .     S
C1322  C542    1.407   1_556 S
C1331  H1333   1.085   .     S
C1331  C1338   1.396   .     A
C1331  C819    1.376   1_565 S
C1332  H1334   1.085   .     S
C1332  C1337   1.396   .     A
C1335  C1337   1.403   .     A
C1335  N1353   1.425   .     S
C1336  N1359   1.425   .     S
C1336  C1338   1.403   .     A
C1336  C816    1.375   1_565 S
C1339  N1365   1.419   .     S
C1339  N1346   1.380   .     A
C1339  C1427   1.419   .     S
C1340  N1345   1.379   .     A
C1340  N1371   1.425   .     S
C1340  C1514   1.431   1_455 S
C1341  H1343   1.082   .     S
C1341  N1345   1.359   .     A
C1341  C1511   1.419   1_455 S
C1342  H1344   1.079   .     S
C1342  N1346   1.362   .     A
C1342  C1426   1.431   .     S
N1347  O1349   1.300   .     A
N1347  O1348   1.301   .     A
N1350  O1352   1.301   .     A
N1350  O1351   1.301   .     A
N1353  C1355   1.447   .     S
N1353  H1354   1.032   .     S
C1355  H1357   1.111   .     S
C1355  H1358   1.111   .     S
C1355  H1356   1.112   .     S
N1359  C1361   1.446   .     S
N1359  H1360   1.032   .     S
C1361  H1363   1.111   .     S
C1361  H1364   1.110   .     S
C1361  H1362   1.111   .     S
N1365  H1366   1.032   .     S
N1365  C1367   1.444   .     S
C1367  H1368   1.111   .     S
C1367  H1370   1.105   .     S
C1367  H1455   1.112   .     S
H1369  C1539   1.112   1_455 S
N1371  H1372   1.031   .     S
N1371  C1373   1.448   .     S
C1373  H1374   1.110   .     S
C1373  H1376   1.111   .     S
C1373  H1547   1.111   1_455 S
H1375  C1459   1.111   .     S
O1377  C1381   1.288   .     A
O1377  Zn1389  1.997   .     S
O1378  C1382   1.288   .     A
O1378  Zn1390  1.997   .     S
O1379  Zn1390  1.984   .     S
O1379  C1381   1.285   .     A
O1380  Zn1389  1.984   .     S
O1380  C1382   1.285   .     A
C1381  C1424   1.413   .     S
C1382  C1423   1.413   .     S
O1383  C1387   1.299   .     A
O1383  Zn1389  1.964   .     S
O1384  C1388   1.297   .     A
O1384  Zn1390  1.964   .     S
O1385  Zn1390  1.913   .     S
O1385  C1387   1.298   .     A
O1386  C1388   1.299   .     A
O1386  Zn1389  1.913   .     S
C1387  C1391   1.459   .     S
C1388  C1392   1.456   .     S
Zn1389 N1431   2.024   .     S
Zn1390 N1432   2.024   .     S
C1391  C1395   1.397   .     A
C1391  C1397   1.392   .     A
C1392  C1396   1.397   .     A
C1392  C1398   1.384   .     A
C1393  H1413   1.080   .     S
C1393  C1401   1.412   .     A
C1393  C1395   1.394   .     A
C1394  C1402   1.411   .     A
C1394  C1396   1.394   .     A
C1394  H1414   1.081   .     S
C1395  H1412   1.083   .     S
C1396  H1411   1.081   .     S
C1397  H1410   1.077   .     S
C1397  C1399   1.394   .     A
C1398  C1400   1.396   .     A
C1398  H1409   1.080   .     S
C1399  C1403   1.418   .     A
C1399  C1401   1.423   .     A
C1400  C1402   1.420   .     A
C1400  C1404   1.413   .     A
C1401  C633    1.408   1_556 S
C1403  C1406   1.417   .     A
C1403  C630    1.405   1_556 S
C1404  C1405   1.411   .     A
C1405  H1415   1.078   .     S
C1405  C1407   1.394   .     A
C1406  H1416   1.079   .     S
C1406  C1408   1.397   .     A
C1407  N1433   1.436   .     S
C1408  N1436   1.437   .     S
C1408  C628    1.407   1_556 S
C1417  H1419   1.085   .     S
C1417  C1424   1.396   .     A
C1417  C905    1.376   1_565 S
C1418  H1420   1.085   .     S
C1418  C1423   1.396   .     A
C1421  C1423   1.403   .     A
C1421  N1439   1.425   .     S
C1422  N1445   1.425   .     S
C1422  C1424   1.403   .     A
C1422  C902    1.375   1_565 S
C1425  N1451   1.419   .     S
C1425  N1432   1.380   .     A
C1425  C1513   1.419   .     S
C1426  N1431   1.379   .     A
C1426  N1457   1.425   .     S
C1427  H1429   1.082   .     S
C1427  N1431   1.359   .     A
C1428  H1430   1.079   .     S
C1428  N1432   1.362   .     A
C1428  C1512   1.431   .     S
N1433  O1435   1.300   .     A
N1433  O1434   1.301   .     A
N1436  O1438   1.301   .     A
N1436  O1437   1.301   .     A
N1439  C1441   1.447   .     S
N1439  H1440   1.032   .     S
C1441  H1443   1.111   .     S
C1441  H1444   1.111   .     S
C1441  H1442   1.112   .     S
N1445  C1447   1.446   .     S
N1445  H1446   1.032   .     S
C1447  H1449   1.111   .     S
C1447  H1450   1.110   .     S
C1447  H1448   1.111   .     S
N1451  H1452   1.032   .     S
N1451  C1453   1.444   .     S
C1453  H1454   1.111   .     S
C1453  H1456   1.105   .     S
C1453  H1541   1.112   .     S
N1457  H1458   1.031   .     S
N1457  C1459   1.448   .     S
C1459  H1460   1.110   .     S
C1459  H1462   1.111   .     S
H1461  C1545   1.111   .     S
O1463  C1467   1.288   .     A
O1463  Zn1475  1.997   .     S
O1464  C1468   1.288   .     A
O1464  Zn1476  1.997   .     S
O1465  Zn1476  1.984   .     S
O1465  C1467   1.285   .     A
O1466  Zn1475  1.984   .     S
O1466  C1468   1.285   .     A
C1467  C1510   1.413   .     S
C1468  C1509   1.413   .     S
O1469  C1473   1.299   .     A
O1469  Zn1475  1.964   .     S
O1470  C1474   1.297   .     A
O1470  Zn1476  1.964   .     S
O1471  Zn1476  1.913   .     S
O1471  C1473   1.298   .     A
O1472  C1474   1.299   .     A
O1472  Zn1475  1.913   .     S
C1473  C1477   1.459   .     S
C1474  C1478   1.456   .     S
Zn1475 N1517   2.024   .     S
Zn1476 N1518   2.024   .     S
C1477  C1481   1.397   .     A
C1477  C1483   1.392   .     A
C1478  C1482   1.397   .     A
C1478  C1484   1.384   .     A
C1479  H1499   1.080   .     S
C1479  C1487   1.412   .     A
C1479  C1481   1.394   .     A
C1480  C1488   1.411   .     A
C1480  C1482   1.394   .     A
C1480  H1500   1.081   .     S
C1481  H1498   1.083   .     S
C1482  H1497   1.081   .     S
C1483  H1496   1.077   .     S
C1483  C1485   1.394   .     A
C1484  C1486   1.396   .     A
C1484  H1495   1.080   .     S
C1485  C1489   1.418   .     A
C1485  C1487   1.423   .     A
C1486  C1488   1.420   .     A
C1486  C1490   1.413   .     A
C1487  C719    1.408   1_556 S
C1489  C1492   1.417   .     A
C1489  C716    1.405   1_556 S
C1490  C1491   1.411   .     A
C1491  H1501   1.078   .     S
C1491  C1493   1.394   .     A
C1492  H1502   1.079   .     S
C1492  C1494   1.397   .     A
C1493  N1519   1.436   .     S
C1494  N1522   1.437   .     S
C1494  C714    1.407   1_556 S
C1503  H1505   1.085   .     S
C1503  C1510   1.396   .     A
C1503  C991    1.376   1_565 S
C1504  H1506   1.085   .     S
C1504  C1509   1.396   .     A
C1507  C1509   1.403   .     A
C1507  N1525   1.425   .     S
C1508  N1531   1.425   .     S
C1508  C1510   1.403   .     A
C1508  C988    1.375   1_565 S
C1511  N1537   1.419   .     S
C1511  N1518   1.380   .     A
C1511  C1341   1.419   1_655 S
C1512  N1517   1.379   .     A
C1512  N1543   1.425   .     S
C1513  H1515   1.082   .     S
C1513  N1517   1.359   .     A
C1514  H1516   1.079   .     S
C1514  N1518   1.362   .     A
C1514  C1340   1.431   1_655 S
N1519  O1521   1.300   .     A
N1519  O1520   1.301   .     A
N1522  O1524   1.301   .     A
N1522  O1523   1.301   .     A
N1525  C1527   1.447   .     S
N1525  H1526   1.032   .     S
C1527  H1529   1.111   .     S
C1527  H1530   1.111   .     S
C1527  H1528   1.112   .     S
N1531  C1533   1.446   .     S
N1531  H1532   1.032   .     S
C1533  H1535   1.111   .     S
C1533  H1536   1.110   .     S
C1533  H1534   1.111   .     S
N1537  H1538   1.032   .     S
N1537  C1539   1.444   .     S
C1539  H1540   1.111   .     S
C1539  H1542   1.105   .     S
C1539  H1369   1.112   1_655 S
N1543  H1544   1.031   .     S
N1543  C1545   1.448   .     S
C1545  H1546   1.110   .     S
C1545  H1548   1.111   .     S
H1547  C1373   1.111   1_655 S
