data_str_m3_o2_o5_pcu_sym.24
_audit_creation_date              2020-01-03
_audit_creation_method            'Materials Studio'
_symmetry_space_group_name_H-M    'P1'
_symmetry_Int_Tables_number       1
_symmetry_cell_setting            triclinic
loop_
_symmetry_equiv_pos_as_xyz
  x,y,z
_cell_length_a                    30.0548
_cell_length_b                    28.3924
_cell_length_c                    26.8477
_cell_angle_alpha                 90.0000
_cell_angle_beta                  89.9693
_cell_angle_gamma                 90.0000
loop_
_atom_site_label
_atom_site_type_symbol
_atom_site_fract_x
_atom_site_fract_y
_atom_site_fract_z
_atom_site_U_iso_or_equiv
_atom_site_adp_type
_atom_site_occupancy
C1     C     0.16401   0.25000   0.16665   0.00000  Uiso   1.00
C2     C     0.24050   0.44742   0.12316   0.00000  Uiso   1.00
C3     C     0.24998   0.25000   0.07285   0.00000  Uiso   1.00
C4     C     0.25002   0.25000   0.26049   0.00000  Uiso   1.00
C5     C     0.25000   0.02667   0.16667   0.00000  Uiso   1.00
C6     C     0.25000   0.47335   0.16667   0.00000  Uiso   1.00
C7     C     0.24999   0.25001   0.02175   0.00000  Uiso   1.00
C8     C     0.25001   0.25001   0.31158   0.00000  Uiso   1.00
C9     C     0.04696   0.26791   0.12539   0.00000  Uiso   1.00
C10    C     0.45321   0.23312   0.12540   0.00000  Uiso   1.00
C11    C     0.45304   0.26791   0.20794   0.00000  Uiso   1.00
C12    C     0.33599   0.25000   0.16668   0.00000  Uiso   1.00
C13    C     0.04679   0.23312   0.20793   0.00000  Uiso   1.00
C14    C     0.09305   0.26724   0.12457   0.00000  Uiso   1.00
C15    C     0.40713   0.23304   0.12473   0.00000  Uiso   1.00
C16    C     0.40695   0.26724   0.20877   0.00000  Uiso   1.00
C17    C     0.09287   0.23304   0.20860   0.00000  Uiso   1.00
C18    C     0.11611   0.25004   0.16659   0.00000  Uiso   1.00
C19    C     0.38389   0.25004   0.16675   0.00000  Uiso   1.00
C20    C     0.02405   0.25070   0.16670   0.00000  Uiso   1.00
C21    C     0.47595   0.25070   0.16663   0.00000  Uiso   1.00
C22    C     0.26156   0.10215   0.12465   0.00000  Uiso   1.00
C23    C     0.25918   0.39787   0.20939   0.00000  Uiso   1.00
C24    C     0.23844   0.10215   0.20868   0.00000  Uiso   1.00
C25    C     0.24082   0.39787   0.12394   0.00000  Uiso   1.00
C26    C     0.26193   0.05260   0.12390   0.00000  Uiso   1.00
C27    C     0.25950   0.44742   0.21017   0.00000  Uiso   1.00
C28    C     0.23807   0.05260   0.20943   0.00000  Uiso   1.00
H29    H     0.27069   0.12127   0.09139   0.00000  Uiso   1.00
H30    H     0.26779   0.46513   0.24462   0.00000  Uiso   1.00
H31    H     0.22785   0.03489   0.24324   0.00000  Uiso   1.00
H32    H     0.23221   0.46513   0.08871   0.00000  Uiso   1.00
H33    H     0.16750   0.33908   0.04893   0.00000  Uiso   1.00
H34    H     0.37050   0.14313   0.09711   0.00000  Uiso   1.00
H35    H     0.33250   0.33908   0.28440   0.00000  Uiso   1.00
H36    H     0.12950   0.14314   0.23622   0.00000  Uiso   1.00
H37    H     0.26642   0.37879   0.24323   0.00000  Uiso   1.00
H38    H     0.22931   0.12127   0.24194   0.00000  Uiso   1.00
H39    H     0.23357   0.37879   0.09010   0.00000  Uiso   1.00
H40    H     0.02866   0.28156   0.09379   0.00000  Uiso   1.00
H41    H     0.47163   0.21953   0.09384   0.00000  Uiso   1.00
H42    H     0.47134   0.28156   0.23954   0.00000  Uiso   1.00
H43    H     0.02837   0.21952   0.23950   0.00000  Uiso   1.00
H44    H     0.27215   0.03489   0.09009   0.00000  Uiso   1.00
N45    N     0.25000   0.12624   0.16667   0.00000  Uiso   1.00
N46    N     0.25000   0.37376   0.16667   0.00000  Uiso   1.00
O47    O     0.18453   0.28974   0.16667   0.00000  Uiso   1.00
O48    O     0.08763   0.29563   0.02886   0.00000  Uiso   1.00
O49    O     0.15134   0.33318   0.08049   0.00000  Uiso   1.00
O50    O     0.34945   0.25276   0.05278   0.00000  Uiso   1.00
O51    O     0.41262   0.20313   0.02932   0.00000  Uiso   1.00
O52    O     0.34939   0.16563   0.08174   0.00000  Uiso   1.00
O53    O     0.34961   0.24540   0.28045   0.00000  Uiso   1.00
O54    O     0.41237   0.29563   0.30448   0.00000  Uiso   1.00
O55    O     0.34866   0.33318   0.25285   0.00000  Uiso   1.00
O56    O     0.15055   0.25276   0.28055   0.00000  Uiso   1.00
O57    O     0.08738   0.20313   0.30401   0.00000  Uiso   1.00
O58    O     0.31547   0.21026   0.16666   0.00000  Uiso   1.00
O59    O     0.15060   0.16563   0.25159   0.00000  Uiso   1.00
O60    O     0.31547   0.28974   0.16666   0.00000  Uiso   1.00
O61    O     0.18453   0.21026   0.16667   0.00000  Uiso   1.00
O62    O     0.25000   0.28973   0.09511   0.00000  Uiso   1.00
O63    O     0.25000   0.21027   0.23822   0.00000  Uiso   1.00
O64    O     0.25000   0.28973   0.23822   0.00000  Uiso   1.00
O65    O     0.25000   0.21027   0.09511   0.00000  Uiso   1.00
O66    O     0.15039   0.24540   0.05288   0.00000  Uiso   1.00
S67    S     0.12061   0.28488   0.06938   0.00000  Uiso   1.00
S68    S     0.37976   0.21404   0.06995   0.00000  Uiso   1.00
S69    S     0.37939   0.28488   0.26395   0.00000  Uiso   1.00
S70    S     0.12024   0.21404   0.26338   0.00000  Uiso   1.00
Zn71   Zn    0.25000   0.30307   0.16667   0.00000  Uiso   1.00
Zn72   Zn    0.25000   0.19693   0.16667   0.00000  Uiso   1.00
C73    C     0.66401   0.25000   0.16665   0.00000  Uiso   1.00
C74    C     0.74050   0.44742   0.12316   0.00000  Uiso   1.00
C75    C     0.74998   0.25000   0.07285   0.00000  Uiso   1.00
C76    C     0.75002   0.25000   0.26049   0.00000  Uiso   1.00
C77    C     0.75000   0.02667   0.16667   0.00000  Uiso   1.00
C78    C     0.75000   0.47335   0.16667   0.00000  Uiso   1.00
C79    C     0.74999   0.25001   0.02175   0.00000  Uiso   1.00
C80    C     0.75001   0.25001   0.31158   0.00000  Uiso   1.00
C81    C     0.54696   0.26791   0.12539   0.00000  Uiso   1.00
C82    C     0.95321   0.23312   0.12540   0.00000  Uiso   1.00
C83    C     0.95304   0.26791   0.20794   0.00000  Uiso   1.00
C84    C     0.83599   0.25000   0.16668   0.00000  Uiso   1.00
C85    C     0.54679   0.23312   0.20793   0.00000  Uiso   1.00
C86    C     0.59305   0.26724   0.12457   0.00000  Uiso   1.00
C87    C     0.90713   0.23304   0.12473   0.00000  Uiso   1.00
C88    C     0.90695   0.26724   0.20877   0.00000  Uiso   1.00
C89    C     0.59287   0.23304   0.20860   0.00000  Uiso   1.00
C90    C     0.61611   0.25004   0.16659   0.00000  Uiso   1.00
C91    C     0.88389   0.25004   0.16675   0.00000  Uiso   1.00
C92    C     0.52405   0.25070   0.16670   0.00000  Uiso   1.00
C93    C     0.97595   0.25070   0.16663   0.00000  Uiso   1.00
C94    C     0.76156   0.10215   0.12465   0.00000  Uiso   1.00
C95    C     0.75918   0.39787   0.20939   0.00000  Uiso   1.00
C96    C     0.73844   0.10215   0.20868   0.00000  Uiso   1.00
C97    C     0.74082   0.39787   0.12394   0.00000  Uiso   1.00
C98    C     0.76193   0.05260   0.12390   0.00000  Uiso   1.00
C99    C     0.75950   0.44742   0.21017   0.00000  Uiso   1.00
C100   C     0.73807   0.05260   0.20943   0.00000  Uiso   1.00
H101   H     0.77069   0.12127   0.09139   0.00000  Uiso   1.00
H102   H     0.76779   0.46513   0.24462   0.00000  Uiso   1.00
H103   H     0.72785   0.03489   0.24324   0.00000  Uiso   1.00
H104   H     0.73221   0.46513   0.08871   0.00000  Uiso   1.00
H105   H     0.66750   0.33908   0.04893   0.00000  Uiso   1.00
H106   H     0.87050   0.14313   0.09711   0.00000  Uiso   1.00
H107   H     0.83250   0.33908   0.28440   0.00000  Uiso   1.00
H108   H     0.62950   0.14314   0.23622   0.00000  Uiso   1.00
H109   H     0.76642   0.37879   0.24323   0.00000  Uiso   1.00
H110   H     0.72931   0.12127   0.24194   0.00000  Uiso   1.00
H111   H     0.73357   0.37879   0.09010   0.00000  Uiso   1.00
H112   H     0.52866   0.28156   0.09379   0.00000  Uiso   1.00
H113   H     0.97163   0.21953   0.09384   0.00000  Uiso   1.00
H114   H     0.97134   0.28156   0.23954   0.00000  Uiso   1.00
H115   H     0.52837   0.21952   0.23950   0.00000  Uiso   1.00
H116   H     0.77215   0.03489   0.09009   0.00000  Uiso   1.00
N117   N     0.75000   0.12624   0.16667   0.00000  Uiso   1.00
N118   N     0.75000   0.37376   0.16667   0.00000  Uiso   1.00
O119   O     0.68453   0.28974   0.16667   0.00000  Uiso   1.00
O120   O     0.58763   0.29563   0.02886   0.00000  Uiso   1.00
O121   O     0.65134   0.33318   0.08049   0.00000  Uiso   1.00
O122   O     0.84945   0.25276   0.05278   0.00000  Uiso   1.00
O123   O     0.91262   0.20313   0.02932   0.00000  Uiso   1.00
O124   O     0.84939   0.16563   0.08174   0.00000  Uiso   1.00
O125   O     0.84961   0.24540   0.28045   0.00000  Uiso   1.00
O126   O     0.91237   0.29563   0.30448   0.00000  Uiso   1.00
O127   O     0.84866   0.33318   0.25285   0.00000  Uiso   1.00
O128   O     0.65055   0.25276   0.28055   0.00000  Uiso   1.00
O129   O     0.58738   0.20313   0.30401   0.00000  Uiso   1.00
O130   O     0.81547   0.21026   0.16666   0.00000  Uiso   1.00
O131   O     0.65060   0.16563   0.25159   0.00000  Uiso   1.00
O132   O     0.81547   0.28974   0.16666   0.00000  Uiso   1.00
O133   O     0.68453   0.21026   0.16667   0.00000  Uiso   1.00
O134   O     0.75000   0.28973   0.09511   0.00000  Uiso   1.00
O135   O     0.75000   0.21027   0.23822   0.00000  Uiso   1.00
O136   O     0.75000   0.28973   0.23822   0.00000  Uiso   1.00
O137   O     0.75000   0.21027   0.09511   0.00000  Uiso   1.00
O138   O     0.65039   0.24540   0.05288   0.00000  Uiso   1.00
S139   S     0.62061   0.28488   0.06938   0.00000  Uiso   1.00
S140   S     0.87976   0.21404   0.06995   0.00000  Uiso   1.00
S141   S     0.87939   0.28488   0.26395   0.00000  Uiso   1.00
S142   S     0.62024   0.21404   0.26338   0.00000  Uiso   1.00
Zn143  Zn    0.75000   0.30307   0.16667   0.00000  Uiso   1.00
Zn144  Zn    0.75000   0.19693   0.16667   0.00000  Uiso   1.00
C145   C     0.16401   0.75000   0.16665   0.00000  Uiso   1.00
C146   C     0.24050   0.94742   0.12316   0.00000  Uiso   1.00
C147   C     0.24998   0.75000   0.07285   0.00000  Uiso   1.00
C148   C     0.25002   0.75000   0.26049   0.00000  Uiso   1.00
C149   C     0.25000   0.52667   0.16667   0.00000  Uiso   1.00
C150   C     0.25000   0.97335   0.16667   0.00000  Uiso   1.00
C151   C     0.24999   0.75001   0.02175   0.00000  Uiso   1.00
C152   C     0.25001   0.75001   0.31158   0.00000  Uiso   1.00
C153   C     0.04696   0.76791   0.12539   0.00000  Uiso   1.00
C154   C     0.45321   0.73312   0.12540   0.00000  Uiso   1.00
C155   C     0.45304   0.76791   0.20794   0.00000  Uiso   1.00
C156   C     0.33599   0.75000   0.16668   0.00000  Uiso   1.00
C157   C     0.04679   0.73312   0.20793   0.00000  Uiso   1.00
C158   C     0.09305   0.76724   0.12457   0.00000  Uiso   1.00
C159   C     0.40713   0.73304   0.12473   0.00000  Uiso   1.00
C160   C     0.40695   0.76724   0.20877   0.00000  Uiso   1.00
C161   C     0.09287   0.73304   0.20860   0.00000  Uiso   1.00
C162   C     0.11611   0.75004   0.16659   0.00000  Uiso   1.00
C163   C     0.38389   0.75004   0.16675   0.00000  Uiso   1.00
C164   C     0.02405   0.75070   0.16670   0.00000  Uiso   1.00
C165   C     0.47595   0.75070   0.16663   0.00000  Uiso   1.00
C166   C     0.26156   0.60215   0.12465   0.00000  Uiso   1.00
C167   C     0.25918   0.89787   0.20939   0.00000  Uiso   1.00
C168   C     0.23844   0.60215   0.20868   0.00000  Uiso   1.00
C169   C     0.24082   0.89787   0.12394   0.00000  Uiso   1.00
C170   C     0.26193   0.55260   0.12390   0.00000  Uiso   1.00
C171   C     0.25950   0.94742   0.21017   0.00000  Uiso   1.00
C172   C     0.23807   0.55260   0.20943   0.00000  Uiso   1.00
H173   H     0.27069   0.62127   0.09139   0.00000  Uiso   1.00
H174   H     0.26779   0.96513   0.24462   0.00000  Uiso   1.00
H175   H     0.22785   0.53489   0.24324   0.00000  Uiso   1.00
H176   H     0.23221   0.96513   0.08871   0.00000  Uiso   1.00
H177   H     0.16750   0.83908   0.04893   0.00000  Uiso   1.00
H178   H     0.37050   0.64313   0.09711   0.00000  Uiso   1.00
H179   H     0.33250   0.83908   0.28440   0.00000  Uiso   1.00
H180   H     0.12950   0.64314   0.23622   0.00000  Uiso   1.00
H181   H     0.26642   0.87879   0.24323   0.00000  Uiso   1.00
H182   H     0.22931   0.62127   0.24194   0.00000  Uiso   1.00
H183   H     0.23357   0.87879   0.09010   0.00000  Uiso   1.00
H184   H     0.02866   0.78156   0.09379   0.00000  Uiso   1.00
H185   H     0.47163   0.71953   0.09384   0.00000  Uiso   1.00
H186   H     0.47134   0.78156   0.23954   0.00000  Uiso   1.00
H187   H     0.02837   0.71952   0.23950   0.00000  Uiso   1.00
H188   H     0.27215   0.53489   0.09009   0.00000  Uiso   1.00
N189   N     0.25000   0.62624   0.16667   0.00000  Uiso   1.00
N190   N     0.25000   0.87376   0.16667   0.00000  Uiso   1.00
O191   O     0.18453   0.78974   0.16667   0.00000  Uiso   1.00
O192   O     0.08763   0.79563   0.02886   0.00000  Uiso   1.00
O193   O     0.15134   0.83318   0.08049   0.00000  Uiso   1.00
O194   O     0.34945   0.75276   0.05278   0.00000  Uiso   1.00
O195   O     0.41262   0.70313   0.02932   0.00000  Uiso   1.00
O196   O     0.34939   0.66563   0.08174   0.00000  Uiso   1.00
O197   O     0.34961   0.74540   0.28045   0.00000  Uiso   1.00
O198   O     0.41237   0.79563   0.30448   0.00000  Uiso   1.00
O199   O     0.34866   0.83318   0.25285   0.00000  Uiso   1.00
O200   O     0.15055   0.75276   0.28055   0.00000  Uiso   1.00
O201   O     0.08738   0.70313   0.30401   0.00000  Uiso   1.00
O202   O     0.31547   0.71026   0.16666   0.00000  Uiso   1.00
O203   O     0.15060   0.66563   0.25159   0.00000  Uiso   1.00
O204   O     0.31547   0.78974   0.16666   0.00000  Uiso   1.00
O205   O     0.18453   0.71026   0.16667   0.00000  Uiso   1.00
O206   O     0.25000   0.78973   0.09511   0.00000  Uiso   1.00
O207   O     0.25000   0.71027   0.23822   0.00000  Uiso   1.00
O208   O     0.25000   0.78973   0.23822   0.00000  Uiso   1.00
O209   O     0.25000   0.71027   0.09511   0.00000  Uiso   1.00
O210   O     0.15039   0.74540   0.05288   0.00000  Uiso   1.00
S211   S     0.12061   0.78488   0.06938   0.00000  Uiso   1.00
S212   S     0.37976   0.71404   0.06995   0.00000  Uiso   1.00
S213   S     0.37939   0.78488   0.26395   0.00000  Uiso   1.00
S214   S     0.12024   0.71404   0.26338   0.00000  Uiso   1.00
Zn215  Zn    0.25000   0.80307   0.16667   0.00000  Uiso   1.00
Zn216  Zn    0.25000   0.69693   0.16667   0.00000  Uiso   1.00
C217   C     0.66401   0.75000   0.16665   0.00000  Uiso   1.00
C218   C     0.74050   0.94742   0.12316   0.00000  Uiso   1.00
C219   C     0.74998   0.75000   0.07285   0.00000  Uiso   1.00
C220   C     0.75002   0.75000   0.26049   0.00000  Uiso   1.00
C221   C     0.75000   0.52667   0.16667   0.00000  Uiso   1.00
C222   C     0.75000   0.97335   0.16667   0.00000  Uiso   1.00
C223   C     0.74999   0.75001   0.02175   0.00000  Uiso   1.00
C224   C     0.75001   0.75001   0.31158   0.00000  Uiso   1.00
C225   C     0.54696   0.76791   0.12539   0.00000  Uiso   1.00
C226   C     0.95321   0.73312   0.12540   0.00000  Uiso   1.00
C227   C     0.95304   0.76791   0.20794   0.00000  Uiso   1.00
C228   C     0.83599   0.75000   0.16668   0.00000  Uiso   1.00
C229   C     0.54679   0.73312   0.20793   0.00000  Uiso   1.00
C230   C     0.59305   0.76724   0.12457   0.00000  Uiso   1.00
C231   C     0.90713   0.73304   0.12473   0.00000  Uiso   1.00
C232   C     0.90695   0.76724   0.20877   0.00000  Uiso   1.00
C233   C     0.59287   0.73304   0.20860   0.00000  Uiso   1.00
C234   C     0.61611   0.75004   0.16659   0.00000  Uiso   1.00
C235   C     0.88389   0.75004   0.16675   0.00000  Uiso   1.00
C236   C     0.52405   0.75070   0.16670   0.00000  Uiso   1.00
C237   C     0.97595   0.75070   0.16663   0.00000  Uiso   1.00
C238   C     0.76156   0.60215   0.12465   0.00000  Uiso   1.00
C239   C     0.75918   0.89787   0.20939   0.00000  Uiso   1.00
C240   C     0.73844   0.60215   0.20868   0.00000  Uiso   1.00
C241   C     0.74082   0.89787   0.12394   0.00000  Uiso   1.00
C242   C     0.76193   0.55260   0.12390   0.00000  Uiso   1.00
C243   C     0.75950   0.94742   0.21017   0.00000  Uiso   1.00
C244   C     0.73807   0.55260   0.20943   0.00000  Uiso   1.00
H245   H     0.77069   0.62127   0.09139   0.00000  Uiso   1.00
H246   H     0.76779   0.96513   0.24462   0.00000  Uiso   1.00
H247   H     0.72785   0.53489   0.24324   0.00000  Uiso   1.00
H248   H     0.73221   0.96513   0.08871   0.00000  Uiso   1.00
H249   H     0.66750   0.83908   0.04893   0.00000  Uiso   1.00
H250   H     0.87050   0.64313   0.09711   0.00000  Uiso   1.00
H251   H     0.83250   0.83908   0.28440   0.00000  Uiso   1.00
H252   H     0.62950   0.64314   0.23622   0.00000  Uiso   1.00
H253   H     0.76642   0.87879   0.24323   0.00000  Uiso   1.00
H254   H     0.72931   0.62127   0.24194   0.00000  Uiso   1.00
H255   H     0.73357   0.87879   0.09010   0.00000  Uiso   1.00
H256   H     0.52866   0.78156   0.09379   0.00000  Uiso   1.00
H257   H     0.97163   0.71953   0.09384   0.00000  Uiso   1.00
H258   H     0.97134   0.78156   0.23954   0.00000  Uiso   1.00
H259   H     0.52837   0.71952   0.23950   0.00000  Uiso   1.00
H260   H     0.77215   0.53489   0.09009   0.00000  Uiso   1.00
N261   N     0.75000   0.62624   0.16667   0.00000  Uiso   1.00
N262   N     0.75000   0.87376   0.16667   0.00000  Uiso   1.00
O263   O     0.68453   0.78974   0.16667   0.00000  Uiso   1.00
O264   O     0.58763   0.79563   0.02886   0.00000  Uiso   1.00
O265   O     0.65134   0.83318   0.08049   0.00000  Uiso   1.00
O266   O     0.84945   0.75276   0.05278   0.00000  Uiso   1.00
O267   O     0.91262   0.70313   0.02932   0.00000  Uiso   1.00
O268   O     0.84939   0.66563   0.08174   0.00000  Uiso   1.00
O269   O     0.84961   0.74540   0.28045   0.00000  Uiso   1.00
O270   O     0.91237   0.79563   0.30448   0.00000  Uiso   1.00
O271   O     0.84866   0.83318   0.25285   0.00000  Uiso   1.00
O272   O     0.65055   0.75276   0.28055   0.00000  Uiso   1.00
O273   O     0.58738   0.70313   0.30401   0.00000  Uiso   1.00
O274   O     0.81547   0.71026   0.16666   0.00000  Uiso   1.00
O275   O     0.65060   0.66563   0.25159   0.00000  Uiso   1.00
O276   O     0.81547   0.78974   0.16666   0.00000  Uiso   1.00
O277   O     0.68453   0.71026   0.16667   0.00000  Uiso   1.00
O278   O     0.75000   0.78973   0.09511   0.00000  Uiso   1.00
O279   O     0.75000   0.71027   0.23822   0.00000  Uiso   1.00
O280   O     0.75000   0.78973   0.23822   0.00000  Uiso   1.00
O281   O     0.75000   0.71027   0.09511   0.00000  Uiso   1.00
O282   O     0.65039   0.74540   0.05288   0.00000  Uiso   1.00
S283   S     0.62061   0.78488   0.06938   0.00000  Uiso   1.00
S284   S     0.87976   0.71404   0.06995   0.00000  Uiso   1.00
S285   S     0.87939   0.78488   0.26395   0.00000  Uiso   1.00
S286   S     0.62024   0.71404   0.26338   0.00000  Uiso   1.00
Zn287  Zn    0.75000   0.80307   0.16667   0.00000  Uiso   1.00
Zn288  Zn    0.75000   0.69693   0.16667   0.00000  Uiso   1.00
C289   C     0.16401   0.25000   0.49999   0.00000  Uiso   1.00
C290   C     0.24050   0.44742   0.45650   0.00000  Uiso   1.00
C291   C     0.24998   0.25000   0.40618   0.00000  Uiso   1.00
C292   C     0.25002   0.25000   0.59382   0.00000  Uiso   1.00
C293   C     0.25000   0.02667   0.50000   0.00000  Uiso   1.00
C294   C     0.25000   0.47335   0.50000   0.00000  Uiso   1.00
C295   C     0.24999   0.25001   0.35509   0.00000  Uiso   1.00
C296   C     0.25001   0.25001   0.64491   0.00000  Uiso   1.00
C297   C     0.04696   0.26791   0.45872   0.00000  Uiso   1.00
C298   C     0.45321   0.23312   0.45874   0.00000  Uiso   1.00
C299   C     0.45304   0.26791   0.54128   0.00000  Uiso   1.00
C300   C     0.33599   0.25000   0.50001   0.00000  Uiso   1.00
C301   C     0.04679   0.23312   0.54126   0.00000  Uiso   1.00
C302   C     0.09305   0.26724   0.45790   0.00000  Uiso   1.00
C303   C     0.40713   0.23304   0.45807   0.00000  Uiso   1.00
C304   C     0.40695   0.26724   0.54210   0.00000  Uiso   1.00
C305   C     0.09287   0.23304   0.54193   0.00000  Uiso   1.00
C306   C     0.11611   0.25004   0.49992   0.00000  Uiso   1.00
C307   C     0.38389   0.25004   0.50008   0.00000  Uiso   1.00
C308   C     0.02405   0.25070   0.50004   0.00000  Uiso   1.00
C309   C     0.47595   0.25070   0.49996   0.00000  Uiso   1.00
C310   C     0.26156   0.10215   0.45799   0.00000  Uiso   1.00
C311   C     0.25918   0.39787   0.54273   0.00000  Uiso   1.00
C312   C     0.23844   0.10215   0.54201   0.00000  Uiso   1.00
C313   C     0.24082   0.39787   0.45727   0.00000  Uiso   1.00
C314   C     0.26193   0.05260   0.45723   0.00000  Uiso   1.00
C315   C     0.25950   0.44742   0.54350   0.00000  Uiso   1.00
C316   C     0.23807   0.05260   0.54277   0.00000  Uiso   1.00
H317   H     0.27069   0.12127   0.42473   0.00000  Uiso   1.00
H318   H     0.26779   0.46513   0.57795   0.00000  Uiso   1.00
H319   H     0.22785   0.03489   0.57657   0.00000  Uiso   1.00
H320   H     0.23221   0.46513   0.42205   0.00000  Uiso   1.00
H321   H     0.16750   0.33908   0.38226   0.00000  Uiso   1.00
H322   H     0.37050   0.14313   0.43044   0.00000  Uiso   1.00
H323   H     0.33250   0.33908   0.61774   0.00000  Uiso   1.00
H324   H     0.12950   0.14314   0.56955   0.00000  Uiso   1.00
H325   H     0.26642   0.37879   0.57656   0.00000  Uiso   1.00
H326   H     0.22931   0.12127   0.57527   0.00000  Uiso   1.00
H327   H     0.23357   0.37879   0.42344   0.00000  Uiso   1.00
H328   H     0.02866   0.28156   0.42712   0.00000  Uiso   1.00
H329   H     0.47163   0.21953   0.42717   0.00000  Uiso   1.00
H330   H     0.47134   0.28156   0.57288   0.00000  Uiso   1.00
H331   H     0.02837   0.21952   0.57283   0.00000  Uiso   1.00
H332   H     0.27215   0.03489   0.42343   0.00000  Uiso   1.00
N333   N     0.25000   0.12624   0.50000   0.00000  Uiso   1.00
N334   N     0.25000   0.37376   0.50000   0.00000  Uiso   1.00
O335   O     0.18453   0.28974   0.50000   0.00000  Uiso   1.00
O336   O     0.08763   0.29563   0.36219   0.00000  Uiso   1.00
O337   O     0.15134   0.33318   0.41382   0.00000  Uiso   1.00
O338   O     0.34945   0.25276   0.38612   0.00000  Uiso   1.00
O339   O     0.41262   0.20313   0.36265   0.00000  Uiso   1.00
O340   O     0.34939   0.16563   0.41507   0.00000  Uiso   1.00
O341   O     0.34961   0.24540   0.61378   0.00000  Uiso   1.00
O342   O     0.41237   0.29563   0.63781   0.00000  Uiso   1.00
O343   O     0.34866   0.33318   0.58618   0.00000  Uiso   1.00
O344   O     0.15055   0.25276   0.61388   0.00000  Uiso   1.00
O345   O     0.08738   0.20313   0.63735   0.00000  Uiso   1.00
O346   O     0.31547   0.21026   0.50000   0.00000  Uiso   1.00
O347   O     0.15060   0.16563   0.58493   0.00000  Uiso   1.00
O348   O     0.31547   0.28974   0.50000   0.00000  Uiso   1.00
O349   O     0.18453   0.21026   0.50000   0.00000  Uiso   1.00
O350   O     0.25000   0.28973   0.42845   0.00000  Uiso   1.00
O351   O     0.25000   0.21027   0.57155   0.00000  Uiso   1.00
O352   O     0.25000   0.28973   0.57155   0.00000  Uiso   1.00
O353   O     0.25000   0.21027   0.42845   0.00000  Uiso   1.00
O354   O     0.15039   0.24540   0.38621   0.00000  Uiso   1.00
S355   S     0.12061   0.28488   0.40272   0.00000  Uiso   1.00
S356   S     0.37976   0.21404   0.40328   0.00000  Uiso   1.00
S357   S     0.37939   0.28488   0.59728   0.00000  Uiso   1.00
S358   S     0.12024   0.21404   0.59672   0.00000  Uiso   1.00
Zn359  Zn    0.25000   0.30307   0.50000   0.00000  Uiso   1.00
Zn360  Zn    0.25000   0.19693   0.50000   0.00000  Uiso   1.00
C361   C     0.66401   0.25000   0.49999   0.00000  Uiso   1.00
C362   C     0.74050   0.44742   0.45650   0.00000  Uiso   1.00
C363   C     0.74998   0.25000   0.40618   0.00000  Uiso   1.00
C364   C     0.75002   0.25000   0.59382   0.00000  Uiso   1.00
C365   C     0.75000   0.02667   0.50000   0.00000  Uiso   1.00
C366   C     0.75000   0.47335   0.50000   0.00000  Uiso   1.00
C367   C     0.74999   0.25001   0.35509   0.00000  Uiso   1.00
C368   C     0.75001   0.25001   0.64491   0.00000  Uiso   1.00
C369   C     0.54696   0.26791   0.45872   0.00000  Uiso   1.00
C370   C     0.95321   0.23312   0.45874   0.00000  Uiso   1.00
C371   C     0.95304   0.26791   0.54128   0.00000  Uiso   1.00
C372   C     0.83599   0.25000   0.50001   0.00000  Uiso   1.00
C373   C     0.54679   0.23312   0.54126   0.00000  Uiso   1.00
C374   C     0.59305   0.26724   0.45790   0.00000  Uiso   1.00
C375   C     0.90713   0.23304   0.45807   0.00000  Uiso   1.00
C376   C     0.90695   0.26724   0.54210   0.00000  Uiso   1.00
C377   C     0.59287   0.23304   0.54193   0.00000  Uiso   1.00
C378   C     0.61611   0.25004   0.49992   0.00000  Uiso   1.00
C379   C     0.88389   0.25004   0.50008   0.00000  Uiso   1.00
C380   C     0.52405   0.25070   0.50004   0.00000  Uiso   1.00
C381   C     0.97595   0.25070   0.49996   0.00000  Uiso   1.00
C382   C     0.76156   0.10215   0.45799   0.00000  Uiso   1.00
C383   C     0.75918   0.39787   0.54273   0.00000  Uiso   1.00
C384   C     0.73844   0.10215   0.54201   0.00000  Uiso   1.00
C385   C     0.74082   0.39787   0.45727   0.00000  Uiso   1.00
C386   C     0.76193   0.05260   0.45723   0.00000  Uiso   1.00
C387   C     0.75950   0.44742   0.54350   0.00000  Uiso   1.00
C388   C     0.73807   0.05260   0.54277   0.00000  Uiso   1.00
H389   H     0.77069   0.12127   0.42473   0.00000  Uiso   1.00
H390   H     0.76779   0.46513   0.57795   0.00000  Uiso   1.00
H391   H     0.72785   0.03489   0.57657   0.00000  Uiso   1.00
H392   H     0.73221   0.46513   0.42205   0.00000  Uiso   1.00
H393   H     0.66750   0.33908   0.38226   0.00000  Uiso   1.00
H394   H     0.87050   0.14313   0.43044   0.00000  Uiso   1.00
H395   H     0.83250   0.33908   0.61774   0.00000  Uiso   1.00
H396   H     0.62950   0.14314   0.56955   0.00000  Uiso   1.00
H397   H     0.76642   0.37879   0.57656   0.00000  Uiso   1.00
H398   H     0.72931   0.12127   0.57527   0.00000  Uiso   1.00
H399   H     0.73357   0.37879   0.42344   0.00000  Uiso   1.00
H400   H     0.52866   0.28156   0.42712   0.00000  Uiso   1.00
H401   H     0.97163   0.21953   0.42717   0.00000  Uiso   1.00
H402   H     0.97134   0.28156   0.57288   0.00000  Uiso   1.00
H403   H     0.52837   0.21952   0.57283   0.00000  Uiso   1.00
H404   H     0.77215   0.03489   0.42343   0.00000  Uiso   1.00
N405   N     0.75000   0.12624   0.50000   0.00000  Uiso   1.00
N406   N     0.75000   0.37376   0.50000   0.00000  Uiso   1.00
O407   O     0.68453   0.28974   0.50000   0.00000  Uiso   1.00
O408   O     0.58763   0.29563   0.36219   0.00000  Uiso   1.00
O409   O     0.65134   0.33318   0.41382   0.00000  Uiso   1.00
O410   O     0.84945   0.25276   0.38612   0.00000  Uiso   1.00
O411   O     0.91262   0.20313   0.36265   0.00000  Uiso   1.00
O412   O     0.84939   0.16563   0.41507   0.00000  Uiso   1.00
O413   O     0.84961   0.24540   0.61378   0.00000  Uiso   1.00
O414   O     0.91237   0.29563   0.63781   0.00000  Uiso   1.00
O415   O     0.84866   0.33318   0.58618   0.00000  Uiso   1.00
O416   O     0.65055   0.25276   0.61388   0.00000  Uiso   1.00
O417   O     0.58738   0.20313   0.63735   0.00000  Uiso   1.00
O418   O     0.81547   0.21026   0.50000   0.00000  Uiso   1.00
O419   O     0.65060   0.16563   0.58493   0.00000  Uiso   1.00
O420   O     0.81547   0.28974   0.50000   0.00000  Uiso   1.00
O421   O     0.68453   0.21026   0.50000   0.00000  Uiso   1.00
O422   O     0.75000   0.28973   0.42845   0.00000  Uiso   1.00
O423   O     0.75000   0.21027   0.57155   0.00000  Uiso   1.00
O424   O     0.75000   0.28973   0.57155   0.00000  Uiso   1.00
O425   O     0.75000   0.21027   0.42845   0.00000  Uiso   1.00
O426   O     0.65039   0.24540   0.38621   0.00000  Uiso   1.00
S427   S     0.62061   0.28488   0.40272   0.00000  Uiso   1.00
S428   S     0.87976   0.21404   0.40328   0.00000  Uiso   1.00
S429   S     0.87939   0.28488   0.59728   0.00000  Uiso   1.00
S430   S     0.62024   0.21404   0.59672   0.00000  Uiso   1.00
Zn431  Zn    0.75000   0.30307   0.50000   0.00000  Uiso   1.00
Zn432  Zn    0.75000   0.19693   0.50000   0.00000  Uiso   1.00
C433   C     0.16401   0.75000   0.49999   0.00000  Uiso   1.00
C434   C     0.24050   0.94742   0.45650   0.00000  Uiso   1.00
C435   C     0.24998   0.75000   0.40618   0.00000  Uiso   1.00
C436   C     0.25002   0.75000   0.59382   0.00000  Uiso   1.00
C437   C     0.25000   0.52667   0.50000   0.00000  Uiso   1.00
C438   C     0.25000   0.97335   0.50000   0.00000  Uiso   1.00
C439   C     0.24999   0.75001   0.35509   0.00000  Uiso   1.00
C440   C     0.25001   0.75001   0.64491   0.00000  Uiso   1.00
C441   C     0.04696   0.76791   0.45872   0.00000  Uiso   1.00
C442   C     0.45321   0.73312   0.45874   0.00000  Uiso   1.00
C443   C     0.45304   0.76791   0.54128   0.00000  Uiso   1.00
C444   C     0.33599   0.75000   0.50001   0.00000  Uiso   1.00
C445   C     0.04679   0.73312   0.54126   0.00000  Uiso   1.00
C446   C     0.09305   0.76724   0.45790   0.00000  Uiso   1.00
C447   C     0.40713   0.73304   0.45807   0.00000  Uiso   1.00
C448   C     0.40695   0.76724   0.54210   0.00000  Uiso   1.00
C449   C     0.09287   0.73304   0.54193   0.00000  Uiso   1.00
C450   C     0.11611   0.75004   0.49992   0.00000  Uiso   1.00
C451   C     0.38389   0.75004   0.50008   0.00000  Uiso   1.00
C452   C     0.02405   0.75070   0.50004   0.00000  Uiso   1.00
C453   C     0.47595   0.75070   0.49996   0.00000  Uiso   1.00
C454   C     0.26156   0.60215   0.45799   0.00000  Uiso   1.00
C455   C     0.25918   0.89787   0.54273   0.00000  Uiso   1.00
C456   C     0.23844   0.60215   0.54201   0.00000  Uiso   1.00
C457   C     0.24082   0.89787   0.45727   0.00000  Uiso   1.00
C458   C     0.26193   0.55260   0.45723   0.00000  Uiso   1.00
C459   C     0.25950   0.94742   0.54350   0.00000  Uiso   1.00
C460   C     0.23807   0.55260   0.54277   0.00000  Uiso   1.00
H461   H     0.27069   0.62127   0.42473   0.00000  Uiso   1.00
H462   H     0.26779   0.96513   0.57795   0.00000  Uiso   1.00
H463   H     0.22785   0.53489   0.57657   0.00000  Uiso   1.00
H464   H     0.23221   0.96513   0.42205   0.00000  Uiso   1.00
H465   H     0.16750   0.83908   0.38226   0.00000  Uiso   1.00
H466   H     0.37050   0.64313   0.43044   0.00000  Uiso   1.00
H467   H     0.33250   0.83908   0.61774   0.00000  Uiso   1.00
H468   H     0.12950   0.64314   0.56955   0.00000  Uiso   1.00
H469   H     0.26642   0.87879   0.57656   0.00000  Uiso   1.00
H470   H     0.22931   0.62127   0.57527   0.00000  Uiso   1.00
H471   H     0.23357   0.87879   0.42344   0.00000  Uiso   1.00
H472   H     0.02866   0.78156   0.42712   0.00000  Uiso   1.00
H473   H     0.47163   0.71953   0.42717   0.00000  Uiso   1.00
H474   H     0.47134   0.78156   0.57288   0.00000  Uiso   1.00
H475   H     0.02837   0.71952   0.57283   0.00000  Uiso   1.00
H476   H     0.27215   0.53489   0.42343   0.00000  Uiso   1.00
N477   N     0.25000   0.62624   0.50000   0.00000  Uiso   1.00
N478   N     0.25000   0.87376   0.50000   0.00000  Uiso   1.00
O479   O     0.18453   0.78974   0.50000   0.00000  Uiso   1.00
O480   O     0.08763   0.79563   0.36219   0.00000  Uiso   1.00
O481   O     0.15134   0.83318   0.41382   0.00000  Uiso   1.00
O482   O     0.34945   0.75276   0.38612   0.00000  Uiso   1.00
O483   O     0.41262   0.70313   0.36265   0.00000  Uiso   1.00
O484   O     0.34939   0.66563   0.41507   0.00000  Uiso   1.00
O485   O     0.34961   0.74540   0.61378   0.00000  Uiso   1.00
O486   O     0.41237   0.79563   0.63781   0.00000  Uiso   1.00
O487   O     0.34866   0.83318   0.58618   0.00000  Uiso   1.00
O488   O     0.15055   0.75276   0.61388   0.00000  Uiso   1.00
O489   O     0.08738   0.70313   0.63735   0.00000  Uiso   1.00
O490   O     0.31547   0.71026   0.50000   0.00000  Uiso   1.00
O491   O     0.15060   0.66563   0.58493   0.00000  Uiso   1.00
O492   O     0.31547   0.78974   0.50000   0.00000  Uiso   1.00
O493   O     0.18453   0.71026   0.50000   0.00000  Uiso   1.00
O494   O     0.25000   0.78973   0.42845   0.00000  Uiso   1.00
O495   O     0.25000   0.71027   0.57155   0.00000  Uiso   1.00
O496   O     0.25000   0.78973   0.57155   0.00000  Uiso   1.00
O497   O     0.25000   0.71027   0.42845   0.00000  Uiso   1.00
O498   O     0.15039   0.74540   0.38621   0.00000  Uiso   1.00
S499   S     0.12061   0.78488   0.40272   0.00000  Uiso   1.00
S500   S     0.37976   0.71404   0.40328   0.00000  Uiso   1.00
S501   S     0.37939   0.78488   0.59728   0.00000  Uiso   1.00
S502   S     0.12024   0.71404   0.59672   0.00000  Uiso   1.00
Zn503  Zn    0.25000   0.80307   0.50000   0.00000  Uiso   1.00
Zn504  Zn    0.25000   0.69693   0.50000   0.00000  Uiso   1.00
C505   C     0.66401   0.75000   0.49999   0.00000  Uiso   1.00
C506   C     0.74050   0.94742   0.45650   0.00000  Uiso   1.00
C507   C     0.74998   0.75000   0.40618   0.00000  Uiso   1.00
C508   C     0.75002   0.75000   0.59382   0.00000  Uiso   1.00
C509   C     0.75000   0.52667   0.50000   0.00000  Uiso   1.00
C510   C     0.75000   0.97335   0.50000   0.00000  Uiso   1.00
C511   C     0.74999   0.75001   0.35509   0.00000  Uiso   1.00
C512   C     0.75001   0.75001   0.64491   0.00000  Uiso   1.00
C513   C     0.54696   0.76791   0.45872   0.00000  Uiso   1.00
C514   C     0.95321   0.73312   0.45874   0.00000  Uiso   1.00
C515   C     0.95304   0.76791   0.54128   0.00000  Uiso   1.00
C516   C     0.83599   0.75000   0.50001   0.00000  Uiso   1.00
C517   C     0.54679   0.73312   0.54126   0.00000  Uiso   1.00
C518   C     0.59305   0.76724   0.45790   0.00000  Uiso   1.00
C519   C     0.90713   0.73304   0.45807   0.00000  Uiso   1.00
C520   C     0.90695   0.76724   0.54210   0.00000  Uiso   1.00
C521   C     0.59287   0.73304   0.54193   0.00000  Uiso   1.00
C522   C     0.61611   0.75004   0.49992   0.00000  Uiso   1.00
C523   C     0.88389   0.75004   0.50008   0.00000  Uiso   1.00
C524   C     0.52405   0.75070   0.50004   0.00000  Uiso   1.00
C525   C     0.97595   0.75070   0.49996   0.00000  Uiso   1.00
C526   C     0.76156   0.60215   0.45799   0.00000  Uiso   1.00
C527   C     0.75918   0.89787   0.54273   0.00000  Uiso   1.00
C528   C     0.73844   0.60215   0.54201   0.00000  Uiso   1.00
C529   C     0.74082   0.89787   0.45727   0.00000  Uiso   1.00
C530   C     0.76193   0.55260   0.45723   0.00000  Uiso   1.00
C531   C     0.75950   0.94742   0.54350   0.00000  Uiso   1.00
C532   C     0.73807   0.55260   0.54277   0.00000  Uiso   1.00
H533   H     0.77069   0.62127   0.42473   0.00000  Uiso   1.00
H534   H     0.76779   0.96513   0.57795   0.00000  Uiso   1.00
H535   H     0.72785   0.53489   0.57657   0.00000  Uiso   1.00
H536   H     0.73221   0.96513   0.42205   0.00000  Uiso   1.00
H537   H     0.66750   0.83908   0.38226   0.00000  Uiso   1.00
H538   H     0.87050   0.64313   0.43044   0.00000  Uiso   1.00
H539   H     0.83250   0.83908   0.61774   0.00000  Uiso   1.00
H540   H     0.62950   0.64314   0.56955   0.00000  Uiso   1.00
H541   H     0.76642   0.87879   0.57656   0.00000  Uiso   1.00
H542   H     0.72931   0.62127   0.57527   0.00000  Uiso   1.00
H543   H     0.73357   0.87879   0.42344   0.00000  Uiso   1.00
H544   H     0.52866   0.78156   0.42712   0.00000  Uiso   1.00
H545   H     0.97163   0.71953   0.42717   0.00000  Uiso   1.00
H546   H     0.97134   0.78156   0.57288   0.00000  Uiso   1.00
H547   H     0.52837   0.71952   0.57283   0.00000  Uiso   1.00
H548   H     0.77215   0.53489   0.42343   0.00000  Uiso   1.00
N549   N     0.75000   0.62624   0.50000   0.00000  Uiso   1.00
N550   N     0.75000   0.87376   0.50000   0.00000  Uiso   1.00
O551   O     0.68453   0.78974   0.50000   0.00000  Uiso   1.00
O552   O     0.58763   0.79563   0.36219   0.00000  Uiso   1.00
O553   O     0.65134   0.83318   0.41382   0.00000  Uiso   1.00
O554   O     0.84945   0.75276   0.38612   0.00000  Uiso   1.00
O555   O     0.91262   0.70313   0.36265   0.00000  Uiso   1.00
O556   O     0.84939   0.66563   0.41507   0.00000  Uiso   1.00
O557   O     0.84961   0.74540   0.61378   0.00000  Uiso   1.00
O558   O     0.91237   0.79563   0.63781   0.00000  Uiso   1.00
O559   O     0.84866   0.83318   0.58618   0.00000  Uiso   1.00
O560   O     0.65055   0.75276   0.61388   0.00000  Uiso   1.00
O561   O     0.58738   0.70313   0.63735   0.00000  Uiso   1.00
O562   O     0.81547   0.71026   0.50000   0.00000  Uiso   1.00
O563   O     0.65060   0.66563   0.58493   0.00000  Uiso   1.00
O564   O     0.81547   0.78974   0.50000   0.00000  Uiso   1.00
O565   O     0.68453   0.71026   0.50000   0.00000  Uiso   1.00
O566   O     0.75000   0.78973   0.42845   0.00000  Uiso   1.00
O567   O     0.75000   0.71027   0.57155   0.00000  Uiso   1.00
O568   O     0.75000   0.78973   0.57155   0.00000  Uiso   1.00
O569   O     0.75000   0.71027   0.42845   0.00000  Uiso   1.00
O570   O     0.65039   0.74540   0.38621   0.00000  Uiso   1.00
S571   S     0.62061   0.78488   0.40272   0.00000  Uiso   1.00
S572   S     0.87976   0.71404   0.40328   0.00000  Uiso   1.00
S573   S     0.87939   0.78488   0.59728   0.00000  Uiso   1.00
S574   S     0.62024   0.71404   0.59672   0.00000  Uiso   1.00
Zn575  Zn    0.75000   0.80307   0.50000   0.00000  Uiso   1.00
Zn576  Zn    0.75000   0.69693   0.50000   0.00000  Uiso   1.00
C577   C     0.16401   0.25000   0.83332   0.00000  Uiso   1.00
C578   C     0.24050   0.44742   0.78983   0.00000  Uiso   1.00
C579   C     0.24998   0.25000   0.73951   0.00000  Uiso   1.00
C580   C     0.25002   0.25000   0.92715   0.00000  Uiso   1.00
C581   C     0.25000   0.02667   0.83333   0.00000  Uiso   1.00
C582   C     0.25000   0.47335   0.83333   0.00000  Uiso   1.00
C583   C     0.24999   0.25001   0.68842   0.00000  Uiso   1.00
C584   C     0.25001   0.25001   0.97825   0.00000  Uiso   1.00
C585   C     0.04696   0.26791   0.79206   0.00000  Uiso   1.00
C586   C     0.45321   0.23312   0.79207   0.00000  Uiso   1.00
C587   C     0.45304   0.26791   0.87461   0.00000  Uiso   1.00
C588   C     0.33599   0.25000   0.83335   0.00000  Uiso   1.00
C589   C     0.04679   0.23312   0.87459   0.00000  Uiso   1.00
C590   C     0.09305   0.26724   0.79123   0.00000  Uiso   1.00
C591   C     0.40713   0.23304   0.79140   0.00000  Uiso   1.00
C592   C     0.40695   0.26724   0.87543   0.00000  Uiso   1.00
C593   C     0.09287   0.23304   0.87527   0.00000  Uiso   1.00
C594   C     0.11611   0.25004   0.83325   0.00000  Uiso   1.00
C595   C     0.38389   0.25004   0.83341   0.00000  Uiso   1.00
C596   C     0.02405   0.25070   0.83337   0.00000  Uiso   1.00
C597   C     0.47595   0.25070   0.83330   0.00000  Uiso   1.00
C598   C     0.26156   0.10215   0.79132   0.00000  Uiso   1.00
C599   C     0.25918   0.39787   0.87606   0.00000  Uiso   1.00
C600   C     0.23844   0.10215   0.87535   0.00000  Uiso   1.00
C601   C     0.24082   0.39787   0.79061   0.00000  Uiso   1.00
C602   C     0.26193   0.05260   0.79057   0.00000  Uiso   1.00
C603   C     0.25950   0.44742   0.87684   0.00000  Uiso   1.00
C604   C     0.23807   0.05260   0.87610   0.00000  Uiso   1.00
H605   H     0.27069   0.12127   0.75806   0.00000  Uiso   1.00
H606   H     0.26779   0.46513   0.91129   0.00000  Uiso   1.00
H607   H     0.22785   0.03489   0.90991   0.00000  Uiso   1.00
H608   H     0.23221   0.46513   0.75538   0.00000  Uiso   1.00
H609   H     0.16750   0.33908   0.71560   0.00000  Uiso   1.00
H610   H     0.37050   0.14313   0.76378   0.00000  Uiso   1.00
H611   H     0.33250   0.33908   0.95107   0.00000  Uiso   1.00
H612   H     0.12950   0.14314   0.90288   0.00000  Uiso   1.00
H613   H     0.26642   0.37879   0.90990   0.00000  Uiso   1.00
H614   H     0.22931   0.12127   0.90861   0.00000  Uiso   1.00
H615   H     0.23357   0.37879   0.75677   0.00000  Uiso   1.00
H616   H     0.02866   0.28156   0.76046   0.00000  Uiso   1.00
H617   H     0.47163   0.21953   0.76050   0.00000  Uiso   1.00
H618   H     0.47134   0.28156   0.90621   0.00000  Uiso   1.00
H619   H     0.02837   0.21952   0.90616   0.00000  Uiso   1.00
H620   H     0.27215   0.03489   0.75676   0.00000  Uiso   1.00
N621   N     0.25000   0.12624   0.83333   0.00000  Uiso   1.00
N622   N     0.25000   0.37376   0.83333   0.00000  Uiso   1.00
O623   O     0.18453   0.28974   0.83334   0.00000  Uiso   1.00
O624   O     0.08763   0.29563   0.69552   0.00000  Uiso   1.00
O625   O     0.15134   0.33318   0.74715   0.00000  Uiso   1.00
O626   O     0.34945   0.25276   0.71945   0.00000  Uiso   1.00
O627   O     0.41262   0.20313   0.69598   0.00000  Uiso   1.00
O628   O     0.34939   0.16563   0.74840   0.00000  Uiso   1.00
O629   O     0.34961   0.24540   0.94712   0.00000  Uiso   1.00
O630   O     0.41237   0.29563   0.97114   0.00000  Uiso   1.00
O631   O     0.34866   0.33318   0.91951   0.00000  Uiso   1.00
O632   O     0.15055   0.25276   0.94722   0.00000  Uiso   1.00
O633   O     0.08738   0.20313   0.97068   0.00000  Uiso   1.00
O634   O     0.31547   0.21026   0.83333   0.00000  Uiso   1.00
O635   O     0.15060   0.16563   0.91826   0.00000  Uiso   1.00
O636   O     0.31547   0.28974   0.83333   0.00000  Uiso   1.00
O637   O     0.18453   0.21026   0.83334   0.00000  Uiso   1.00
O638   O     0.25000   0.28973   0.76178   0.00000  Uiso   1.00
O639   O     0.25000   0.21027   0.90489   0.00000  Uiso   1.00
O640   O     0.25000   0.28973   0.90489   0.00000  Uiso   1.00
O641   O     0.25000   0.21027   0.76178   0.00000  Uiso   1.00
O642   O     0.15039   0.24540   0.71955   0.00000  Uiso   1.00
S643   S     0.12061   0.28488   0.73605   0.00000  Uiso   1.00
S644   S     0.37976   0.21404   0.73662   0.00000  Uiso   1.00
S645   S     0.37939   0.28488   0.93062   0.00000  Uiso   1.00
S646   S     0.12024   0.21404   0.93005   0.00000  Uiso   1.00
Zn647  Zn    0.25000   0.30307   0.83333   0.00000  Uiso   1.00
Zn648  Zn    0.25000   0.19693   0.83333   0.00000  Uiso   1.00
C649   C     0.66401   0.25000   0.83332   0.00000  Uiso   1.00
C650   C     0.74050   0.44742   0.78983   0.00000  Uiso   1.00
C651   C     0.74998   0.25000   0.73951   0.00000  Uiso   1.00
C652   C     0.75002   0.25000   0.92715   0.00000  Uiso   1.00
C653   C     0.75000   0.02667   0.83333   0.00000  Uiso   1.00
C654   C     0.75000   0.47335   0.83333   0.00000  Uiso   1.00
C655   C     0.74999   0.25001   0.68842   0.00000  Uiso   1.00
C656   C     0.75001   0.25001   0.97825   0.00000  Uiso   1.00
C657   C     0.54696   0.26791   0.79206   0.00000  Uiso   1.00
C658   C     0.95321   0.23312   0.79207   0.00000  Uiso   1.00
C659   C     0.95304   0.26791   0.87461   0.00000  Uiso   1.00
C660   C     0.83599   0.25000   0.83335   0.00000  Uiso   1.00
C661   C     0.54679   0.23312   0.87459   0.00000  Uiso   1.00
C662   C     0.59305   0.26724   0.79123   0.00000  Uiso   1.00
C663   C     0.90713   0.23304   0.79140   0.00000  Uiso   1.00
C664   C     0.90695   0.26724   0.87543   0.00000  Uiso   1.00
C665   C     0.59287   0.23304   0.87527   0.00000  Uiso   1.00
C666   C     0.61611   0.25004   0.83325   0.00000  Uiso   1.00
C667   C     0.88389   0.25004   0.83341   0.00000  Uiso   1.00
C668   C     0.52405   0.25070   0.83337   0.00000  Uiso   1.00
C669   C     0.97595   0.25070   0.83330   0.00000  Uiso   1.00
C670   C     0.76156   0.10215   0.79132   0.00000  Uiso   1.00
C671   C     0.75918   0.39787   0.87606   0.00000  Uiso   1.00
C672   C     0.73844   0.10215   0.87535   0.00000  Uiso   1.00
C673   C     0.74082   0.39787   0.79061   0.00000  Uiso   1.00
C674   C     0.76193   0.05260   0.79057   0.00000  Uiso   1.00
C675   C     0.75950   0.44742   0.87684   0.00000  Uiso   1.00
C676   C     0.73807   0.05260   0.87610   0.00000  Uiso   1.00
H677   H     0.77069   0.12127   0.75806   0.00000  Uiso   1.00
H678   H     0.76779   0.46513   0.91129   0.00000  Uiso   1.00
H679   H     0.72785   0.03489   0.90991   0.00000  Uiso   1.00
H680   H     0.73221   0.46513   0.75538   0.00000  Uiso   1.00
H681   H     0.66750   0.33908   0.71560   0.00000  Uiso   1.00
H682   H     0.87050   0.14313   0.76378   0.00000  Uiso   1.00
H683   H     0.83250   0.33908   0.95107   0.00000  Uiso   1.00
H684   H     0.62950   0.14314   0.90288   0.00000  Uiso   1.00
H685   H     0.76642   0.37879   0.90990   0.00000  Uiso   1.00
H686   H     0.72931   0.12127   0.90861   0.00000  Uiso   1.00
H687   H     0.73357   0.37879   0.75677   0.00000  Uiso   1.00
H688   H     0.52866   0.28156   0.76046   0.00000  Uiso   1.00
H689   H     0.97163   0.21953   0.76050   0.00000  Uiso   1.00
H690   H     0.97134   0.28156   0.90621   0.00000  Uiso   1.00
H691   H     0.52837   0.21952   0.90616   0.00000  Uiso   1.00
H692   H     0.77215   0.03489   0.75676   0.00000  Uiso   1.00
N693   N     0.75000   0.12624   0.83333   0.00000  Uiso   1.00
N694   N     0.75000   0.37376   0.83333   0.00000  Uiso   1.00
O695   O     0.68453   0.28974   0.83334   0.00000  Uiso   1.00
O696   O     0.58763   0.29563   0.69552   0.00000  Uiso   1.00
O697   O     0.65134   0.33318   0.74715   0.00000  Uiso   1.00
O698   O     0.84945   0.25276   0.71945   0.00000  Uiso   1.00
O699   O     0.91262   0.20313   0.69598   0.00000  Uiso   1.00
O700   O     0.84939   0.16563   0.74840   0.00000  Uiso   1.00
O701   O     0.84961   0.24540   0.94712   0.00000  Uiso   1.00
O702   O     0.91237   0.29563   0.97114   0.00000  Uiso   1.00
O703   O     0.84866   0.33318   0.91951   0.00000  Uiso   1.00
O704   O     0.65055   0.25276   0.94722   0.00000  Uiso   1.00
O705   O     0.58738   0.20313   0.97068   0.00000  Uiso   1.00
O706   O     0.81547   0.21026   0.83333   0.00000  Uiso   1.00
O707   O     0.65060   0.16563   0.91826   0.00000  Uiso   1.00
O708   O     0.81547   0.28974   0.83333   0.00000  Uiso   1.00
O709   O     0.68453   0.21026   0.83334   0.00000  Uiso   1.00
O710   O     0.75000   0.28973   0.76178   0.00000  Uiso   1.00
O711   O     0.75000   0.21027   0.90489   0.00000  Uiso   1.00
O712   O     0.75000   0.28973   0.90489   0.00000  Uiso   1.00
O713   O     0.75000   0.21027   0.76178   0.00000  Uiso   1.00
O714   O     0.65039   0.24540   0.71955   0.00000  Uiso   1.00
S715   S     0.62061   0.28488   0.73605   0.00000  Uiso   1.00
S716   S     0.87976   0.21404   0.73662   0.00000  Uiso   1.00
S717   S     0.87939   0.28488   0.93062   0.00000  Uiso   1.00
S718   S     0.62024   0.21404   0.93005   0.00000  Uiso   1.00
Zn719  Zn    0.75000   0.30307   0.83333   0.00000  Uiso   1.00
Zn720  Zn    0.75000   0.19693   0.83333   0.00000  Uiso   1.00
C721   C     0.16401   0.75000   0.83332   0.00000  Uiso   1.00
C722   C     0.24050   0.94742   0.78983   0.00000  Uiso   1.00
C723   C     0.24998   0.75000   0.73951   0.00000  Uiso   1.00
C724   C     0.25002   0.75000   0.92715   0.00000  Uiso   1.00
C725   C     0.25000   0.52667   0.83333   0.00000  Uiso   1.00
C726   C     0.25000   0.97335   0.83333   0.00000  Uiso   1.00
C727   C     0.24999   0.75001   0.68842   0.00000  Uiso   1.00
C728   C     0.25001   0.75001   0.97825   0.00000  Uiso   1.00
C729   C     0.04696   0.76791   0.79206   0.00000  Uiso   1.00
C730   C     0.45321   0.73312   0.79207   0.00000  Uiso   1.00
C731   C     0.45304   0.76791   0.87461   0.00000  Uiso   1.00
C732   C     0.33599   0.75000   0.83335   0.00000  Uiso   1.00
C733   C     0.04679   0.73312   0.87459   0.00000  Uiso   1.00
C734   C     0.09305   0.76724   0.79123   0.00000  Uiso   1.00
C735   C     0.40713   0.73304   0.79140   0.00000  Uiso   1.00
C736   C     0.40695   0.76724   0.87543   0.00000  Uiso   1.00
C737   C     0.09287   0.73304   0.87527   0.00000  Uiso   1.00
C738   C     0.11611   0.75004   0.83325   0.00000  Uiso   1.00
C739   C     0.38389   0.75004   0.83341   0.00000  Uiso   1.00
C740   C     0.02405   0.75070   0.83337   0.00000  Uiso   1.00
C741   C     0.47595   0.75070   0.83330   0.00000  Uiso   1.00
C742   C     0.26156   0.60215   0.79132   0.00000  Uiso   1.00
C743   C     0.25918   0.89787   0.87606   0.00000  Uiso   1.00
C744   C     0.23844   0.60215   0.87535   0.00000  Uiso   1.00
C745   C     0.24082   0.89787   0.79061   0.00000  Uiso   1.00
C746   C     0.26193   0.55260   0.79057   0.00000  Uiso   1.00
C747   C     0.25950   0.94742   0.87684   0.00000  Uiso   1.00
C748   C     0.23807   0.55260   0.87610   0.00000  Uiso   1.00
H749   H     0.27069   0.62127   0.75806   0.00000  Uiso   1.00
H750   H     0.26779   0.96513   0.91129   0.00000  Uiso   1.00
H751   H     0.22785   0.53489   0.90991   0.00000  Uiso   1.00
H752   H     0.23221   0.96513   0.75538   0.00000  Uiso   1.00
H753   H     0.16750   0.83908   0.71560   0.00000  Uiso   1.00
H754   H     0.37050   0.64313   0.76378   0.00000  Uiso   1.00
H755   H     0.33250   0.83908   0.95107   0.00000  Uiso   1.00
H756   H     0.12950   0.64314   0.90288   0.00000  Uiso   1.00
H757   H     0.26642   0.87879   0.90990   0.00000  Uiso   1.00
H758   H     0.22931   0.62127   0.90861   0.00000  Uiso   1.00
H759   H     0.23357   0.87879   0.75677   0.00000  Uiso   1.00
H760   H     0.02866   0.78156   0.76046   0.00000  Uiso   1.00
H761   H     0.47163   0.71953   0.76050   0.00000  Uiso   1.00
H762   H     0.47134   0.78156   0.90621   0.00000  Uiso   1.00
H763   H     0.02837   0.71952   0.90616   0.00000  Uiso   1.00
H764   H     0.27215   0.53489   0.75676   0.00000  Uiso   1.00
N765   N     0.25000   0.62624   0.83333   0.00000  Uiso   1.00
N766   N     0.25000   0.87376   0.83333   0.00000  Uiso   1.00
O767   O     0.18453   0.78974   0.83334   0.00000  Uiso   1.00
O768   O     0.08763   0.79563   0.69552   0.00000  Uiso   1.00
O769   O     0.15134   0.83318   0.74715   0.00000  Uiso   1.00
O770   O     0.34945   0.75276   0.71945   0.00000  Uiso   1.00
O771   O     0.41262   0.70313   0.69598   0.00000  Uiso   1.00
O772   O     0.34939   0.66563   0.74840   0.00000  Uiso   1.00
O773   O     0.34961   0.74540   0.94712   0.00000  Uiso   1.00
O774   O     0.41237   0.79563   0.97114   0.00000  Uiso   1.00
O775   O     0.34866   0.83318   0.91951   0.00000  Uiso   1.00
O776   O     0.15055   0.75276   0.94722   0.00000  Uiso   1.00
O777   O     0.08738   0.70313   0.97068   0.00000  Uiso   1.00
O778   O     0.31547   0.71026   0.83333   0.00000  Uiso   1.00
O779   O     0.15060   0.66563   0.91826   0.00000  Uiso   1.00
O780   O     0.31547   0.78974   0.83333   0.00000  Uiso   1.00
O781   O     0.18453   0.71026   0.83334   0.00000  Uiso   1.00
O782   O     0.25000   0.78973   0.76178   0.00000  Uiso   1.00
O783   O     0.25000   0.71027   0.90489   0.00000  Uiso   1.00
O784   O     0.25000   0.78973   0.90489   0.00000  Uiso   1.00
O785   O     0.25000   0.71027   0.76178   0.00000  Uiso   1.00
O786   O     0.15039   0.74540   0.71955   0.00000  Uiso   1.00
S787   S     0.12061   0.78488   0.73605   0.00000  Uiso   1.00
S788   S     0.37976   0.71404   0.73662   0.00000  Uiso   1.00
S789   S     0.37939   0.78488   0.93062   0.00000  Uiso   1.00
S790   S     0.12024   0.71404   0.93005   0.00000  Uiso   1.00
Zn791  Zn    0.25000   0.80307   0.83333   0.00000  Uiso   1.00
Zn792  Zn    0.25000   0.69693   0.83333   0.00000  Uiso   1.00
C793   C     0.66401   0.75000   0.83332   0.00000  Uiso   1.00
C794   C     0.74050   0.94742   0.78983   0.00000  Uiso   1.00
C795   C     0.74998   0.75000   0.73951   0.00000  Uiso   1.00
C796   C     0.75002   0.75000   0.92715   0.00000  Uiso   1.00
C797   C     0.75000   0.52667   0.83333   0.00000  Uiso   1.00
C798   C     0.75000   0.97335   0.83333   0.00000  Uiso   1.00
C799   C     0.74999   0.75001   0.68842   0.00000  Uiso   1.00
C800   C     0.75001   0.75001   0.97825   0.00000  Uiso   1.00
C801   C     0.54696   0.76791   0.79206   0.00000  Uiso   1.00
C802   C     0.95321   0.73312   0.79207   0.00000  Uiso   1.00
C803   C     0.95304   0.76791   0.87461   0.00000  Uiso   1.00
C804   C     0.83599   0.75000   0.83335   0.00000  Uiso   1.00
C805   C     0.54679   0.73312   0.87459   0.00000  Uiso   1.00
C806   C     0.59305   0.76724   0.79123   0.00000  Uiso   1.00
C807   C     0.90713   0.73304   0.79140   0.00000  Uiso   1.00
C808   C     0.90695   0.76724   0.87543   0.00000  Uiso   1.00
C809   C     0.59287   0.73304   0.87527   0.00000  Uiso   1.00
C810   C     0.61611   0.75004   0.83325   0.00000  Uiso   1.00
C811   C     0.88389   0.75004   0.83341   0.00000  Uiso   1.00
C812   C     0.52405   0.75070   0.83337   0.00000  Uiso   1.00
C813   C     0.97595   0.75070   0.83330   0.00000  Uiso   1.00
C814   C     0.76156   0.60215   0.79132   0.00000  Uiso   1.00
C815   C     0.75918   0.89787   0.87606   0.00000  Uiso   1.00
C816   C     0.73844   0.60215   0.87535   0.00000  Uiso   1.00
C817   C     0.74082   0.89787   0.79061   0.00000  Uiso   1.00
C818   C     0.76193   0.55260   0.79057   0.00000  Uiso   1.00
C819   C     0.75950   0.94742   0.87684   0.00000  Uiso   1.00
C820   C     0.73807   0.55260   0.87610   0.00000  Uiso   1.00
H821   H     0.77069   0.62127   0.75806   0.00000  Uiso   1.00
H822   H     0.76779   0.96513   0.91129   0.00000  Uiso   1.00
H823   H     0.72785   0.53489   0.90991   0.00000  Uiso   1.00
H824   H     0.73221   0.96513   0.75538   0.00000  Uiso   1.00
H825   H     0.66750   0.83908   0.71560   0.00000  Uiso   1.00
H826   H     0.87050   0.64313   0.76378   0.00000  Uiso   1.00
H827   H     0.83250   0.83908   0.95107   0.00000  Uiso   1.00
H828   H     0.62950   0.64314   0.90288   0.00000  Uiso   1.00
H829   H     0.76642   0.87879   0.90990   0.00000  Uiso   1.00
H830   H     0.72931   0.62127   0.90861   0.00000  Uiso   1.00
H831   H     0.73357   0.87879   0.75677   0.00000  Uiso   1.00
H832   H     0.52866   0.78156   0.76046   0.00000  Uiso   1.00
H833   H     0.97163   0.71953   0.76050   0.00000  Uiso   1.00
H834   H     0.97134   0.78156   0.90621   0.00000  Uiso   1.00
H835   H     0.52837   0.71952   0.90616   0.00000  Uiso   1.00
H836   H     0.77215   0.53489   0.75676   0.00000  Uiso   1.00
N837   N     0.75000   0.62624   0.83333   0.00000  Uiso   1.00
N838   N     0.75000   0.87376   0.83333   0.00000  Uiso   1.00
O839   O     0.68453   0.78974   0.83334   0.00000  Uiso   1.00
O840   O     0.58763   0.79563   0.69552   0.00000  Uiso   1.00
O841   O     0.65134   0.83318   0.74715   0.00000  Uiso   1.00
O842   O     0.84945   0.75276   0.71945   0.00000  Uiso   1.00
O843   O     0.91262   0.70313   0.69598   0.00000  Uiso   1.00
O844   O     0.84939   0.66563   0.74840   0.00000  Uiso   1.00
O845   O     0.84961   0.74540   0.94712   0.00000  Uiso   1.00
O846   O     0.91237   0.79563   0.97114   0.00000  Uiso   1.00
O847   O     0.84866   0.83318   0.91951   0.00000  Uiso   1.00
O848   O     0.65055   0.75276   0.94722   0.00000  Uiso   1.00
O849   O     0.58738   0.70313   0.97068   0.00000  Uiso   1.00
O850   O     0.81547   0.71026   0.83333   0.00000  Uiso   1.00
O851   O     0.65060   0.66563   0.91826   0.00000  Uiso   1.00
O852   O     0.81547   0.78974   0.83333   0.00000  Uiso   1.00
O853   O     0.68453   0.71026   0.83334   0.00000  Uiso   1.00
O854   O     0.75000   0.78973   0.76178   0.00000  Uiso   1.00
O855   O     0.75000   0.71027   0.90489   0.00000  Uiso   1.00
O856   O     0.75000   0.78973   0.90489   0.00000  Uiso   1.00
O857   O     0.75000   0.71027   0.76178   0.00000  Uiso   1.00
O858   O     0.65039   0.74540   0.71955   0.00000  Uiso   1.00
S859   S     0.62061   0.78488   0.73605   0.00000  Uiso   1.00
S860   S     0.87976   0.71404   0.73662   0.00000  Uiso   1.00
S861   S     0.87939   0.78488   0.93062   0.00000  Uiso   1.00
S862   S     0.62024   0.71404   0.93005   0.00000  Uiso   1.00
Zn863  Zn    0.75000   0.80307   0.83333   0.00000  Uiso   1.00
Zn864  Zn    0.75000   0.69693   0.83333   0.00000  Uiso   1.00
loop_
_geom_bond_atom_site_label_1
_geom_bond_atom_site_label_2
_geom_bond_distance
_geom_bond_site_symmetry_2
_ccdc_geom_bond_type
C1     C18     1.440   .     S
C1     O47     1.286   .     A
C1     O61     1.286   .     A
C2     C6      1.410   .     A
C2     C25     1.407   .     A
C2     H32     1.082   .     S
C3     C7      1.372   .     S
C3     O65     1.277   .     A
C3     O62     1.277   .     A
C4     C8      1.372   .     S
C4     O63     1.277   .     A
C4     O64     1.277   .     A
C5     C28     1.410   .     A
C5     C26     1.410   .     A
C5     C150    1.514   1_545 S
C6     C27     1.410   .     A
C6     C149    1.514   .     S
C7     C584    1.168   1_554 S
C8     C295    1.168   .     S
C9     H40     1.083   .     S
C9     C14     1.385   .     A
C9     C20     1.394   .     A
C10    H41     1.083   .     S
C10    C21     1.394   .     A
C10    C15     1.385   .     A
C11    C16     1.385   .     A
C11    H42     1.083   .     S
C11    C21     1.394   .     A
C12    O58     1.286   .     A
C12    C19     1.440   .     S
C12    O60     1.286   .     A
C13    C17     1.385   .     A
C13    H43     1.083   .     S
C13    C20     1.394   .     A
C14    C18     1.412   .     A
C14    S67     1.769   .     S
C15    C19     1.411   .     A
C15    S68     1.770   .     S
C16    C19     1.412   .     A
C16    S69     1.769   .     S
C17    C18     1.411   .     A
C17    S70     1.770   .     S
C20    C93     1.446   1_455 S
C21    C92     1.446   .     S
C22    H29     1.080   .     S
C22    N45     1.364   .     A
C22    C26     1.407   .     A
C23    C27     1.407   .     A
C23    N46     1.364   .     A
C23    H37     1.080   .     S
C24    H38     1.080   .     S
C24    N45     1.364   .     A
C24    C28     1.407   .     A
C25    N46     1.364   .     A
C25    H39     1.080   .     S
C26    H44     1.082   .     S
C27    H30     1.082   .     S
C28    H31     1.082   .     S
H33    O49     0.991   .     S
H34    O52     0.990   .     S
H35    O55     0.991   .     S
H36    O59     0.990   .     S
N45    Zn72    2.007   .     S
N46    Zn71    2.007   .     S
O47    Zn71    2.004   .     S
O48    S67     1.504   .     D
O49    S67     1.680   .     S
O50    S68     1.501   .     D
O51    S68     1.503   .     D
O52    S68     1.680   .     S
O53    S69     1.501   .     D
O54    S69     1.504   .     D
O55    S69     1.680   .     S
O56    S70     1.501   .     D
O57    S70     1.503   .     D
O58    Zn72    2.004   .     S
O59    S70     1.680   .     S
O60    Zn71    2.004   .     S
O61    Zn72    2.004   .     S
O62    Zn71    1.958   .     S
O63    Zn72    1.958   .     S
O64    Zn71    1.958   .     S
O65    Zn72    1.958   .     S
O66    S67     1.501   .     D
C73    C90     1.440   .     S
C73    O119    1.286   .     A
C73    O133    1.286   .     A
C74    C78     1.410   .     A
C74    C97     1.407   .     A
C74    H104    1.082   .     S
C75    C79     1.372   .     S
C75    O137    1.277   .     A
C75    O134    1.277   .     A
C76    C80     1.372   .     S
C76    O135    1.277   .     A
C76    O136    1.277   .     A
C77    C100    1.410   .     A
C77    C98     1.410   .     A
C77    C222    1.514   1_545 S
C78    C99     1.410   .     A
C78    C221    1.514   .     S
C79    C656    1.168   1_554 S
C80    C367    1.168   .     S
C81    H112    1.083   .     S
C81    C86     1.385   .     A
C81    C92     1.394   .     A
C82    H113    1.083   .     S
C82    C93     1.394   .     A
C82    C87     1.385   .     A
C83    C88     1.385   .     A
C83    H114    1.083   .     S
C83    C93     1.394   .     A
C84    O130    1.286   .     A
C84    C91     1.440   .     S
C84    O132    1.286   .     A
C85    C89     1.385   .     A
C85    H115    1.083   .     S
C85    C92     1.394   .     A
C86    C90     1.412   .     A
C86    S139    1.769   .     S
C87    C91     1.411   .     A
C87    S140    1.770   .     S
C88    C91     1.412   .     A
C88    S141    1.769   .     S
C89    C90     1.411   .     A
C89    S142    1.770   .     S
C93    C20     1.446   1_655 S
C94    H101    1.080   .     S
C94    N117    1.364   .     A
C94    C98     1.407   .     A
C95    C99     1.407   .     A
C95    N118    1.364   .     A
C95    H109    1.080   .     S
C96    H110    1.080   .     S
C96    N117    1.364   .     A
C96    C100    1.407   .     A
C97    N118    1.364   .     A
C97    H111    1.080   .     S
C98    H116    1.082   .     S
C99    H102    1.082   .     S
C100   H103    1.082   .     S
H105   O121    0.991   .     S
H106   O124    0.990   .     S
H107   O127    0.991   .     S
H108   O131    0.990   .     S
N117   Zn144   2.007   .     S
N118   Zn143   2.007   .     S
O119   Zn143   2.004   .     S
O120   S139    1.504   .     D
O121   S139    1.680   .     S
O122   S140    1.501   .     D
O123   S140    1.503   .     D
O124   S140    1.680   .     S
O125   S141    1.501   .     D
O126   S141    1.504   .     D
O127   S141    1.680   .     S
O128   S142    1.501   .     D
O129   S142    1.503   .     D
O130   Zn144   2.004   .     S
O131   S142    1.680   .     S
O132   Zn143   2.004   .     S
O133   Zn144   2.004   .     S
O134   Zn143   1.958   .     S
O135   Zn144   1.958   .     S
O136   Zn143   1.958   .     S
O137   Zn144   1.958   .     S
O138   S139    1.501   .     D
C145   C162    1.440   .     S
C145   O191    1.286   .     A
C145   O205    1.286   .     A
C146   C150    1.410   .     A
C146   C169    1.407   .     A
C146   H176    1.082   .     S
C147   C151    1.372   .     S
C147   O209    1.277   .     A
C147   O206    1.277   .     A
C148   C152    1.372   .     S
C148   O207    1.277   .     A
C148   O208    1.277   .     A
C149   C172    1.410   .     A
C149   C170    1.410   .     A
C150   C171    1.410   .     A
C150   C5      1.514   1_565 S
C151   C728    1.168   1_554 S
C152   C439    1.168   .     S
C153   H184    1.083   .     S
C153   C158    1.385   .     A
C153   C164    1.394   .     A
C154   H185    1.083   .     S
C154   C165    1.394   .     A
C154   C159    1.385   .     A
C155   C160    1.385   .     A
C155   H186    1.083   .     S
C155   C165    1.394   .     A
C156   O202    1.286   .     A
C156   C163    1.440   .     S
C156   O204    1.286   .     A
C157   C161    1.385   .     A
C157   H187    1.083   .     S
C157   C164    1.394   .     A
C158   C162    1.412   .     A
C158   S211    1.769   .     S
C159   C163    1.411   .     A
C159   S212    1.770   .     S
C160   C163    1.412   .     A
C160   S213    1.769   .     S
C161   C162    1.411   .     A
C161   S214    1.770   .     S
C164   C237    1.446   1_455 S
C165   C236    1.446   .     S
C166   H173    1.080   .     S
C166   N189    1.364   .     A
C166   C170    1.407   .     A
C167   C171    1.407   .     A
C167   N190    1.364   .     A
C167   H181    1.080   .     S
C168   H182    1.080   .     S
C168   N189    1.364   .     A
C168   C172    1.407   .     A
C169   N190    1.364   .     A
C169   H183    1.080   .     S
C170   H188    1.082   .     S
C171   H174    1.082   .     S
C172   H175    1.082   .     S
H177   O193    0.991   .     S
H178   O196    0.990   .     S
H179   O199    0.991   .     S
H180   O203    0.990   .     S
N189   Zn216   2.007   .     S
N190   Zn215   2.007   .     S
O191   Zn215   2.004   .     S
O192   S211    1.504   .     D
O193   S211    1.680   .     S
O194   S212    1.501   .     D
O195   S212    1.503   .     D
O196   S212    1.680   .     S
O197   S213    1.501   .     D
O198   S213    1.504   .     D
O199   S213    1.680   .     S
O200   S214    1.501   .     D
O201   S214    1.503   .     D
O202   Zn216   2.004   .     S
O203   S214    1.680   .     S
O204   Zn215   2.004   .     S
O205   Zn216   2.004   .     S
O206   Zn215   1.958   .     S
O207   Zn216   1.958   .     S
O208   Zn215   1.958   .     S
O209   Zn216   1.958   .     S
O210   S211    1.501   .     D
C217   C234    1.440   .     S
C217   O263    1.286   .     A
C217   O277    1.286   .     A
C218   C222    1.410   .     A
C218   C241    1.407   .     A
C218   H248    1.082   .     S
C219   C223    1.372   .     S
C219   O281    1.277   .     A
C219   O278    1.277   .     A
C220   C224    1.372   .     S
C220   O279    1.277   .     A
C220   O280    1.277   .     A
C221   C244    1.410   .     A
C221   C242    1.410   .     A
C222   C243    1.410   .     A
C222   C77     1.514   1_565 S
C223   C800    1.168   1_554 S
C224   C511    1.168   .     S
C225   H256    1.083   .     S
C225   C230    1.385   .     A
C225   C236    1.394   .     A
C226   H257    1.083   .     S
C226   C237    1.394   .     A
C226   C231    1.385   .     A
C227   C232    1.385   .     A
C227   H258    1.083   .     S
C227   C237    1.394   .     A
C228   O274    1.286   .     A
C228   C235    1.440   .     S
C228   O276    1.286   .     A
C229   C233    1.385   .     A
C229   H259    1.083   .     S
C229   C236    1.394   .     A
C230   C234    1.412   .     A
C230   S283    1.769   .     S
C231   C235    1.411   .     A
C231   S284    1.770   .     S
C232   C235    1.412   .     A
C232   S285    1.769   .     S
C233   C234    1.411   .     A
C233   S286    1.770   .     S
C237   C164    1.446   1_655 S
C238   H245    1.080   .     S
C238   N261    1.364   .     A
C238   C242    1.407   .     A
C239   C243    1.407   .     A
C239   N262    1.364   .     A
C239   H253    1.080   .     S
C240   H254    1.080   .     S
C240   N261    1.364   .     A
C240   C244    1.407   .     A
C241   N262    1.364   .     A
C241   H255    1.080   .     S
C242   H260    1.082   .     S
C243   H246    1.082   .     S
C244   H247    1.082   .     S
H249   O265    0.991   .     S
H250   O268    0.990   .     S
H251   O271    0.991   .     S
H252   O275    0.990   .     S
N261   Zn288   2.007   .     S
N262   Zn287   2.007   .     S
O263   Zn287   2.004   .     S
O264   S283    1.504   .     D
O265   S283    1.680   .     S
O266   S284    1.501   .     D
O267   S284    1.503   .     D
O268   S284    1.680   .     S
O269   S285    1.501   .     D
O270   S285    1.504   .     D
O271   S285    1.680   .     S
O272   S286    1.501   .     D
O273   S286    1.503   .     D
O274   Zn288   2.004   .     S
O275   S286    1.680   .     S
O276   Zn287   2.004   .     S
O277   Zn288   2.004   .     S
O278   Zn287   1.958   .     S
O279   Zn288   1.958   .     S
O280   Zn287   1.958   .     S
O281   Zn288   1.958   .     S
O282   S283    1.501   .     D
C289   C306    1.440   .     S
C289   O335    1.286   .     A
C289   O349    1.286   .     A
C290   C294    1.410   .     A
C290   C313    1.407   .     A
C290   H320    1.082   .     S
C291   C295    1.372   .     S
C291   O353    1.277   .     A
C291   O350    1.277   .     A
C292   C296    1.372   .     S
C292   O351    1.277   .     A
C292   O352    1.277   .     A
C293   C316    1.410   .     A
C293   C314    1.410   .     A
C293   C438    1.514   1_545 S
C294   C315    1.410   .     A
C294   C437    1.514   .     S
C296   C583    1.168   .     S
C297   H328    1.083   .     S
C297   C302    1.385   .     A
C297   C308    1.394   .     A
C298   H329    1.083   .     S
C298   C309    1.394   .     A
C298   C303    1.385   .     A
C299   C304    1.385   .     A
C299   H330    1.083   .     S
C299   C309    1.394   .     A
C300   O346    1.286   .     A
C300   C307    1.440   .     S
C300   O348    1.286   .     A
C301   C305    1.385   .     A
C301   H331    1.083   .     S
C301   C308    1.394   .     A
C302   C306    1.412   .     A
C302   S355    1.769   .     S
C303   C307    1.411   .     A
C303   S356    1.770   .     S
C304   C307    1.412   .     A
C304   S357    1.769   .     S
C305   C306    1.411   .     A
C305   S358    1.770   .     S
C308   C381    1.446   1_455 S
C309   C380    1.446   .     S
C310   H317    1.080   .     S
C310   N333    1.364   .     A
C310   C314    1.407   .     A
C311   C315    1.407   .     A
C311   N334    1.364   .     A
C311   H325    1.080   .     S
C312   H326    1.080   .     S
C312   N333    1.364   .     A
C312   C316    1.407   .     A
C313   N334    1.364   .     A
C313   H327    1.080   .     S
C314   H332    1.082   .     S
C315   H318    1.082   .     S
C316   H319    1.082   .     S
H321   O337    0.991   .     S
H322   O340    0.990   .     S
H323   O343    0.991   .     S
H324   O347    0.990   .     S
N333   Zn360   2.007   .     S
N334   Zn359   2.007   .     S
O335   Zn359   2.004   .     S
O336   S355    1.504   .     D
O337   S355    1.680   .     S
O338   S356    1.501   .     D
O339   S356    1.503   .     D
O340   S356    1.680   .     S
O341   S357    1.501   .     D
O342   S357    1.504   .     D
O343   S357    1.680   .     S
O344   S358    1.501   .     D
O345   S358    1.503   .     D
O346   Zn360   2.004   .     S
O347   S358    1.680   .     S
O348   Zn359   2.004   .     S
O349   Zn360   2.004   .     S
O350   Zn359   1.958   .     S
O351   Zn360   1.958   .     S
O352   Zn359   1.958   .     S
O353   Zn360   1.958   .     S
O354   S355    1.501   .     D
C361   C378    1.440   .     S
C361   O407    1.286   .     A
C361   O421    1.286   .     A
C362   C366    1.410   .     A
C362   C385    1.407   .     A
C362   H392    1.082   .     S
C363   C367    1.372   .     S
C363   O425    1.277   .     A
C363   O422    1.277   .     A
C364   C368    1.372   .     S
C364   O423    1.277   .     A
C364   O424    1.277   .     A
C365   C388    1.410   .     A
C365   C386    1.410   .     A
C365   C510    1.514   1_545 S
C366   C387    1.410   .     A
C366   C509    1.514   .     S
C368   C655    1.168   .     S
C369   H400    1.083   .     S
C369   C374    1.385   .     A
C369   C380    1.394   .     A
C370   H401    1.083   .     S
C370   C381    1.394   .     A
C370   C375    1.385   .     A
C371   C376    1.385   .     A
C371   H402    1.083   .     S
C371   C381    1.394   .     A
C372   O418    1.286   .     A
C372   C379    1.440   .     S
C372   O420    1.286   .     A
C373   C377    1.385   .     A
C373   H403    1.083   .     S
C373   C380    1.394   .     A
C374   C378    1.412   .     A
C374   S427    1.769   .     S
C375   C379    1.411   .     A
C375   S428    1.770   .     S
C376   C379    1.412   .     A
C376   S429    1.769   .     S
C377   C378    1.411   .     A
C377   S430    1.770   .     S
C381   C308    1.446   1_655 S
C382   H389    1.080   .     S
C382   N405    1.364   .     A
C382   C386    1.407   .     A
C383   C387    1.407   .     A
C383   N406    1.364   .     A
C383   H397    1.080   .     S
C384   H398    1.080   .     S
C384   N405    1.364   .     A
C384   C388    1.407   .     A
C385   N406    1.364   .     A
C385   H399    1.080   .     S
C386   H404    1.082   .     S
C387   H390    1.082   .     S
C388   H391    1.082   .     S
H393   O409    0.991   .     S
H394   O412    0.990   .     S
H395   O415    0.991   .     S
H396   O419    0.990   .     S
N405   Zn432   2.007   .     S
N406   Zn431   2.007   .     S
O407   Zn431   2.004   .     S
O408   S427    1.504   .     D
O409   S427    1.680   .     S
O410   S428    1.501   .     D
O411   S428    1.503   .     D
O412   S428    1.680   .     S
O413   S429    1.501   .     D
O414   S429    1.504   .     D
O415   S429    1.680   .     S
O416   S430    1.501   .     D
O417   S430    1.503   .     D
O418   Zn432   2.004   .     S
O419   S430    1.680   .     S
O420   Zn431   2.004   .     S
O421   Zn432   2.004   .     S
O422   Zn431   1.958   .     S
O423   Zn432   1.958   .     S
O424   Zn431   1.958   .     S
O425   Zn432   1.958   .     S
O426   S427    1.501   .     D
C433   C450    1.440   .     S
C433   O479    1.286   .     A
C433   O493    1.286   .     A
C434   C438    1.410   .     A
C434   C457    1.407   .     A
C434   H464    1.082   .     S
C435   C439    1.372   .     S
C435   O497    1.277   .     A
C435   O494    1.277   .     A
C436   C440    1.372   .     S
C436   O495    1.277   .     A
C436   O496    1.277   .     A
C437   C460    1.410   .     A
C437   C458    1.410   .     A
C438   C459    1.410   .     A
C438   C293    1.514   1_565 S
C440   C727    1.168   .     S
C441   H472    1.083   .     S
C441   C446    1.385   .     A
C441   C452    1.394   .     A
C442   H473    1.083   .     S
C442   C453    1.394   .     A
C442   C447    1.385   .     A
C443   C448    1.385   .     A
C443   H474    1.083   .     S
C443   C453    1.394   .     A
C444   O490    1.286   .     A
C444   C451    1.440   .     S
C444   O492    1.286   .     A
C445   C449    1.385   .     A
C445   H475    1.083   .     S
C445   C452    1.394   .     A
C446   C450    1.412   .     A
C446   S499    1.769   .     S
C447   C451    1.411   .     A
C447   S500    1.770   .     S
C448   C451    1.412   .     A
C448   S501    1.769   .     S
C449   C450    1.411   .     A
C449   S502    1.770   .     S
C452   C525    1.446   1_455 S
C453   C524    1.446   .     S
C454   H461    1.080   .     S
C454   N477    1.364   .     A
C454   C458    1.407   .     A
C455   C459    1.407   .     A
C455   N478    1.364   .     A
C455   H469    1.080   .     S
C456   H470    1.080   .     S
C456   N477    1.364   .     A
C456   C460    1.407   .     A
C457   N478    1.364   .     A
C457   H471    1.080   .     S
C458   H476    1.082   .     S
C459   H462    1.082   .     S
C460   H463    1.082   .     S
H465   O481    0.991   .     S
H466   O484    0.990   .     S
H467   O487    0.991   .     S
H468   O491    0.990   .     S
N477   Zn504   2.007   .     S
N478   Zn503   2.007   .     S
O479   Zn503   2.004   .     S
O480   S499    1.504   .     D
O481   S499    1.680   .     S
O482   S500    1.501   .     D
O483   S500    1.503   .     D
O484   S500    1.680   .     S
O485   S501    1.501   .     D
O486   S501    1.504   .     D
O487   S501    1.680   .     S
O488   S502    1.501   .     D
O489   S502    1.503   .     D
O490   Zn504   2.004   .     S
O491   S502    1.680   .     S
O492   Zn503   2.004   .     S
O493   Zn504   2.004   .     S
O494   Zn503   1.958   .     S
O495   Zn504   1.958   .     S
O496   Zn503   1.958   .     S
O497   Zn504   1.958   .     S
O498   S499    1.501   .     D
C505   C522    1.440   .     S
C505   O551    1.286   .     A
C505   O565    1.286   .     A
C506   C510    1.410   .     A
C506   C529    1.407   .     A
C506   H536    1.082   .     S
C507   C511    1.372   .     S
C507   O569    1.277   .     A
C507   O566    1.277   .     A
C508   C512    1.372   .     S
C508   O567    1.277   .     A
C508   O568    1.277   .     A
C509   C532    1.410   .     A
C509   C530    1.410   .     A
C510   C531    1.410   .     A
C510   C365    1.514   1_565 S
C512   C799    1.168   .     S
C513   H544    1.083   .     S
C513   C518    1.385   .     A
C513   C524    1.394   .     A
C514   H545    1.083   .     S
C514   C525    1.394   .     A
C514   C519    1.385   .     A
C515   C520    1.385   .     A
C515   H546    1.083   .     S
C515   C525    1.394   .     A
C516   O562    1.286   .     A
C516   C523    1.440   .     S
C516   O564    1.286   .     A
C517   C521    1.385   .     A
C517   H547    1.083   .     S
C517   C524    1.394   .     A
C518   C522    1.412   .     A
C518   S571    1.769   .     S
C519   C523    1.411   .     A
C519   S572    1.770   .     S
C520   C523    1.412   .     A
C520   S573    1.769   .     S
C521   C522    1.411   .     A
C521   S574    1.770   .     S
C525   C452    1.446   1_655 S
C526   H533    1.080   .     S
C526   N549    1.364   .     A
C526   C530    1.407   .     A
C527   C531    1.407   .     A
C527   N550    1.364   .     A
C527   H541    1.080   .     S
C528   H542    1.080   .     S
C528   N549    1.364   .     A
C528   C532    1.407   .     A
C529   N550    1.364   .     A
C529   H543    1.080   .     S
C530   H548    1.082   .     S
C531   H534    1.082   .     S
C532   H535    1.082   .     S
H537   O553    0.991   .     S
H538   O556    0.990   .     S
H539   O559    0.991   .     S
H540   O563    0.990   .     S
N549   Zn576   2.007   .     S
N550   Zn575   2.007   .     S
O551   Zn575   2.004   .     S
O552   S571    1.504   .     D
O553   S571    1.680   .     S
O554   S572    1.501   .     D
O555   S572    1.503   .     D
O556   S572    1.680   .     S
O557   S573    1.501   .     D
O558   S573    1.504   .     D
O559   S573    1.680   .     S
O560   S574    1.501   .     D
O561   S574    1.503   .     D
O562   Zn576   2.004   .     S
O563   S574    1.680   .     S
O564   Zn575   2.004   .     S
O565   Zn576   2.004   .     S
O566   Zn575   1.958   .     S
O567   Zn576   1.958   .     S
O568   Zn575   1.958   .     S
O569   Zn576   1.958   .     S
O570   S571    1.501   .     D
C577   C594    1.440   .     S
C577   O623    1.286   .     A
C577   O637    1.286   .     A
C578   C582    1.410   .     A
C578   C601    1.407   .     A
C578   H608    1.082   .     S
C579   C583    1.372   .     S
C579   O641    1.277   .     A
C579   O638    1.277   .     A
C580   C584    1.372   .     S
C580   O639    1.277   .     A
C580   O640    1.277   .     A
C581   C604    1.410   .     A
C581   C602    1.410   .     A
C581   C726    1.514   1_545 S
C582   C603    1.410   .     A
C582   C725    1.514   .     S
C584   C7      1.168   1_556 S
C585   H616    1.083   .     S
C585   C590    1.385   .     A
C585   C596    1.394   .     A
C586   H617    1.083   .     S
C586   C597    1.394   .     A
C586   C591    1.385   .     A
C587   C592    1.385   .     A
C587   H618    1.083   .     S
C587   C597    1.394   .     A
C588   O634    1.286   .     A
C588   C595    1.440   .     S
C588   O636    1.286   .     A
C589   C593    1.385   .     A
C589   H619    1.083   .     S
C589   C596    1.394   .     A
C590   C594    1.412   .     A
C590   S643    1.769   .     S
C591   C595    1.411   .     A
C591   S644    1.770   .     S
C592   C595    1.412   .     A
C592   S645    1.769   .     S
C593   C594    1.411   .     A
C593   S646    1.770   .     S
C596   C669    1.446   1_455 S
C597   C668    1.446   .     S
C598   H605    1.080   .     S
C598   N621    1.364   .     A
C598   C602    1.407   .     A
C599   C603    1.407   .     A
C599   N622    1.364   .     A
C599   H613    1.080   .     S
C600   H614    1.080   .     S
C600   N621    1.364   .     A
C600   C604    1.407   .     A
C601   N622    1.364   .     A
C601   H615    1.080   .     S
C602   H620    1.082   .     S
C603   H606    1.082   .     S
C604   H607    1.082   .     S
H609   O625    0.991   .     S
H610   O628    0.990   .     S
H611   O631    0.991   .     S
H612   O635    0.990   .     S
N621   Zn648   2.007   .     S
N622   Zn647   2.007   .     S
O623   Zn647   2.004   .     S
O624   S643    1.504   .     D
O625   S643    1.680   .     S
O626   S644    1.501   .     D
O627   S644    1.503   .     D
O628   S644    1.680   .     S
O629   S645    1.501   .     D
O630   S645    1.504   .     D
O631   S645    1.680   .     S
O632   S646    1.501   .     D
O633   S646    1.503   .     D
O634   Zn648   2.004   .     S
O635   S646    1.680   .     S
O636   Zn647   2.004   .     S
O637   Zn648   2.004   .     S
O638   Zn647   1.958   .     S
O639   Zn648   1.958   .     S
O640   Zn647   1.958   .     S
O641   Zn648   1.958   .     S
O642   S643    1.501   .     D
C649   C666    1.440   .     S
C649   O695    1.286   .     A
C649   O709    1.286   .     A
C650   C654    1.410   .     A
C650   C673    1.407   .     A
C650   H680    1.082   .     S
C651   C655    1.372   .     S
C651   O713    1.277   .     A
C651   O710    1.277   .     A
C652   C656    1.372   .     S
C652   O711    1.277   .     A
C652   O712    1.277   .     A
C653   C676    1.410   .     A
C653   C674    1.410   .     A
C653   C798    1.514   1_545 S
C654   C675    1.410   .     A
C654   C797    1.514   .     S
C656   C79     1.168   1_556 S
C657   H688    1.083   .     S
C657   C662    1.385   .     A
C657   C668    1.394   .     A
C658   H689    1.083   .     S
C658   C669    1.394   .     A
C658   C663    1.385   .     A
C659   C664    1.385   .     A
C659   H690    1.083   .     S
C659   C669    1.394   .     A
C660   O706    1.286   .     A
C660   C667    1.440   .     S
C660   O708    1.286   .     A
C661   C665    1.385   .     A
C661   H691    1.083   .     S
C661   C668    1.394   .     A
C662   C666    1.412   .     A
C662   S715    1.769   .     S
C663   C667    1.411   .     A
C663   S716    1.770   .     S
C664   C667    1.412   .     A
C664   S717    1.769   .     S
C665   C666    1.411   .     A
C665   S718    1.770   .     S
C669   C596    1.446   1_655 S
C670   H677    1.080   .     S
C670   N693    1.364   .     A
C670   C674    1.407   .     A
C671   C675    1.407   .     A
C671   N694    1.364   .     A
C671   H685    1.080   .     S
C672   H686    1.080   .     S
C672   N693    1.364   .     A
C672   C676    1.407   .     A
C673   N694    1.364   .     A
C673   H687    1.080   .     S
C674   H692    1.082   .     S
C675   H678    1.082   .     S
C676   H679    1.082   .     S
H681   O697    0.991   .     S
H682   O700    0.990   .     S
H683   O703    0.991   .     S
H684   O707    0.990   .     S
N693   Zn720   2.007   .     S
N694   Zn719   2.007   .     S
O695   Zn719   2.004   .     S
O696   S715    1.504   .     D
O697   S715    1.680   .     S
O698   S716    1.501   .     D
O699   S716    1.503   .     D
O700   S716    1.680   .     S
O701   S717    1.501   .     D
O702   S717    1.504   .     D
O703   S717    1.680   .     S
O704   S718    1.501   .     D
O705   S718    1.503   .     D
O706   Zn720   2.004   .     S
O707   S718    1.680   .     S
O708   Zn719   2.004   .     S
O709   Zn720   2.004   .     S
O710   Zn719   1.958   .     S
O711   Zn720   1.958   .     S
O712   Zn719   1.958   .     S
O713   Zn720   1.958   .     S
O714   S715    1.501   .     D
C721   C738    1.440   .     S
C721   O767    1.286   .     A
C721   O781    1.286   .     A
C722   C726    1.410   .     A
C722   C745    1.407   .     A
C722   H752    1.082   .     S
C723   C727    1.372   .     S
C723   O785    1.277   .     A
C723   O782    1.277   .     A
C724   C728    1.372   .     S
C724   O783    1.277   .     A
C724   O784    1.277   .     A
C725   C748    1.410   .     A
C725   C746    1.410   .     A
C726   C747    1.410   .     A
C726   C581    1.514   1_565 S
C728   C151    1.168   1_556 S
C729   H760    1.083   .     S
C729   C734    1.385   .     A
C729   C740    1.394   .     A
C730   H761    1.083   .     S
C730   C741    1.394   .     A
C730   C735    1.385   .     A
C731   C736    1.385   .     A
C731   H762    1.083   .     S
C731   C741    1.394   .     A
C732   O778    1.286   .     A
C732   C739    1.440   .     S
C732   O780    1.286   .     A
C733   C737    1.385   .     A
C733   H763    1.083   .     S
C733   C740    1.394   .     A
C734   C738    1.412   .     A
C734   S787    1.769   .     S
C735   C739    1.411   .     A
C735   S788    1.770   .     S
C736   C739    1.412   .     A
C736   S789    1.769   .     S
C737   C738    1.411   .     A
C737   S790    1.770   .     S
C740   C813    1.446   1_455 S
C741   C812    1.446   .     S
C742   H749    1.080   .     S
C742   N765    1.364   .     A
C742   C746    1.407   .     A
C743   C747    1.407   .     A
C743   N766    1.364   .     A
C743   H757    1.080   .     S
C744   H758    1.080   .     S
C744   N765    1.364   .     A
C744   C748    1.407   .     A
C745   N766    1.364   .     A
C745   H759    1.080   .     S
C746   H764    1.082   .     S
C747   H750    1.082   .     S
C748   H751    1.082   .     S
H753   O769    0.991   .     S
H754   O772    0.990   .     S
H755   O775    0.991   .     S
H756   O779    0.990   .     S
N765   Zn792   2.007   .     S
N766   Zn791   2.007   .     S
O767   Zn791   2.004   .     S
O768   S787    1.504   .     D
O769   S787    1.680   .     S
O770   S788    1.501   .     D
O771   S788    1.503   .     D
O772   S788    1.680   .     S
O773   S789    1.501   .     D
O774   S789    1.504   .     D
O775   S789    1.680   .     S
O776   S790    1.501   .     D
O777   S790    1.503   .     D
O778   Zn792   2.004   .     S
O779   S790    1.680   .     S
O780   Zn791   2.004   .     S
O781   Zn792   2.004   .     S
O782   Zn791   1.958   .     S
O783   Zn792   1.958   .     S
O784   Zn791   1.958   .     S
O785   Zn792   1.958   .     S
O786   S787    1.501   .     D
C793   C810    1.440   .     S
C793   O839    1.286   .     A
C793   O853    1.286   .     A
C794   C798    1.410   .     A
C794   C817    1.407   .     A
C794   H824    1.082   .     S
C795   C799    1.372   .     S
C795   O857    1.277   .     A
C795   O854    1.277   .     A
C796   C800    1.372   .     S
C796   O855    1.277   .     A
C796   O856    1.277   .     A
C797   C820    1.410   .     A
C797   C818    1.410   .     A
C798   C819    1.410   .     A
C798   C653    1.514   1_565 S
C800   C223    1.168   1_556 S
C801   H832    1.083   .     S
C801   C806    1.385   .     A
C801   C812    1.394   .     A
C802   H833    1.083   .     S
C802   C813    1.394   .     A
C802   C807    1.385   .     A
C803   C808    1.385   .     A
C803   H834    1.083   .     S
C803   C813    1.394   .     A
C804   O850    1.286   .     A
C804   C811    1.440   .     S
C804   O852    1.286   .     A
C805   C809    1.385   .     A
C805   H835    1.083   .     S
C805   C812    1.394   .     A
C806   C810    1.412   .     A
C806   S859    1.769   .     S
C807   C811    1.411   .     A
C807   S860    1.770   .     S
C808   C811    1.412   .     A
C808   S861    1.769   .     S
C809   C810    1.411   .     A
C809   S862    1.770   .     S
C813   C740    1.446   1_655 S
C814   H821    1.080   .     S
C814   N837    1.364   .     A
C814   C818    1.407   .     A
C815   C819    1.407   .     A
C815   N838    1.364   .     A
C815   H829    1.080   .     S
C816   H830    1.080   .     S
C816   N837    1.364   .     A
C816   C820    1.407   .     A
C817   N838    1.364   .     A
C817   H831    1.080   .     S
C818   H836    1.082   .     S
C819   H822    1.082   .     S
C820   H823    1.082   .     S
H825   O841    0.991   .     S
H826   O844    0.990   .     S
H827   O847    0.991   .     S
H828   O851    0.990   .     S
N837   Zn864   2.007   .     S
N838   Zn863   2.007   .     S
O839   Zn863   2.004   .     S
O840   S859    1.504   .     D
O841   S859    1.680   .     S
O842   S860    1.501   .     D
O843   S860    1.503   .     D
O844   S860    1.680   .     S
O845   S861    1.501   .     D
O846   S861    1.504   .     D
O847   S861    1.680   .     S
O848   S862    1.501   .     D
O849   S862    1.503   .     D
O850   Zn864   2.004   .     S
O851   S862    1.680   .     S
O852   Zn863   2.004   .     S
O853   Zn864   2.004   .     S
O854   Zn863   1.958   .     S
O855   Zn864   1.958   .     S
O856   Zn863   1.958   .     S
O857   Zn864   1.958   .     S
O858   S859    1.501   .     D
