data_str_m2_o1_o2_pcu_sym.3
_audit_creation_date              2020-01-03
_audit_creation_method            'Materials Studio'
_symmetry_space_group_name_H-M    'P1'
_symmetry_Int_Tables_number       1
_symmetry_cell_setting            triclinic
loop_
_symmetry_equiv_pos_as_xyz
  x,y,z
_cell_length_a                    32.4192
_cell_length_b                    28.9240
_cell_length_c                    30.3400
_cell_angle_alpha                 89.5546
_cell_angle_beta                  93.5543
_cell_angle_gamma                 88.7590
loop_
_atom_site_label
_atom_site_type_symbol
_atom_site_fract_x
_atom_site_fract_y
_atom_site_fract_z
_atom_site_U_iso_or_equiv
_atom_site_adp_type
_atom_site_occupancy
O1     O     0.10655   0.20625   0.24999   0.00000  Uiso   1.00
O2     O     0.22679   0.12709   0.25000   0.00000  Uiso   1.00
O3     O     0.22679   0.20625   0.25000   0.00000  Uiso   1.00
O4     O     0.10655   0.12709   0.24999   0.00000  Uiso   1.00
N5     N     0.16667   0.28402   0.25000   0.00000  Uiso   1.00
N6     N     0.16667   0.04931   0.25000   0.00000  Uiso   1.00
C7     C     0.08751   0.16707   0.25053   0.00000  Uiso   1.00
C8     C     0.24588   0.16637   0.25072   0.00000  Uiso   1.00
O9     O     0.16666   0.20626   0.18573   0.00000  Uiso   1.00
O10    O     0.16667   0.12707   0.31427   0.00000  Uiso   1.00
O11    O     0.16667   0.20626   0.31427   0.00000  Uiso   1.00
O12    O     0.16666   0.12707   0.18573   0.00000  Uiso   1.00
C13    C     0.17025   0.16662   0.16523   0.00000  Uiso   1.00
C14    C     0.16663   0.16664   0.33488   0.00000  Uiso   1.00
Cu15   Cu    0.16667   0.21355   0.25000   0.00000  Uiso   1.00
Cu16   Cu    0.16667   0.11978   0.25000   0.00000  Uiso   1.00
C17    C     0.13547   0.02541   0.22834   0.00000  Uiso   1.00
C18    C     0.19561   0.30750   0.27511   0.00000  Uiso   1.00
C19    C     0.19837   0.02309   0.27082   0.00000  Uiso   1.00
C20    C     0.13893   0.31013   0.22300   0.00000  Uiso   1.00
C21    C     0.02363   0.13118   0.27232   0.00000  Uiso   1.00
C22    C     0.30991   0.20354   0.23182   0.00000  Uiso   1.00
C23    C     0.31425   0.13108   0.27278   0.00000  Uiso   1.00
C24    C     0.01926   0.20453   0.23275   0.00000  Uiso   1.00
C25    C     0.18309   0.20944   0.04807   0.00000  Uiso   1.00
C26    C     0.20015   0.14086   0.45393   0.00000  Uiso   1.00
C27    C     0.14507   0.19875   0.45201   0.00000  Uiso   1.00
C28    C     0.17329   0.12713   0.04608   0.00000  Uiso   1.00
H29    H     0.18839   0.24135   0.03051   0.00000  Uiso   1.00
H30    H     0.22255   0.11915   0.47292   0.00000  Uiso   1.00
H31    H     0.12463   0.22117   0.46959   0.00000  Uiso   1.00
H32    H     0.17010   0.09574   0.02695   0.00000  Uiso   1.00
C33    C     0.18582   0.20823   0.09427   0.00000  Uiso   1.00
C34    C     0.19767   0.13884   0.40802   0.00000  Uiso   1.00
C35    C     0.14172   0.19741   0.40580   0.00000  Uiso   1.00
C36    C     0.17544   0.12470   0.09209   0.00000  Uiso   1.00
C37    C     0.17691   0.16650   0.11692   0.00000  Uiso   1.00
C38    C     0.16822   0.16710   0.38342   0.00000  Uiso   1.00
H39    H     0.04159   0.10324   0.28861   0.00000  Uiso   1.00
H40    H     0.29204   0.23163   0.21566   0.00000  Uiso   1.00
H41    H     0.29997   0.10411   0.29073   0.00000  Uiso   1.00
H42    H     0.03336   0.23362   0.21777   0.00000  Uiso   1.00
C43    C     0.17556   0.16933   0.02415   0.00000  Uiso   1.00
C44    C     0.17391   0.17031   0.47589   0.00000  Uiso   1.00
C45    C     0.29057   0.16649   0.25136   0.00000  Uiso   1.00
C46    C     0.04291   0.16774   0.25190   0.00000  Uiso   1.00
N47    N     0.09804   0.04818   0.21129   0.00000  Uiso   1.00
O48    O     0.09811   0.07674   0.17806   0.00000  Uiso   1.00
O49    O     0.06279   0.03316   0.22312   0.00000  Uiso   1.00
N50    N     0.22578   0.28261   0.30293   0.00000  Uiso   1.00
O51    O     0.26376   0.27930   0.29155   0.00000  Uiso   1.00
O52    O     0.21819   0.27480   0.34388   0.00000  Uiso   1.00
N53    N     0.23787   0.04246   0.28038   0.00000  Uiso   1.00
O54    O     0.25423   0.04032   0.32055   0.00000  Uiso   1.00
O55    O     0.26258   0.04359   0.24819   0.00000  Uiso   1.00
N56    N     0.11851   0.29164   0.18359   0.00000  Uiso   1.00
O57    O     0.09538   0.25582   0.18462   0.00000  Uiso   1.00
O58    O     0.11703   0.31593   0.14718   0.00000  Uiso   1.00
C59    C     0.20309   0.25006   0.11775   0.00000  Uiso   1.00
H60    H     0.22826   0.23926   0.14244   0.00000  Uiso   1.00
H61    H     0.21648   0.27465   0.09452   0.00000  Uiso   1.00
H62    H     0.17868   0.26899   0.13413   0.00000  Uiso   1.00
C63    C     0.22659   0.10623   0.38627   0.00000  Uiso   1.00
H64    H     0.20826   0.07765   0.37163   0.00000  Uiso   1.00
H65    H     0.24286   0.12471   0.36046   0.00000  Uiso   1.00
H66    H     0.25044   0.09077   0.41018   0.00000  Uiso   1.00
C67    C     0.10888   0.22722   0.38136   0.00000  Uiso   1.00
H68    H     0.08965   0.20573   0.35831   0.00000  Uiso   1.00
H69    H     0.08799   0.24419   0.40431   0.00000  Uiso   1.00
H70    H     0.12346   0.25492   0.36262   0.00000  Uiso   1.00
C71    C     0.17937   0.07690   0.11253   0.00000  Uiso   1.00
H72    H     0.20573   0.07502   0.13770   0.00000  Uiso   1.00
H73    H     0.15036   0.06766   0.12703   0.00000  Uiso   1.00
H74    H     0.18561   0.04999   0.08770   0.00000  Uiso   1.00
O75    O     0.43988   0.20625   0.24999   0.00000  Uiso   1.00
O76    O     0.56012   0.12709   0.25000   0.00000  Uiso   1.00
O77    O     0.56012   0.20625   0.25000   0.00000  Uiso   1.00
O78    O     0.43988   0.12709   0.24999   0.00000  Uiso   1.00
N79    N     0.50000   0.28402   0.25000   0.00000  Uiso   1.00
N80    N     0.50000   0.04931   0.25000   0.00000  Uiso   1.00
C81    C     0.42084   0.16707   0.25053   0.00000  Uiso   1.00
C82    C     0.57921   0.16637   0.25072   0.00000  Uiso   1.00
O83    O     0.50000   0.20626   0.18573   0.00000  Uiso   1.00
O84    O     0.50000   0.12707   0.31427   0.00000  Uiso   1.00
O85    O     0.50000   0.20626   0.31427   0.00000  Uiso   1.00
O86    O     0.50000   0.12707   0.18573   0.00000  Uiso   1.00
C87    C     0.50358   0.16662   0.16523   0.00000  Uiso   1.00
C88    C     0.49997   0.16664   0.33488   0.00000  Uiso   1.00
Cu89   Cu    0.50000   0.21355   0.25000   0.00000  Uiso   1.00
Cu90   Cu    0.50000   0.11978   0.25000   0.00000  Uiso   1.00
C91    C     0.46880   0.02541   0.22834   0.00000  Uiso   1.00
C92    C     0.52894   0.30750   0.27511   0.00000  Uiso   1.00
C93    C     0.53170   0.02309   0.27082   0.00000  Uiso   1.00
C94    C     0.47226   0.31013   0.22300   0.00000  Uiso   1.00
C95    C     0.35696   0.13118   0.27232   0.00000  Uiso   1.00
C96    C     0.64325   0.20354   0.23182   0.00000  Uiso   1.00
C97    C     0.64758   0.13108   0.27278   0.00000  Uiso   1.00
C98    C     0.35259   0.20453   0.23275   0.00000  Uiso   1.00
C99    C     0.51642   0.20944   0.04807   0.00000  Uiso   1.00
C100   C     0.53348   0.14086   0.45393   0.00000  Uiso   1.00
C101   C     0.47841   0.19875   0.45201   0.00000  Uiso   1.00
C102   C     0.50663   0.12713   0.04608   0.00000  Uiso   1.00
H103   H     0.52172   0.24135   0.03051   0.00000  Uiso   1.00
H104   H     0.55588   0.11915   0.47292   0.00000  Uiso   1.00
H105   H     0.45796   0.22117   0.46959   0.00000  Uiso   1.00
H106   H     0.50343   0.09574   0.02695   0.00000  Uiso   1.00
C107   C     0.51916   0.20823   0.09427   0.00000  Uiso   1.00
C108   C     0.53100   0.13884   0.40802   0.00000  Uiso   1.00
C109   C     0.47506   0.19741   0.40580   0.00000  Uiso   1.00
C110   C     0.50878   0.12470   0.09209   0.00000  Uiso   1.00
C111   C     0.51024   0.16650   0.11692   0.00000  Uiso   1.00
C112   C     0.50156   0.16710   0.38342   0.00000  Uiso   1.00
H113   H     0.37493   0.10324   0.28861   0.00000  Uiso   1.00
H114   H     0.62537   0.23163   0.21566   0.00000  Uiso   1.00
H115   H     0.63331   0.10411   0.29073   0.00000  Uiso   1.00
H116   H     0.36670   0.23362   0.21777   0.00000  Uiso   1.00
C117   C     0.50890   0.16933   0.02415   0.00000  Uiso   1.00
C118   C     0.50724   0.17031   0.47589   0.00000  Uiso   1.00
C119   C     0.62391   0.16649   0.25136   0.00000  Uiso   1.00
C120   C     0.37624   0.16774   0.25190   0.00000  Uiso   1.00
N121   N     0.43137   0.04818   0.21129   0.00000  Uiso   1.00
O122   O     0.43145   0.07674   0.17806   0.00000  Uiso   1.00
O123   O     0.39612   0.03316   0.22312   0.00000  Uiso   1.00
N124   N     0.55911   0.28261   0.30293   0.00000  Uiso   1.00
O125   O     0.59710   0.27930   0.29155   0.00000  Uiso   1.00
O126   O     0.55153   0.27480   0.34388   0.00000  Uiso   1.00
N127   N     0.57121   0.04246   0.28038   0.00000  Uiso   1.00
O128   O     0.58756   0.04032   0.32055   0.00000  Uiso   1.00
O129   O     0.59591   0.04359   0.24819   0.00000  Uiso   1.00
N130   N     0.45184   0.29164   0.18359   0.00000  Uiso   1.00
O131   O     0.42872   0.25582   0.18462   0.00000  Uiso   1.00
O132   O     0.45036   0.31593   0.14718   0.00000  Uiso   1.00
C133   C     0.53643   0.25006   0.11775   0.00000  Uiso   1.00
H134   H     0.56160   0.23926   0.14244   0.00000  Uiso   1.00
H135   H     0.54982   0.27465   0.09452   0.00000  Uiso   1.00
H136   H     0.51201   0.26899   0.13413   0.00000  Uiso   1.00
C137   C     0.55993   0.10623   0.38627   0.00000  Uiso   1.00
H138   H     0.54159   0.07765   0.37163   0.00000  Uiso   1.00
H139   H     0.57620   0.12471   0.36046   0.00000  Uiso   1.00
H140   H     0.58377   0.09077   0.41018   0.00000  Uiso   1.00
C141   C     0.44222   0.22722   0.38136   0.00000  Uiso   1.00
H142   H     0.42298   0.20573   0.35831   0.00000  Uiso   1.00
H143   H     0.42132   0.24419   0.40431   0.00000  Uiso   1.00
H144   H     0.45679   0.25492   0.36262   0.00000  Uiso   1.00
C145   C     0.51270   0.07690   0.11253   0.00000  Uiso   1.00
H146   H     0.53906   0.07502   0.13770   0.00000  Uiso   1.00
H147   H     0.48369   0.06766   0.12703   0.00000  Uiso   1.00
H148   H     0.51894   0.04999   0.08770   0.00000  Uiso   1.00
O149   O     0.77321   0.20625   0.24999   0.00000  Uiso   1.00
O150   O     0.89345   0.12709   0.25000   0.00000  Uiso   1.00
O151   O     0.89345   0.20625   0.25000   0.00000  Uiso   1.00
O152   O     0.77321   0.12709   0.24999   0.00000  Uiso   1.00
N153   N     0.83333   0.28402   0.25000   0.00000  Uiso   1.00
N154   N     0.83333   0.04931   0.25000   0.00000  Uiso   1.00
C155   C     0.75418   0.16707   0.25053   0.00000  Uiso   1.00
C156   C     0.91254   0.16637   0.25072   0.00000  Uiso   1.00
O157   O     0.83333   0.20626   0.18573   0.00000  Uiso   1.00
O158   O     0.83334   0.12707   0.31427   0.00000  Uiso   1.00
O159   O     0.83334   0.20626   0.31427   0.00000  Uiso   1.00
O160   O     0.83333   0.12707   0.18573   0.00000  Uiso   1.00
C161   C     0.83692   0.16662   0.16523   0.00000  Uiso   1.00
C162   C     0.83330   0.16664   0.33488   0.00000  Uiso   1.00
Cu163  Cu    0.83333   0.21355   0.25000   0.00000  Uiso   1.00
Cu164  Cu    0.83333   0.11978   0.25000   0.00000  Uiso   1.00
C165   C     0.80213   0.02541   0.22834   0.00000  Uiso   1.00
C166   C     0.86227   0.30750   0.27511   0.00000  Uiso   1.00
C167   C     0.86504   0.02309   0.27082   0.00000  Uiso   1.00
C168   C     0.80560   0.31013   0.22300   0.00000  Uiso   1.00
C169   C     0.69029   0.13118   0.27232   0.00000  Uiso   1.00
C170   C     0.97658   0.20354   0.23182   0.00000  Uiso   1.00
C171   C     0.98091   0.13108   0.27278   0.00000  Uiso   1.00
C172   C     0.68592   0.20453   0.23275   0.00000  Uiso   1.00
C173   C     0.84975   0.20944   0.04807   0.00000  Uiso   1.00
C174   C     0.86682   0.14086   0.45393   0.00000  Uiso   1.00
C175   C     0.81174   0.19875   0.45201   0.00000  Uiso   1.00
C176   C     0.83996   0.12713   0.04608   0.00000  Uiso   1.00
H177   H     0.85505   0.24135   0.03051   0.00000  Uiso   1.00
H178   H     0.88922   0.11915   0.47292   0.00000  Uiso   1.00
H179   H     0.79129   0.22117   0.46959   0.00000  Uiso   1.00
H180   H     0.83677   0.09574   0.02695   0.00000  Uiso   1.00
C181   C     0.85249   0.20823   0.09427   0.00000  Uiso   1.00
C182   C     0.86433   0.13884   0.40802   0.00000  Uiso   1.00
C183   C     0.80839   0.19741   0.40580   0.00000  Uiso   1.00
C184   C     0.84211   0.12470   0.09209   0.00000  Uiso   1.00
C185   C     0.84358   0.16650   0.11692   0.00000  Uiso   1.00
C186   C     0.83489   0.16710   0.38342   0.00000  Uiso   1.00
H187   H     0.70826   0.10324   0.28861   0.00000  Uiso   1.00
H188   H     0.95871   0.23163   0.21566   0.00000  Uiso   1.00
H189   H     0.96664   0.10411   0.29073   0.00000  Uiso   1.00
H190   H     0.70003   0.23362   0.21777   0.00000  Uiso   1.00
C191   C     0.84223   0.16933   0.02415   0.00000  Uiso   1.00
C192   C     0.84057   0.17031   0.47589   0.00000  Uiso   1.00
C193   C     0.95724   0.16649   0.25136   0.00000  Uiso   1.00
C194   C     0.70958   0.16774   0.25190   0.00000  Uiso   1.00
N195   N     0.76470   0.04818   0.21129   0.00000  Uiso   1.00
O196   O     0.76478   0.07674   0.17806   0.00000  Uiso   1.00
O197   O     0.72945   0.03316   0.22312   0.00000  Uiso   1.00
N198   N     0.89245   0.28261   0.30293   0.00000  Uiso   1.00
O199   O     0.93043   0.27930   0.29155   0.00000  Uiso   1.00
O200   O     0.88486   0.27480   0.34388   0.00000  Uiso   1.00
N201   N     0.90454   0.04246   0.28038   0.00000  Uiso   1.00
O202   O     0.92089   0.04032   0.32055   0.00000  Uiso   1.00
O203   O     0.92925   0.04359   0.24819   0.00000  Uiso   1.00
N204   N     0.78517   0.29164   0.18359   0.00000  Uiso   1.00
O205   O     0.76205   0.25582   0.18462   0.00000  Uiso   1.00
O206   O     0.78370   0.31593   0.14718   0.00000  Uiso   1.00
C207   C     0.86976   0.25006   0.11775   0.00000  Uiso   1.00
H208   H     0.89493   0.23926   0.14244   0.00000  Uiso   1.00
H209   H     0.88315   0.27465   0.09452   0.00000  Uiso   1.00
H210   H     0.84534   0.26899   0.13413   0.00000  Uiso   1.00
C211   C     0.89326   0.10623   0.38627   0.00000  Uiso   1.00
H212   H     0.87492   0.07765   0.37163   0.00000  Uiso   1.00
H213   H     0.90953   0.12471   0.36046   0.00000  Uiso   1.00
H214   H     0.91711   0.09077   0.41018   0.00000  Uiso   1.00
C215   C     0.77555   0.22722   0.38136   0.00000  Uiso   1.00
H216   H     0.75631   0.20573   0.35831   0.00000  Uiso   1.00
H217   H     0.75466   0.24419   0.40431   0.00000  Uiso   1.00
H218   H     0.79012   0.25492   0.36262   0.00000  Uiso   1.00
C219   C     0.84604   0.07690   0.11253   0.00000  Uiso   1.00
H220   H     0.87240   0.07502   0.13770   0.00000  Uiso   1.00
H221   H     0.81702   0.06766   0.12703   0.00000  Uiso   1.00
H222   H     0.85228   0.04999   0.08770   0.00000  Uiso   1.00
O223   O     0.10655   0.53958   0.24999   0.00000  Uiso   1.00
O224   O     0.22679   0.46042   0.25000   0.00000  Uiso   1.00
O225   O     0.22679   0.53958   0.25000   0.00000  Uiso   1.00
O226   O     0.10655   0.46042   0.24999   0.00000  Uiso   1.00
N227   N     0.16667   0.61736   0.25000   0.00000  Uiso   1.00
N228   N     0.16667   0.38264   0.25000   0.00000  Uiso   1.00
C229   C     0.08751   0.50041   0.25053   0.00000  Uiso   1.00
C230   C     0.24588   0.49970   0.25072   0.00000  Uiso   1.00
O231   O     0.16666   0.53959   0.18573   0.00000  Uiso   1.00
O232   O     0.16667   0.46041   0.31427   0.00000  Uiso   1.00
O233   O     0.16667   0.53959   0.31427   0.00000  Uiso   1.00
O234   O     0.16666   0.46041   0.18573   0.00000  Uiso   1.00
C235   C     0.17025   0.49996   0.16523   0.00000  Uiso   1.00
C236   C     0.16663   0.49998   0.33488   0.00000  Uiso   1.00
Cu237  Cu    0.16667   0.54689   0.25000   0.00000  Uiso   1.00
Cu238  Cu    0.16667   0.45311   0.25000   0.00000  Uiso   1.00
C239   C     0.13547   0.35874   0.22834   0.00000  Uiso   1.00
C240   C     0.19561   0.64084   0.27511   0.00000  Uiso   1.00
C241   C     0.19837   0.35643   0.27082   0.00000  Uiso   1.00
C242   C     0.13893   0.64347   0.22300   0.00000  Uiso   1.00
C243   C     0.02363   0.46451   0.27232   0.00000  Uiso   1.00
C244   C     0.30991   0.53687   0.23182   0.00000  Uiso   1.00
C245   C     0.31425   0.46441   0.27278   0.00000  Uiso   1.00
C246   C     0.01926   0.53786   0.23275   0.00000  Uiso   1.00
C247   C     0.18309   0.54277   0.04807   0.00000  Uiso   1.00
C248   C     0.20015   0.47419   0.45393   0.00000  Uiso   1.00
C249   C     0.14507   0.53208   0.45201   0.00000  Uiso   1.00
C250   C     0.17329   0.46046   0.04608   0.00000  Uiso   1.00
H251   H     0.18839   0.57469   0.03051   0.00000  Uiso   1.00
H252   H     0.22255   0.45249   0.47292   0.00000  Uiso   1.00
H253   H     0.12463   0.55451   0.46959   0.00000  Uiso   1.00
H254   H     0.17010   0.42908   0.02695   0.00000  Uiso   1.00
C255   C     0.18582   0.54156   0.09427   0.00000  Uiso   1.00
C256   C     0.19767   0.47218   0.40802   0.00000  Uiso   1.00
C257   C     0.14172   0.53075   0.40580   0.00000  Uiso   1.00
C258   C     0.17544   0.45803   0.09209   0.00000  Uiso   1.00
C259   C     0.17691   0.49983   0.11692   0.00000  Uiso   1.00
C260   C     0.16822   0.50044   0.38342   0.00000  Uiso   1.00
H261   H     0.04159   0.43657   0.28861   0.00000  Uiso   1.00
H262   H     0.29204   0.56496   0.21566   0.00000  Uiso   1.00
H263   H     0.29997   0.43744   0.29073   0.00000  Uiso   1.00
H264   H     0.03336   0.56695   0.21777   0.00000  Uiso   1.00
C265   C     0.17556   0.50267   0.02415   0.00000  Uiso   1.00
C266   C     0.17391   0.50364   0.47589   0.00000  Uiso   1.00
C267   C     0.29057   0.49982   0.25136   0.00000  Uiso   1.00
C268   C     0.04291   0.50107   0.25190   0.00000  Uiso   1.00
N269   N     0.09804   0.38151   0.21129   0.00000  Uiso   1.00
O270   O     0.09811   0.41007   0.17806   0.00000  Uiso   1.00
O271   O     0.06279   0.36650   0.22312   0.00000  Uiso   1.00
N272   N     0.22578   0.61594   0.30293   0.00000  Uiso   1.00
O273   O     0.26376   0.61264   0.29155   0.00000  Uiso   1.00
O274   O     0.21819   0.60813   0.34388   0.00000  Uiso   1.00
N275   N     0.23787   0.37580   0.28038   0.00000  Uiso   1.00
O276   O     0.25423   0.37365   0.32055   0.00000  Uiso   1.00
O277   O     0.26258   0.37692   0.24819   0.00000  Uiso   1.00
N278   N     0.11851   0.62498   0.18359   0.00000  Uiso   1.00
O279   O     0.09538   0.58915   0.18462   0.00000  Uiso   1.00
O280   O     0.11703   0.64927   0.14718   0.00000  Uiso   1.00
C281   C     0.20309   0.58339   0.11775   0.00000  Uiso   1.00
H282   H     0.22826   0.57260   0.14244   0.00000  Uiso   1.00
H283   H     0.21648   0.60799   0.09452   0.00000  Uiso   1.00
H284   H     0.17868   0.60233   0.13413   0.00000  Uiso   1.00
C285   C     0.22659   0.43956   0.38627   0.00000  Uiso   1.00
H286   H     0.20826   0.41098   0.37163   0.00000  Uiso   1.00
H287   H     0.24286   0.45804   0.36046   0.00000  Uiso   1.00
H288   H     0.25044   0.42410   0.41018   0.00000  Uiso   1.00
C289   C     0.10888   0.56055   0.38136   0.00000  Uiso   1.00
H290   H     0.08965   0.53906   0.35831   0.00000  Uiso   1.00
H291   H     0.08799   0.57752   0.40431   0.00000  Uiso   1.00
H292   H     0.12346   0.58825   0.36262   0.00000  Uiso   1.00
C293   C     0.17937   0.41023   0.11253   0.00000  Uiso   1.00
H294   H     0.20573   0.40836   0.13770   0.00000  Uiso   1.00
H295   H     0.15036   0.40099   0.12703   0.00000  Uiso   1.00
H296   H     0.18561   0.38333   0.08770   0.00000  Uiso   1.00
O297   O     0.43988   0.53958   0.24999   0.00000  Uiso   1.00
O298   O     0.56012   0.46042   0.25000   0.00000  Uiso   1.00
O299   O     0.56012   0.53958   0.25000   0.00000  Uiso   1.00
O300   O     0.43988   0.46042   0.24999   0.00000  Uiso   1.00
N301   N     0.50000   0.61736   0.25000   0.00000  Uiso   1.00
N302   N     0.50000   0.38264   0.25000   0.00000  Uiso   1.00
C303   C     0.42084   0.50041   0.25053   0.00000  Uiso   1.00
C304   C     0.57921   0.49970   0.25072   0.00000  Uiso   1.00
O305   O     0.50000   0.53959   0.18573   0.00000  Uiso   1.00
O306   O     0.50000   0.46041   0.31427   0.00000  Uiso   1.00
O307   O     0.50000   0.53959   0.31427   0.00000  Uiso   1.00
O308   O     0.50000   0.46041   0.18573   0.00000  Uiso   1.00
C309   C     0.50358   0.49996   0.16523   0.00000  Uiso   1.00
C310   C     0.49997   0.49998   0.33488   0.00000  Uiso   1.00
Cu311  Cu    0.50000   0.54689   0.25000   0.00000  Uiso   1.00
Cu312  Cu    0.50000   0.45311   0.25000   0.00000  Uiso   1.00
C313   C     0.46880   0.35874   0.22834   0.00000  Uiso   1.00
C314   C     0.52894   0.64084   0.27511   0.00000  Uiso   1.00
C315   C     0.53170   0.35643   0.27082   0.00000  Uiso   1.00
C316   C     0.47226   0.64347   0.22300   0.00000  Uiso   1.00
C317   C     0.35696   0.46451   0.27232   0.00000  Uiso   1.00
C318   C     0.64325   0.53687   0.23182   0.00000  Uiso   1.00
C319   C     0.64758   0.46441   0.27278   0.00000  Uiso   1.00
C320   C     0.35259   0.53786   0.23275   0.00000  Uiso   1.00
C321   C     0.51642   0.54277   0.04807   0.00000  Uiso   1.00
C322   C     0.53348   0.47419   0.45393   0.00000  Uiso   1.00
C323   C     0.47841   0.53208   0.45201   0.00000  Uiso   1.00
C324   C     0.50663   0.46046   0.04608   0.00000  Uiso   1.00
H325   H     0.52172   0.57469   0.03051   0.00000  Uiso   1.00
H326   H     0.55588   0.45249   0.47292   0.00000  Uiso   1.00
H327   H     0.45796   0.55451   0.46959   0.00000  Uiso   1.00
H328   H     0.50343   0.42908   0.02695   0.00000  Uiso   1.00
C329   C     0.51916   0.54156   0.09427   0.00000  Uiso   1.00
C330   C     0.53100   0.47218   0.40802   0.00000  Uiso   1.00
C331   C     0.47506   0.53075   0.40580   0.00000  Uiso   1.00
C332   C     0.50878   0.45803   0.09209   0.00000  Uiso   1.00
C333   C     0.51024   0.49983   0.11692   0.00000  Uiso   1.00
C334   C     0.50156   0.50044   0.38342   0.00000  Uiso   1.00
H335   H     0.37493   0.43657   0.28861   0.00000  Uiso   1.00
H336   H     0.62537   0.56496   0.21566   0.00000  Uiso   1.00
H337   H     0.63331   0.43744   0.29073   0.00000  Uiso   1.00
H338   H     0.36670   0.56695   0.21777   0.00000  Uiso   1.00
C339   C     0.50890   0.50267   0.02415   0.00000  Uiso   1.00
C340   C     0.50724   0.50364   0.47589   0.00000  Uiso   1.00
C341   C     0.62391   0.49982   0.25136   0.00000  Uiso   1.00
C342   C     0.37624   0.50107   0.25190   0.00000  Uiso   1.00
N343   N     0.43137   0.38151   0.21129   0.00000  Uiso   1.00
O344   O     0.43145   0.41007   0.17806   0.00000  Uiso   1.00
O345   O     0.39612   0.36650   0.22312   0.00000  Uiso   1.00
N346   N     0.55911   0.61594   0.30293   0.00000  Uiso   1.00
O347   O     0.59710   0.61264   0.29155   0.00000  Uiso   1.00
O348   O     0.55153   0.60813   0.34388   0.00000  Uiso   1.00
N349   N     0.57121   0.37580   0.28038   0.00000  Uiso   1.00
O350   O     0.58756   0.37365   0.32055   0.00000  Uiso   1.00
O351   O     0.59591   0.37692   0.24819   0.00000  Uiso   1.00
N352   N     0.45184   0.62498   0.18359   0.00000  Uiso   1.00
O353   O     0.42872   0.58915   0.18462   0.00000  Uiso   1.00
O354   O     0.45036   0.64927   0.14718   0.00000  Uiso   1.00
C355   C     0.53643   0.58339   0.11775   0.00000  Uiso   1.00
H356   H     0.56160   0.57260   0.14244   0.00000  Uiso   1.00
H357   H     0.54982   0.60799   0.09452   0.00000  Uiso   1.00
H358   H     0.51201   0.60233   0.13413   0.00000  Uiso   1.00
C359   C     0.55993   0.43956   0.38627   0.00000  Uiso   1.00
H360   H     0.54159   0.41098   0.37163   0.00000  Uiso   1.00
H361   H     0.57620   0.45804   0.36046   0.00000  Uiso   1.00
H362   H     0.58377   0.42410   0.41018   0.00000  Uiso   1.00
C363   C     0.44222   0.56055   0.38136   0.00000  Uiso   1.00
H364   H     0.42298   0.53906   0.35831   0.00000  Uiso   1.00
H365   H     0.42132   0.57752   0.40431   0.00000  Uiso   1.00
H366   H     0.45679   0.58825   0.36262   0.00000  Uiso   1.00
C367   C     0.51270   0.41023   0.11253   0.00000  Uiso   1.00
H368   H     0.53906   0.40836   0.13770   0.00000  Uiso   1.00
H369   H     0.48369   0.40099   0.12703   0.00000  Uiso   1.00
H370   H     0.51894   0.38333   0.08770   0.00000  Uiso   1.00
O371   O     0.77321   0.53958   0.24999   0.00000  Uiso   1.00
O372   O     0.89345   0.46042   0.25000   0.00000  Uiso   1.00
O373   O     0.89345   0.53958   0.25000   0.00000  Uiso   1.00
O374   O     0.77321   0.46042   0.24999   0.00000  Uiso   1.00
N375   N     0.83333   0.61736   0.25000   0.00000  Uiso   1.00
N376   N     0.83333   0.38264   0.25000   0.00000  Uiso   1.00
C377   C     0.75418   0.50041   0.25053   0.00000  Uiso   1.00
C378   C     0.91254   0.49970   0.25072   0.00000  Uiso   1.00
O379   O     0.83333   0.53959   0.18573   0.00000  Uiso   1.00
O380   O     0.83334   0.46041   0.31427   0.00000  Uiso   1.00
O381   O     0.83334   0.53959   0.31427   0.00000  Uiso   1.00
O382   O     0.83333   0.46041   0.18573   0.00000  Uiso   1.00
C383   C     0.83692   0.49996   0.16523   0.00000  Uiso   1.00
C384   C     0.83330   0.49998   0.33488   0.00000  Uiso   1.00
Cu385  Cu    0.83333   0.54689   0.25000   0.00000  Uiso   1.00
Cu386  Cu    0.83333   0.45311   0.25000   0.00000  Uiso   1.00
C387   C     0.80213   0.35874   0.22834   0.00000  Uiso   1.00
C388   C     0.86227   0.64084   0.27511   0.00000  Uiso   1.00
C389   C     0.86504   0.35643   0.27082   0.00000  Uiso   1.00
C390   C     0.80560   0.64347   0.22300   0.00000  Uiso   1.00
C391   C     0.69029   0.46451   0.27232   0.00000  Uiso   1.00
C392   C     0.97658   0.53687   0.23182   0.00000  Uiso   1.00
C393   C     0.98091   0.46441   0.27278   0.00000  Uiso   1.00
C394   C     0.68592   0.53786   0.23275   0.00000  Uiso   1.00
C395   C     0.84975   0.54277   0.04807   0.00000  Uiso   1.00
C396   C     0.86682   0.47419   0.45393   0.00000  Uiso   1.00
C397   C     0.81174   0.53208   0.45201   0.00000  Uiso   1.00
C398   C     0.83996   0.46046   0.04608   0.00000  Uiso   1.00
H399   H     0.85505   0.57469   0.03051   0.00000  Uiso   1.00
H400   H     0.88922   0.45249   0.47292   0.00000  Uiso   1.00
H401   H     0.79129   0.55451   0.46959   0.00000  Uiso   1.00
H402   H     0.83677   0.42908   0.02695   0.00000  Uiso   1.00
C403   C     0.85249   0.54156   0.09427   0.00000  Uiso   1.00
C404   C     0.86433   0.47218   0.40802   0.00000  Uiso   1.00
C405   C     0.80839   0.53075   0.40580   0.00000  Uiso   1.00
C406   C     0.84211   0.45803   0.09209   0.00000  Uiso   1.00
C407   C     0.84358   0.49983   0.11692   0.00000  Uiso   1.00
C408   C     0.83489   0.50044   0.38342   0.00000  Uiso   1.00
H409   H     0.70826   0.43657   0.28861   0.00000  Uiso   1.00
H410   H     0.95871   0.56496   0.21566   0.00000  Uiso   1.00
H411   H     0.96664   0.43744   0.29073   0.00000  Uiso   1.00
H412   H     0.70003   0.56695   0.21777   0.00000  Uiso   1.00
C413   C     0.84223   0.50267   0.02415   0.00000  Uiso   1.00
C414   C     0.84057   0.50364   0.47589   0.00000  Uiso   1.00
C415   C     0.95724   0.49982   0.25136   0.00000  Uiso   1.00
C416   C     0.70958   0.50107   0.25190   0.00000  Uiso   1.00
N417   N     0.76470   0.38151   0.21129   0.00000  Uiso   1.00
O418   O     0.76478   0.41007   0.17806   0.00000  Uiso   1.00
O419   O     0.72945   0.36650   0.22312   0.00000  Uiso   1.00
N420   N     0.89245   0.61594   0.30293   0.00000  Uiso   1.00
O421   O     0.93043   0.61264   0.29155   0.00000  Uiso   1.00
O422   O     0.88486   0.60813   0.34388   0.00000  Uiso   1.00
N423   N     0.90454   0.37580   0.28038   0.00000  Uiso   1.00
O424   O     0.92089   0.37365   0.32055   0.00000  Uiso   1.00
O425   O     0.92925   0.37692   0.24819   0.00000  Uiso   1.00
N426   N     0.78517   0.62498   0.18359   0.00000  Uiso   1.00
O427   O     0.76205   0.58915   0.18462   0.00000  Uiso   1.00
O428   O     0.78370   0.64927   0.14718   0.00000  Uiso   1.00
C429   C     0.86976   0.58339   0.11775   0.00000  Uiso   1.00
H430   H     0.89493   0.57260   0.14244   0.00000  Uiso   1.00
H431   H     0.88315   0.60799   0.09452   0.00000  Uiso   1.00
H432   H     0.84534   0.60233   0.13413   0.00000  Uiso   1.00
C433   C     0.89326   0.43956   0.38627   0.00000  Uiso   1.00
H434   H     0.87492   0.41098   0.37163   0.00000  Uiso   1.00
H435   H     0.90953   0.45804   0.36046   0.00000  Uiso   1.00
H436   H     0.91711   0.42410   0.41018   0.00000  Uiso   1.00
C437   C     0.77555   0.56055   0.38136   0.00000  Uiso   1.00
H438   H     0.75631   0.53906   0.35831   0.00000  Uiso   1.00
H439   H     0.75466   0.57752   0.40431   0.00000  Uiso   1.00
H440   H     0.79012   0.58825   0.36262   0.00000  Uiso   1.00
C441   C     0.84604   0.41023   0.11253   0.00000  Uiso   1.00
H442   H     0.87240   0.40836   0.13770   0.00000  Uiso   1.00
H443   H     0.81702   0.40099   0.12703   0.00000  Uiso   1.00
H444   H     0.85228   0.38333   0.08770   0.00000  Uiso   1.00
O445   O     0.10655   0.87291   0.24999   0.00000  Uiso   1.00
O446   O     0.22679   0.79375   0.25000   0.00000  Uiso   1.00
O447   O     0.22679   0.87291   0.25000   0.00000  Uiso   1.00
O448   O     0.10655   0.79375   0.24999   0.00000  Uiso   1.00
N449   N     0.16667   0.95069   0.25000   0.00000  Uiso   1.00
N450   N     0.16667   0.71598   0.25000   0.00000  Uiso   1.00
C451   C     0.08751   0.83374   0.25053   0.00000  Uiso   1.00
C452   C     0.24588   0.83304   0.25072   0.00000  Uiso   1.00
O453   O     0.16666   0.87293   0.18573   0.00000  Uiso   1.00
O454   O     0.16667   0.79374   0.31427   0.00000  Uiso   1.00
O455   O     0.16667   0.87293   0.31427   0.00000  Uiso   1.00
O456   O     0.16666   0.79374   0.18573   0.00000  Uiso   1.00
C457   C     0.17025   0.83329   0.16523   0.00000  Uiso   1.00
C458   C     0.16663   0.83331   0.33488   0.00000  Uiso   1.00
Cu459  Cu    0.16667   0.88022   0.25000   0.00000  Uiso   1.00
Cu460  Cu    0.16667   0.78645   0.25000   0.00000  Uiso   1.00
C461   C     0.13547   0.69207   0.22834   0.00000  Uiso   1.00
C462   C     0.19561   0.97417   0.27511   0.00000  Uiso   1.00
C463   C     0.19837   0.68976   0.27082   0.00000  Uiso   1.00
C464   C     0.13893   0.97680   0.22300   0.00000  Uiso   1.00
C465   C     0.02363   0.79785   0.27232   0.00000  Uiso   1.00
C466   C     0.30991   0.87020   0.23182   0.00000  Uiso   1.00
C467   C     0.31425   0.79775   0.27278   0.00000  Uiso   1.00
C468   C     0.01926   0.87120   0.23275   0.00000  Uiso   1.00
C469   C     0.18309   0.87611   0.04807   0.00000  Uiso   1.00
C470   C     0.20015   0.80752   0.45393   0.00000  Uiso   1.00
C471   C     0.14507   0.86541   0.45201   0.00000  Uiso   1.00
C472   C     0.17329   0.79380   0.04608   0.00000  Uiso   1.00
H473   H     0.18839   0.90802   0.03051   0.00000  Uiso   1.00
H474   H     0.22255   0.78582   0.47292   0.00000  Uiso   1.00
H475   H     0.12463   0.88784   0.46959   0.00000  Uiso   1.00
H476   H     0.17010   0.76241   0.02695   0.00000  Uiso   1.00
C477   C     0.18582   0.87490   0.09427   0.00000  Uiso   1.00
C478   C     0.19767   0.80551   0.40802   0.00000  Uiso   1.00
C479   C     0.14172   0.86408   0.40580   0.00000  Uiso   1.00
C480   C     0.17544   0.79136   0.09209   0.00000  Uiso   1.00
C481   C     0.17691   0.83317   0.11692   0.00000  Uiso   1.00
C482   C     0.16822   0.83377   0.38342   0.00000  Uiso   1.00
H483   H     0.04159   0.76991   0.28861   0.00000  Uiso   1.00
H484   H     0.29204   0.89830   0.21566   0.00000  Uiso   1.00
H485   H     0.29997   0.77077   0.29073   0.00000  Uiso   1.00
H486   H     0.03336   0.90028   0.21777   0.00000  Uiso   1.00
C487   C     0.17556   0.83600   0.02415   0.00000  Uiso   1.00
C488   C     0.17391   0.83698   0.47589   0.00000  Uiso   1.00
C489   C     0.29057   0.83315   0.25136   0.00000  Uiso   1.00
C490   C     0.04291   0.83441   0.25190   0.00000  Uiso   1.00
N491   N     0.09804   0.71484   0.21129   0.00000  Uiso   1.00
O492   O     0.09811   0.74340   0.17806   0.00000  Uiso   1.00
O493   O     0.06279   0.69983   0.22312   0.00000  Uiso   1.00
N494   N     0.22578   0.94928   0.30293   0.00000  Uiso   1.00
O495   O     0.26376   0.94597   0.29155   0.00000  Uiso   1.00
O496   O     0.21819   0.94147   0.34388   0.00000  Uiso   1.00
N497   N     0.23787   0.70913   0.28038   0.00000  Uiso   1.00
O498   O     0.25423   0.70699   0.32055   0.00000  Uiso   1.00
O499   O     0.26258   0.71025   0.24819   0.00000  Uiso   1.00
N500   N     0.11851   0.95831   0.18359   0.00000  Uiso   1.00
O501   O     0.09538   0.92249   0.18462   0.00000  Uiso   1.00
O502   O     0.11703   0.98260   0.14718   0.00000  Uiso   1.00
C503   C     0.20309   0.91672   0.11775   0.00000  Uiso   1.00
H504   H     0.22826   0.90593   0.14244   0.00000  Uiso   1.00
H505   H     0.21648   0.94132   0.09452   0.00000  Uiso   1.00
H506   H     0.17868   0.93566   0.13413   0.00000  Uiso   1.00
C507   C     0.22659   0.77290   0.38627   0.00000  Uiso   1.00
H508   H     0.20826   0.74431   0.37163   0.00000  Uiso   1.00
H509   H     0.24286   0.79138   0.36046   0.00000  Uiso   1.00
H510   H     0.25044   0.75743   0.41018   0.00000  Uiso   1.00
C511   C     0.10888   0.89388   0.38136   0.00000  Uiso   1.00
H512   H     0.08965   0.87240   0.35831   0.00000  Uiso   1.00
H513   H     0.08799   0.91086   0.40431   0.00000  Uiso   1.00
H514   H     0.12346   0.92159   0.36262   0.00000  Uiso   1.00
C515   C     0.17937   0.74357   0.11253   0.00000  Uiso   1.00
H516   H     0.20573   0.74169   0.13770   0.00000  Uiso   1.00
H517   H     0.15036   0.73432   0.12703   0.00000  Uiso   1.00
H518   H     0.18561   0.71666   0.08770   0.00000  Uiso   1.00
O519   O     0.43988   0.87291   0.24999   0.00000  Uiso   1.00
O520   O     0.56012   0.79375   0.25000   0.00000  Uiso   1.00
O521   O     0.56012   0.87291   0.25000   0.00000  Uiso   1.00
O522   O     0.43988   0.79375   0.24999   0.00000  Uiso   1.00
N523   N     0.50000   0.95069   0.25000   0.00000  Uiso   1.00
N524   N     0.50000   0.71598   0.25000   0.00000  Uiso   1.00
C525   C     0.42084   0.83374   0.25053   0.00000  Uiso   1.00
C526   C     0.57921   0.83304   0.25072   0.00000  Uiso   1.00
O527   O     0.50000   0.87293   0.18573   0.00000  Uiso   1.00
O528   O     0.50000   0.79374   0.31427   0.00000  Uiso   1.00
O529   O     0.50000   0.87293   0.31427   0.00000  Uiso   1.00
O530   O     0.50000   0.79374   0.18573   0.00000  Uiso   1.00
C531   C     0.50358   0.83329   0.16523   0.00000  Uiso   1.00
C532   C     0.49997   0.83331   0.33488   0.00000  Uiso   1.00
Cu533  Cu    0.50000   0.88022   0.25000   0.00000  Uiso   1.00
Cu534  Cu    0.50000   0.78645   0.25000   0.00000  Uiso   1.00
C535   C     0.46880   0.69207   0.22834   0.00000  Uiso   1.00
C536   C     0.52894   0.97417   0.27511   0.00000  Uiso   1.00
C537   C     0.53170   0.68976   0.27082   0.00000  Uiso   1.00
C538   C     0.47226   0.97680   0.22300   0.00000  Uiso   1.00
C539   C     0.35696   0.79785   0.27232   0.00000  Uiso   1.00
C540   C     0.64325   0.87020   0.23182   0.00000  Uiso   1.00
C541   C     0.64758   0.79775   0.27278   0.00000  Uiso   1.00
C542   C     0.35259   0.87120   0.23275   0.00000  Uiso   1.00
C543   C     0.51642   0.87611   0.04807   0.00000  Uiso   1.00
C544   C     0.53348   0.80752   0.45393   0.00000  Uiso   1.00
C545   C     0.47841   0.86541   0.45201   0.00000  Uiso   1.00
C546   C     0.50663   0.79380   0.04608   0.00000  Uiso   1.00
H547   H     0.52172   0.90802   0.03051   0.00000  Uiso   1.00
H548   H     0.55588   0.78582   0.47292   0.00000  Uiso   1.00
H549   H     0.45796   0.88784   0.46959   0.00000  Uiso   1.00
H550   H     0.50343   0.76241   0.02695   0.00000  Uiso   1.00
C551   C     0.51916   0.87490   0.09427   0.00000  Uiso   1.00
C552   C     0.53100   0.80551   0.40802   0.00000  Uiso   1.00
C553   C     0.47506   0.86408   0.40580   0.00000  Uiso   1.00
C554   C     0.50878   0.79136   0.09209   0.00000  Uiso   1.00
C555   C     0.51024   0.83317   0.11692   0.00000  Uiso   1.00
C556   C     0.50156   0.83377   0.38342   0.00000  Uiso   1.00
H557   H     0.37493   0.76991   0.28861   0.00000  Uiso   1.00
H558   H     0.62537   0.89830   0.21566   0.00000  Uiso   1.00
H559   H     0.63331   0.77077   0.29073   0.00000  Uiso   1.00
H560   H     0.36670   0.90028   0.21777   0.00000  Uiso   1.00
C561   C     0.50890   0.83600   0.02415   0.00000  Uiso   1.00
C562   C     0.50724   0.83698   0.47589   0.00000  Uiso   1.00
C563   C     0.62391   0.83315   0.25136   0.00000  Uiso   1.00
C564   C     0.37624   0.83441   0.25190   0.00000  Uiso   1.00
N565   N     0.43137   0.71484   0.21129   0.00000  Uiso   1.00
O566   O     0.43145   0.74340   0.17806   0.00000  Uiso   1.00
O567   O     0.39612   0.69983   0.22312   0.00000  Uiso   1.00
N568   N     0.55911   0.94928   0.30293   0.00000  Uiso   1.00
O569   O     0.59710   0.94597   0.29155   0.00000  Uiso   1.00
O570   O     0.55153   0.94147   0.34388   0.00000  Uiso   1.00
N571   N     0.57121   0.70913   0.28038   0.00000  Uiso   1.00
O572   O     0.58756   0.70699   0.32055   0.00000  Uiso   1.00
O573   O     0.59591   0.71025   0.24819   0.00000  Uiso   1.00
N574   N     0.45184   0.95831   0.18359   0.00000  Uiso   1.00
O575   O     0.42872   0.92249   0.18462   0.00000  Uiso   1.00
O576   O     0.45036   0.98260   0.14718   0.00000  Uiso   1.00
C577   C     0.53643   0.91672   0.11775   0.00000  Uiso   1.00
H578   H     0.56160   0.90593   0.14244   0.00000  Uiso   1.00
H579   H     0.54982   0.94132   0.09452   0.00000  Uiso   1.00
H580   H     0.51201   0.93566   0.13413   0.00000  Uiso   1.00
C581   C     0.55993   0.77290   0.38627   0.00000  Uiso   1.00
H582   H     0.54159   0.74431   0.37163   0.00000  Uiso   1.00
H583   H     0.57620   0.79138   0.36046   0.00000  Uiso   1.00
H584   H     0.58377   0.75743   0.41018   0.00000  Uiso   1.00
C585   C     0.44222   0.89388   0.38136   0.00000  Uiso   1.00
H586   H     0.42298   0.87240   0.35831   0.00000  Uiso   1.00
H587   H     0.42132   0.91086   0.40431   0.00000  Uiso   1.00
H588   H     0.45679   0.92159   0.36262   0.00000  Uiso   1.00
C589   C     0.51270   0.74357   0.11253   0.00000  Uiso   1.00
H590   H     0.53906   0.74169   0.13770   0.00000  Uiso   1.00
H591   H     0.48369   0.73432   0.12703   0.00000  Uiso   1.00
H592   H     0.51894   0.71666   0.08770   0.00000  Uiso   1.00
O593   O     0.77321   0.87291   0.24999   0.00000  Uiso   1.00
O594   O     0.89345   0.79375   0.25000   0.00000  Uiso   1.00
O595   O     0.89345   0.87291   0.25000   0.00000  Uiso   1.00
O596   O     0.77321   0.79375   0.24999   0.00000  Uiso   1.00
N597   N     0.83333   0.95069   0.25000   0.00000  Uiso   1.00
N598   N     0.83333   0.71598   0.25000   0.00000  Uiso   1.00
C599   C     0.75418   0.83374   0.25053   0.00000  Uiso   1.00
C600   C     0.91254   0.83304   0.25072   0.00000  Uiso   1.00
O601   O     0.83333   0.87293   0.18573   0.00000  Uiso   1.00
O602   O     0.83334   0.79374   0.31427   0.00000  Uiso   1.00
O603   O     0.83334   0.87293   0.31427   0.00000  Uiso   1.00
O604   O     0.83333   0.79374   0.18573   0.00000  Uiso   1.00
C605   C     0.83692   0.83329   0.16523   0.00000  Uiso   1.00
C606   C     0.83330   0.83331   0.33488   0.00000  Uiso   1.00
Cu607  Cu    0.83333   0.88022   0.25000   0.00000  Uiso   1.00
Cu608  Cu    0.83333   0.78645   0.25000   0.00000  Uiso   1.00
C609   C     0.80213   0.69207   0.22834   0.00000  Uiso   1.00
C610   C     0.86227   0.97417   0.27511   0.00000  Uiso   1.00
C611   C     0.86504   0.68976   0.27082   0.00000  Uiso   1.00
C612   C     0.80560   0.97680   0.22300   0.00000  Uiso   1.00
C613   C     0.69029   0.79785   0.27232   0.00000  Uiso   1.00
C614   C     0.97658   0.87020   0.23182   0.00000  Uiso   1.00
C615   C     0.98091   0.79775   0.27278   0.00000  Uiso   1.00
C616   C     0.68592   0.87120   0.23275   0.00000  Uiso   1.00
C617   C     0.84975   0.87611   0.04807   0.00000  Uiso   1.00
C618   C     0.86682   0.80752   0.45393   0.00000  Uiso   1.00
C619   C     0.81174   0.86541   0.45201   0.00000  Uiso   1.00
C620   C     0.83996   0.79380   0.04608   0.00000  Uiso   1.00
H621   H     0.85505   0.90802   0.03051   0.00000  Uiso   1.00
H622   H     0.88922   0.78582   0.47292   0.00000  Uiso   1.00
H623   H     0.79129   0.88784   0.46959   0.00000  Uiso   1.00
H624   H     0.83677   0.76241   0.02695   0.00000  Uiso   1.00
C625   C     0.85249   0.87490   0.09427   0.00000  Uiso   1.00
C626   C     0.86433   0.80551   0.40802   0.00000  Uiso   1.00
C627   C     0.80839   0.86408   0.40580   0.00000  Uiso   1.00
C628   C     0.84211   0.79136   0.09209   0.00000  Uiso   1.00
C629   C     0.84358   0.83317   0.11692   0.00000  Uiso   1.00
C630   C     0.83489   0.83377   0.38342   0.00000  Uiso   1.00
H631   H     0.70826   0.76991   0.28861   0.00000  Uiso   1.00
H632   H     0.95871   0.89830   0.21566   0.00000  Uiso   1.00
H633   H     0.96664   0.77077   0.29073   0.00000  Uiso   1.00
H634   H     0.70003   0.90028   0.21777   0.00000  Uiso   1.00
C635   C     0.84223   0.83600   0.02415   0.00000  Uiso   1.00
C636   C     0.84057   0.83698   0.47589   0.00000  Uiso   1.00
C637   C     0.95724   0.83315   0.25136   0.00000  Uiso   1.00
C638   C     0.70958   0.83441   0.25190   0.00000  Uiso   1.00
N639   N     0.76470   0.71484   0.21129   0.00000  Uiso   1.00
O640   O     0.76478   0.74340   0.17806   0.00000  Uiso   1.00
O641   O     0.72945   0.69983   0.22312   0.00000  Uiso   1.00
N642   N     0.89245   0.94928   0.30293   0.00000  Uiso   1.00
O643   O     0.93043   0.94597   0.29155   0.00000  Uiso   1.00
O644   O     0.88486   0.94147   0.34388   0.00000  Uiso   1.00
N645   N     0.90454   0.70913   0.28038   0.00000  Uiso   1.00
O646   O     0.92089   0.70699   0.32055   0.00000  Uiso   1.00
O647   O     0.92925   0.71025   0.24819   0.00000  Uiso   1.00
N648   N     0.78517   0.95831   0.18359   0.00000  Uiso   1.00
O649   O     0.76205   0.92249   0.18462   0.00000  Uiso   1.00
O650   O     0.78370   0.98260   0.14718   0.00000  Uiso   1.00
C651   C     0.86976   0.91672   0.11775   0.00000  Uiso   1.00
H652   H     0.89493   0.90593   0.14244   0.00000  Uiso   1.00
H653   H     0.88315   0.94132   0.09452   0.00000  Uiso   1.00
H654   H     0.84534   0.93566   0.13413   0.00000  Uiso   1.00
C655   C     0.89326   0.77290   0.38627   0.00000  Uiso   1.00
H656   H     0.87492   0.74431   0.37163   0.00000  Uiso   1.00
H657   H     0.90953   0.79138   0.36046   0.00000  Uiso   1.00
H658   H     0.91711   0.75743   0.41018   0.00000  Uiso   1.00
C659   C     0.77555   0.89388   0.38136   0.00000  Uiso   1.00
H660   H     0.75631   0.87240   0.35831   0.00000  Uiso   1.00
H661   H     0.75466   0.91086   0.40431   0.00000  Uiso   1.00
H662   H     0.79012   0.92159   0.36262   0.00000  Uiso   1.00
C663   C     0.84604   0.74357   0.11253   0.00000  Uiso   1.00
H664   H     0.87240   0.74169   0.13770   0.00000  Uiso   1.00
H665   H     0.81702   0.73432   0.12703   0.00000  Uiso   1.00
H666   H     0.85228   0.71666   0.08770   0.00000  Uiso   1.00
O667   O     0.10655   0.20625   0.74999   0.00000  Uiso   1.00
O668   O     0.22679   0.12709   0.75000   0.00000  Uiso   1.00
O669   O     0.22679   0.20625   0.75000   0.00000  Uiso   1.00
O670   O     0.10655   0.12709   0.74999   0.00000  Uiso   1.00
N671   N     0.16667   0.28402   0.75000   0.00000  Uiso   1.00
N672   N     0.16667   0.04931   0.75000   0.00000  Uiso   1.00
C673   C     0.08751   0.16707   0.75053   0.00000  Uiso   1.00
C674   C     0.24588   0.16637   0.75072   0.00000  Uiso   1.00
O675   O     0.16666   0.20626   0.68573   0.00000  Uiso   1.00
O676   O     0.16667   0.12707   0.81427   0.00000  Uiso   1.00
O677   O     0.16667   0.20626   0.81427   0.00000  Uiso   1.00
O678   O     0.16666   0.12707   0.68573   0.00000  Uiso   1.00
C679   C     0.17025   0.16662   0.66523   0.00000  Uiso   1.00
C680   C     0.16663   0.16664   0.83488   0.00000  Uiso   1.00
Cu681  Cu    0.16667   0.21355   0.75000   0.00000  Uiso   1.00
Cu682  Cu    0.16667   0.11978   0.75000   0.00000  Uiso   1.00
C683   C     0.13547   0.02541   0.72834   0.00000  Uiso   1.00
C684   C     0.19561   0.30750   0.77511   0.00000  Uiso   1.00
C685   C     0.19837   0.02309   0.77082   0.00000  Uiso   1.00
C686   C     0.13893   0.31013   0.72300   0.00000  Uiso   1.00
C687   C     0.02363   0.13118   0.77232   0.00000  Uiso   1.00
C688   C     0.30991   0.20354   0.73182   0.00000  Uiso   1.00
C689   C     0.31425   0.13108   0.77278   0.00000  Uiso   1.00
C690   C     0.01926   0.20453   0.73275   0.00000  Uiso   1.00
C691   C     0.18309   0.20944   0.54807   0.00000  Uiso   1.00
C692   C     0.20015   0.14086   0.95393   0.00000  Uiso   1.00
C693   C     0.14507   0.19875   0.95201   0.00000  Uiso   1.00
C694   C     0.17329   0.12713   0.54608   0.00000  Uiso   1.00
H695   H     0.18839   0.24135   0.53051   0.00000  Uiso   1.00
H696   H     0.22255   0.11915   0.97292   0.00000  Uiso   1.00
H697   H     0.12463   0.22117   0.96959   0.00000  Uiso   1.00
H698   H     0.17010   0.09574   0.52695   0.00000  Uiso   1.00
C699   C     0.18582   0.20823   0.59427   0.00000  Uiso   1.00
C700   C     0.19767   0.13884   0.90802   0.00000  Uiso   1.00
C701   C     0.14172   0.19741   0.90580   0.00000  Uiso   1.00
C702   C     0.17544   0.12470   0.59209   0.00000  Uiso   1.00
C703   C     0.17691   0.16650   0.61692   0.00000  Uiso   1.00
C704   C     0.16822   0.16710   0.88342   0.00000  Uiso   1.00
H705   H     0.04159   0.10324   0.78861   0.00000  Uiso   1.00
H706   H     0.29204   0.23163   0.71566   0.00000  Uiso   1.00
H707   H     0.29997   0.10411   0.79073   0.00000  Uiso   1.00
H708   H     0.03336   0.23362   0.71777   0.00000  Uiso   1.00
C709   C     0.17556   0.16933   0.52415   0.00000  Uiso   1.00
C710   C     0.17391   0.17031   0.97589   0.00000  Uiso   1.00
C711   C     0.29057   0.16649   0.75136   0.00000  Uiso   1.00
C712   C     0.04291   0.16774   0.75190   0.00000  Uiso   1.00
N713   N     0.09804   0.04818   0.71129   0.00000  Uiso   1.00
O714   O     0.09811   0.07674   0.67806   0.00000  Uiso   1.00
O715   O     0.06279   0.03316   0.72312   0.00000  Uiso   1.00
N716   N     0.22578   0.28261   0.80293   0.00000  Uiso   1.00
O717   O     0.26376   0.27930   0.79155   0.00000  Uiso   1.00
O718   O     0.21819   0.27480   0.84388   0.00000  Uiso   1.00
N719   N     0.23787   0.04246   0.78038   0.00000  Uiso   1.00
O720   O     0.25423   0.04032   0.82055   0.00000  Uiso   1.00
O721   O     0.26258   0.04359   0.74819   0.00000  Uiso   1.00
N722   N     0.11851   0.29164   0.68359   0.00000  Uiso   1.00
O723   O     0.09538   0.25582   0.68462   0.00000  Uiso   1.00
O724   O     0.11703   0.31593   0.64718   0.00000  Uiso   1.00
C725   C     0.20309   0.25006   0.61775   0.00000  Uiso   1.00
H726   H     0.22826   0.23926   0.64244   0.00000  Uiso   1.00
H727   H     0.21648   0.27465   0.59452   0.00000  Uiso   1.00
H728   H     0.17868   0.26899   0.63413   0.00000  Uiso   1.00
C729   C     0.22659   0.10623   0.88627   0.00000  Uiso   1.00
H730   H     0.20826   0.07765   0.87163   0.00000  Uiso   1.00
H731   H     0.24286   0.12471   0.86046   0.00000  Uiso   1.00
H732   H     0.25044   0.09077   0.91018   0.00000  Uiso   1.00
C733   C     0.10888   0.22722   0.88136   0.00000  Uiso   1.00
H734   H     0.08965   0.20573   0.85831   0.00000  Uiso   1.00
H735   H     0.08799   0.24419   0.90431   0.00000  Uiso   1.00
H736   H     0.12346   0.25492   0.86262   0.00000  Uiso   1.00
C737   C     0.17937   0.07690   0.61253   0.00000  Uiso   1.00
H738   H     0.20573   0.07502   0.63770   0.00000  Uiso   1.00
H739   H     0.15036   0.06766   0.62703   0.00000  Uiso   1.00
H740   H     0.18561   0.04999   0.58770   0.00000  Uiso   1.00
O741   O     0.43988   0.20625   0.74999   0.00000  Uiso   1.00
O742   O     0.56012   0.12709   0.75000   0.00000  Uiso   1.00
O743   O     0.56012   0.20625   0.75000   0.00000  Uiso   1.00
O744   O     0.43988   0.12709   0.74999   0.00000  Uiso   1.00
N745   N     0.50000   0.28402   0.75000   0.00000  Uiso   1.00
N746   N     0.50000   0.04931   0.75000   0.00000  Uiso   1.00
C747   C     0.42084   0.16707   0.75053   0.00000  Uiso   1.00
C748   C     0.57921   0.16637   0.75072   0.00000  Uiso   1.00
O749   O     0.50000   0.20626   0.68573   0.00000  Uiso   1.00
O750   O     0.50000   0.12707   0.81427   0.00000  Uiso   1.00
O751   O     0.50000   0.20626   0.81427   0.00000  Uiso   1.00
O752   O     0.50000   0.12707   0.68573   0.00000  Uiso   1.00
C753   C     0.50358   0.16662   0.66523   0.00000  Uiso   1.00
C754   C     0.49997   0.16664   0.83488   0.00000  Uiso   1.00
Cu755  Cu    0.50000   0.21355   0.75000   0.00000  Uiso   1.00
Cu756  Cu    0.50000   0.11978   0.75000   0.00000  Uiso   1.00
C757   C     0.46880   0.02541   0.72834   0.00000  Uiso   1.00
C758   C     0.52894   0.30750   0.77511   0.00000  Uiso   1.00
C759   C     0.53170   0.02309   0.77082   0.00000  Uiso   1.00
C760   C     0.47226   0.31013   0.72300   0.00000  Uiso   1.00
C761   C     0.35696   0.13118   0.77232   0.00000  Uiso   1.00
C762   C     0.64325   0.20354   0.73182   0.00000  Uiso   1.00
C763   C     0.64758   0.13108   0.77278   0.00000  Uiso   1.00
C764   C     0.35259   0.20453   0.73275   0.00000  Uiso   1.00
C765   C     0.51642   0.20944   0.54807   0.00000  Uiso   1.00
C766   C     0.53348   0.14086   0.95393   0.00000  Uiso   1.00
C767   C     0.47841   0.19875   0.95201   0.00000  Uiso   1.00
C768   C     0.50663   0.12713   0.54608   0.00000  Uiso   1.00
H769   H     0.52172   0.24135   0.53051   0.00000  Uiso   1.00
H770   H     0.55588   0.11915   0.97292   0.00000  Uiso   1.00
H771   H     0.45796   0.22117   0.96959   0.00000  Uiso   1.00
H772   H     0.50343   0.09574   0.52695   0.00000  Uiso   1.00
C773   C     0.51916   0.20823   0.59427   0.00000  Uiso   1.00
C774   C     0.53100   0.13884   0.90802   0.00000  Uiso   1.00
C775   C     0.47506   0.19741   0.90580   0.00000  Uiso   1.00
C776   C     0.50878   0.12470   0.59209   0.00000  Uiso   1.00
C777   C     0.51024   0.16650   0.61692   0.00000  Uiso   1.00
C778   C     0.50156   0.16710   0.88342   0.00000  Uiso   1.00
H779   H     0.37493   0.10324   0.78861   0.00000  Uiso   1.00
H780   H     0.62537   0.23163   0.71566   0.00000  Uiso   1.00
H781   H     0.63331   0.10411   0.79073   0.00000  Uiso   1.00
H782   H     0.36670   0.23362   0.71777   0.00000  Uiso   1.00
C783   C     0.50890   0.16933   0.52415   0.00000  Uiso   1.00
C784   C     0.50724   0.17031   0.97589   0.00000  Uiso   1.00
C785   C     0.62391   0.16649   0.75136   0.00000  Uiso   1.00
C786   C     0.37624   0.16774   0.75190   0.00000  Uiso   1.00
N787   N     0.43137   0.04818   0.71129   0.00000  Uiso   1.00
O788   O     0.43145   0.07674   0.67806   0.00000  Uiso   1.00
O789   O     0.39612   0.03316   0.72312   0.00000  Uiso   1.00
N790   N     0.55911   0.28261   0.80293   0.00000  Uiso   1.00
O791   O     0.59710   0.27930   0.79155   0.00000  Uiso   1.00
O792   O     0.55153   0.27480   0.84388   0.00000  Uiso   1.00
N793   N     0.57121   0.04246   0.78038   0.00000  Uiso   1.00
O794   O     0.58756   0.04032   0.82055   0.00000  Uiso   1.00
O795   O     0.59591   0.04359   0.74819   0.00000  Uiso   1.00
N796   N     0.45184   0.29164   0.68359   0.00000  Uiso   1.00
O797   O     0.42872   0.25582   0.68462   0.00000  Uiso   1.00
O798   O     0.45036   0.31593   0.64718   0.00000  Uiso   1.00
C799   C     0.53643   0.25006   0.61775   0.00000  Uiso   1.00
H800   H     0.56160   0.23926   0.64244   0.00000  Uiso   1.00
H801   H     0.54982   0.27465   0.59452   0.00000  Uiso   1.00
H802   H     0.51201   0.26899   0.63413   0.00000  Uiso   1.00
C803   C     0.55993   0.10623   0.88627   0.00000  Uiso   1.00
H804   H     0.54159   0.07765   0.87163   0.00000  Uiso   1.00
H805   H     0.57620   0.12471   0.86046   0.00000  Uiso   1.00
H806   H     0.58377   0.09077   0.91018   0.00000  Uiso   1.00
C807   C     0.44222   0.22722   0.88136   0.00000  Uiso   1.00
H808   H     0.42298   0.20573   0.85831   0.00000  Uiso   1.00
H809   H     0.42132   0.24419   0.90431   0.00000  Uiso   1.00
H810   H     0.45679   0.25492   0.86262   0.00000  Uiso   1.00
C811   C     0.51270   0.07690   0.61253   0.00000  Uiso   1.00
H812   H     0.53906   0.07502   0.63770   0.00000  Uiso   1.00
H813   H     0.48369   0.06766   0.62703   0.00000  Uiso   1.00
H814   H     0.51894   0.04999   0.58770   0.00000  Uiso   1.00
O815   O     0.77321   0.20625   0.74999   0.00000  Uiso   1.00
O816   O     0.89345   0.12709   0.75000   0.00000  Uiso   1.00
O817   O     0.89345   0.20625   0.75000   0.00000  Uiso   1.00
O818   O     0.77321   0.12709   0.74999   0.00000  Uiso   1.00
N819   N     0.83333   0.28402   0.75000   0.00000  Uiso   1.00
N820   N     0.83333   0.04931   0.75000   0.00000  Uiso   1.00
C821   C     0.75418   0.16707   0.75053   0.00000  Uiso   1.00
C822   C     0.91254   0.16637   0.75072   0.00000  Uiso   1.00
O823   O     0.83333   0.20626   0.68573   0.00000  Uiso   1.00
O824   O     0.83334   0.12707   0.81427   0.00000  Uiso   1.00
O825   O     0.83334   0.20626   0.81427   0.00000  Uiso   1.00
O826   O     0.83333   0.12707   0.68573   0.00000  Uiso   1.00
C827   C     0.83692   0.16662   0.66523   0.00000  Uiso   1.00
C828   C     0.83330   0.16664   0.83488   0.00000  Uiso   1.00
Cu829  Cu    0.83333   0.21355   0.75000   0.00000  Uiso   1.00
Cu830  Cu    0.83333   0.11978   0.75000   0.00000  Uiso   1.00
C831   C     0.80213   0.02541   0.72834   0.00000  Uiso   1.00
C832   C     0.86227   0.30750   0.77511   0.00000  Uiso   1.00
C833   C     0.86504   0.02309   0.77082   0.00000  Uiso   1.00
C834   C     0.80560   0.31013   0.72300   0.00000  Uiso   1.00
C835   C     0.69029   0.13118   0.77232   0.00000  Uiso   1.00
C836   C     0.97658   0.20354   0.73182   0.00000  Uiso   1.00
C837   C     0.98091   0.13108   0.77278   0.00000  Uiso   1.00
C838   C     0.68592   0.20453   0.73275   0.00000  Uiso   1.00
C839   C     0.84975   0.20944   0.54807   0.00000  Uiso   1.00
C840   C     0.86682   0.14086   0.95393   0.00000  Uiso   1.00
C841   C     0.81174   0.19875   0.95201   0.00000  Uiso   1.00
C842   C     0.83996   0.12713   0.54608   0.00000  Uiso   1.00
H843   H     0.85505   0.24135   0.53051   0.00000  Uiso   1.00
H844   H     0.88922   0.11915   0.97292   0.00000  Uiso   1.00
H845   H     0.79129   0.22117   0.96959   0.00000  Uiso   1.00
H846   H     0.83677   0.09574   0.52695   0.00000  Uiso   1.00
C847   C     0.85249   0.20823   0.59427   0.00000  Uiso   1.00
C848   C     0.86433   0.13884   0.90802   0.00000  Uiso   1.00
C849   C     0.80839   0.19741   0.90580   0.00000  Uiso   1.00
C850   C     0.84211   0.12470   0.59209   0.00000  Uiso   1.00
C851   C     0.84358   0.16650   0.61692   0.00000  Uiso   1.00
C852   C     0.83489   0.16710   0.88342   0.00000  Uiso   1.00
H853   H     0.70826   0.10324   0.78861   0.00000  Uiso   1.00
H854   H     0.95871   0.23163   0.71566   0.00000  Uiso   1.00
H855   H     0.96664   0.10411   0.79073   0.00000  Uiso   1.00
H856   H     0.70003   0.23362   0.71777   0.00000  Uiso   1.00
C857   C     0.84223   0.16933   0.52415   0.00000  Uiso   1.00
C858   C     0.84057   0.17031   0.97589   0.00000  Uiso   1.00
C859   C     0.95724   0.16649   0.75136   0.00000  Uiso   1.00
C860   C     0.70958   0.16774   0.75190   0.00000  Uiso   1.00
N861   N     0.76470   0.04818   0.71129   0.00000  Uiso   1.00
O862   O     0.76478   0.07674   0.67806   0.00000  Uiso   1.00
O863   O     0.72945   0.03316   0.72312   0.00000  Uiso   1.00
N864   N     0.89245   0.28261   0.80293   0.00000  Uiso   1.00
O865   O     0.93043   0.27930   0.79155   0.00000  Uiso   1.00
O866   O     0.88486   0.27480   0.84388   0.00000  Uiso   1.00
N867   N     0.90454   0.04246   0.78038   0.00000  Uiso   1.00
O868   O     0.92089   0.04032   0.82055   0.00000  Uiso   1.00
O869   O     0.92925   0.04359   0.74819   0.00000  Uiso   1.00
N870   N     0.78517   0.29164   0.68359   0.00000  Uiso   1.00
O871   O     0.76205   0.25582   0.68462   0.00000  Uiso   1.00
O872   O     0.78370   0.31593   0.64718   0.00000  Uiso   1.00
C873   C     0.86976   0.25006   0.61775   0.00000  Uiso   1.00
H874   H     0.89493   0.23926   0.64244   0.00000  Uiso   1.00
H875   H     0.88315   0.27465   0.59452   0.00000  Uiso   1.00
H876   H     0.84534   0.26899   0.63413   0.00000  Uiso   1.00
C877   C     0.89326   0.10623   0.88627   0.00000  Uiso   1.00
H878   H     0.87492   0.07765   0.87163   0.00000  Uiso   1.00
H879   H     0.90953   0.12471   0.86046   0.00000  Uiso   1.00
H880   H     0.91711   0.09077   0.91018   0.00000  Uiso   1.00
C881   C     0.77555   0.22722   0.88136   0.00000  Uiso   1.00
H882   H     0.75631   0.20573   0.85831   0.00000  Uiso   1.00
H883   H     0.75466   0.24419   0.90431   0.00000  Uiso   1.00
H884   H     0.79012   0.25492   0.86262   0.00000  Uiso   1.00
C885   C     0.84604   0.07690   0.61253   0.00000  Uiso   1.00
H886   H     0.87240   0.07502   0.63770   0.00000  Uiso   1.00
H887   H     0.81702   0.06766   0.62703   0.00000  Uiso   1.00
H888   H     0.85228   0.04999   0.58770   0.00000  Uiso   1.00
O889   O     0.10655   0.53958   0.74999   0.00000  Uiso   1.00
O890   O     0.22679   0.46042   0.75000   0.00000  Uiso   1.00
O891   O     0.22679   0.53958   0.75000   0.00000  Uiso   1.00
O892   O     0.10655   0.46042   0.74999   0.00000  Uiso   1.00
N893   N     0.16667   0.61736   0.75000   0.00000  Uiso   1.00
N894   N     0.16667   0.38264   0.75000   0.00000  Uiso   1.00
C895   C     0.08751   0.50041   0.75053   0.00000  Uiso   1.00
C896   C     0.24588   0.49970   0.75072   0.00000  Uiso   1.00
O897   O     0.16666   0.53959   0.68573   0.00000  Uiso   1.00
O898   O     0.16667   0.46041   0.81427   0.00000  Uiso   1.00
O899   O     0.16667   0.53959   0.81427   0.00000  Uiso   1.00
O900   O     0.16666   0.46041   0.68573   0.00000  Uiso   1.00
C901   C     0.17025   0.49996   0.66523   0.00000  Uiso   1.00
C902   C     0.16663   0.49998   0.83488   0.00000  Uiso   1.00
Cu903  Cu    0.16667   0.54689   0.75000   0.00000  Uiso   1.00
Cu904  Cu    0.16667   0.45311   0.75000   0.00000  Uiso   1.00
C905   C     0.13547   0.35874   0.72834   0.00000  Uiso   1.00
C906   C     0.19561   0.64084   0.77511   0.00000  Uiso   1.00
C907   C     0.19837   0.35643   0.77082   0.00000  Uiso   1.00
C908   C     0.13893   0.64347   0.72300   0.00000  Uiso   1.00
C909   C     0.02363   0.46451   0.77232   0.00000  Uiso   1.00
C910   C     0.30991   0.53687   0.73182   0.00000  Uiso   1.00
C911   C     0.31425   0.46441   0.77278   0.00000  Uiso   1.00
C912   C     0.01926   0.53786   0.73275   0.00000  Uiso   1.00
C913   C     0.18309   0.54277   0.54807   0.00000  Uiso   1.00
C914   C     0.20015   0.47419   0.95393   0.00000  Uiso   1.00
C915   C     0.14507   0.53208   0.95201   0.00000  Uiso   1.00
C916   C     0.17329   0.46046   0.54608   0.00000  Uiso   1.00
H917   H     0.18839   0.57469   0.53051   0.00000  Uiso   1.00
H918   H     0.22255   0.45249   0.97292   0.00000  Uiso   1.00
H919   H     0.12463   0.55451   0.96959   0.00000  Uiso   1.00
H920   H     0.17010   0.42908   0.52695   0.00000  Uiso   1.00
C921   C     0.18582   0.54156   0.59427   0.00000  Uiso   1.00
C922   C     0.19767   0.47218   0.90802   0.00000  Uiso   1.00
C923   C     0.14172   0.53075   0.90580   0.00000  Uiso   1.00
C924   C     0.17544   0.45803   0.59209   0.00000  Uiso   1.00
C925   C     0.17691   0.49983   0.61692   0.00000  Uiso   1.00
C926   C     0.16822   0.50044   0.88342   0.00000  Uiso   1.00
H927   H     0.04159   0.43657   0.78861   0.00000  Uiso   1.00
H928   H     0.29204   0.56496   0.71566   0.00000  Uiso   1.00
H929   H     0.29997   0.43744   0.79073   0.00000  Uiso   1.00
H930   H     0.03336   0.56695   0.71777   0.00000  Uiso   1.00
C931   C     0.17556   0.50267   0.52415   0.00000  Uiso   1.00
C932   C     0.17391   0.50364   0.97589   0.00000  Uiso   1.00
C933   C     0.29057   0.49982   0.75136   0.00000  Uiso   1.00
C934   C     0.04291   0.50107   0.75190   0.00000  Uiso   1.00
N935   N     0.09804   0.38151   0.71129   0.00000  Uiso   1.00
O936   O     0.09811   0.41007   0.67806   0.00000  Uiso   1.00
O937   O     0.06279   0.36650   0.72312   0.00000  Uiso   1.00
N938   N     0.22578   0.61594   0.80293   0.00000  Uiso   1.00
O939   O     0.26376   0.61264   0.79155   0.00000  Uiso   1.00
O940   O     0.21819   0.60813   0.84388   0.00000  Uiso   1.00
N941   N     0.23787   0.37580   0.78038   0.00000  Uiso   1.00
O942   O     0.25423   0.37365   0.82055   0.00000  Uiso   1.00
O943   O     0.26258   0.37692   0.74819   0.00000  Uiso   1.00
N944   N     0.11851   0.62498   0.68359   0.00000  Uiso   1.00
O945   O     0.09538   0.58915   0.68462   0.00000  Uiso   1.00
O946   O     0.11703   0.64927   0.64718   0.00000  Uiso   1.00
C947   C     0.20309   0.58339   0.61775   0.00000  Uiso   1.00
H948   H     0.22826   0.57260   0.64244   0.00000  Uiso   1.00
H949   H     0.21648   0.60799   0.59452   0.00000  Uiso   1.00
H950   H     0.17868   0.60233   0.63413   0.00000  Uiso   1.00
C951   C     0.22659   0.43956   0.88627   0.00000  Uiso   1.00
H952   H     0.20826   0.41098   0.87163   0.00000  Uiso   1.00
H953   H     0.24286   0.45804   0.86046   0.00000  Uiso   1.00
H954   H     0.25044   0.42410   0.91018   0.00000  Uiso   1.00
C955   C     0.10888   0.56055   0.88136   0.00000  Uiso   1.00
H956   H     0.08965   0.53906   0.85831   0.00000  Uiso   1.00
H957   H     0.08799   0.57752   0.90431   0.00000  Uiso   1.00
H958   H     0.12346   0.58825   0.86262   0.00000  Uiso   1.00
C959   C     0.17937   0.41023   0.61253   0.00000  Uiso   1.00
H960   H     0.20573   0.40836   0.63770   0.00000  Uiso   1.00
H961   H     0.15036   0.40099   0.62703   0.00000  Uiso   1.00
H962   H     0.18561   0.38333   0.58770   0.00000  Uiso   1.00
O963   O     0.43988   0.53958   0.74999   0.00000  Uiso   1.00
O964   O     0.56012   0.46042   0.75000   0.00000  Uiso   1.00
O965   O     0.56012   0.53958   0.75000   0.00000  Uiso   1.00
O966   O     0.43988   0.46042   0.74999   0.00000  Uiso   1.00
N967   N     0.50000   0.61736   0.75000   0.00000  Uiso   1.00
N968   N     0.50000   0.38264   0.75000   0.00000  Uiso   1.00
C969   C     0.42084   0.50041   0.75053   0.00000  Uiso   1.00
C970   C     0.57921   0.49970   0.75072   0.00000  Uiso   1.00
O971   O     0.50000   0.53959   0.68573   0.00000  Uiso   1.00
O972   O     0.50000   0.46041   0.81427   0.00000  Uiso   1.00
O973   O     0.50000   0.53959   0.81427   0.00000  Uiso   1.00
O974   O     0.50000   0.46041   0.68573   0.00000  Uiso   1.00
C975   C     0.50358   0.49996   0.66523   0.00000  Uiso   1.00
C976   C     0.49997   0.49998   0.83488   0.00000  Uiso   1.00
Cu977  Cu    0.50000   0.54689   0.75000   0.00000  Uiso   1.00
Cu978  Cu    0.50000   0.45311   0.75000   0.00000  Uiso   1.00
C979   C     0.46880   0.35874   0.72834   0.00000  Uiso   1.00
C980   C     0.52894   0.64084   0.77511   0.00000  Uiso   1.00
C981   C     0.53170   0.35643   0.77082   0.00000  Uiso   1.00
C982   C     0.47226   0.64347   0.72300   0.00000  Uiso   1.00
C983   C     0.35696   0.46451   0.77232   0.00000  Uiso   1.00
C984   C     0.64325   0.53687   0.73182   0.00000  Uiso   1.00
C985   C     0.64758   0.46441   0.77278   0.00000  Uiso   1.00
C986   C     0.35259   0.53786   0.73275   0.00000  Uiso   1.00
C987   C     0.51642   0.54277   0.54807   0.00000  Uiso   1.00
C988   C     0.53348   0.47419   0.95393   0.00000  Uiso   1.00
C989   C     0.47841   0.53208   0.95201   0.00000  Uiso   1.00
C990   C     0.50663   0.46046   0.54608   0.00000  Uiso   1.00
H991   H     0.52172   0.57469   0.53051   0.00000  Uiso   1.00
H992   H     0.55588   0.45249   0.97292   0.00000  Uiso   1.00
H993   H     0.45796   0.55451   0.96959   0.00000  Uiso   1.00
H994   H     0.50343   0.42908   0.52695   0.00000  Uiso   1.00
C995   C     0.51916   0.54156   0.59427   0.00000  Uiso   1.00
C996   C     0.53100   0.47218   0.90802   0.00000  Uiso   1.00
C997   C     0.47506   0.53075   0.90580   0.00000  Uiso   1.00
C998   C     0.50878   0.45803   0.59209   0.00000  Uiso   1.00
C999   C     0.51024   0.49983   0.61692   0.00000  Uiso   1.00
C1000  C     0.50156   0.50044   0.88342   0.00000  Uiso   1.00
H1001  H     0.37493   0.43657   0.78861   0.00000  Uiso   1.00
H1002  H     0.62537   0.56496   0.71566   0.00000  Uiso   1.00
H1003  H     0.63331   0.43744   0.79073   0.00000  Uiso   1.00
H1004  H     0.36670   0.56695   0.71777   0.00000  Uiso   1.00
C1005  C     0.50890   0.50267   0.52415   0.00000  Uiso   1.00
C1006  C     0.50724   0.50364   0.97589   0.00000  Uiso   1.00
C1007  C     0.62391   0.49982   0.75136   0.00000  Uiso   1.00
C1008  C     0.37624   0.50107   0.75190   0.00000  Uiso   1.00
N1009  N     0.43137   0.38151   0.71129   0.00000  Uiso   1.00
O1010  O     0.43145   0.41007   0.67806   0.00000  Uiso   1.00
O1011  O     0.39612   0.36650   0.72312   0.00000  Uiso   1.00
N1012  N     0.55911   0.61594   0.80293   0.00000  Uiso   1.00
O1013  O     0.59710   0.61264   0.79155   0.00000  Uiso   1.00
O1014  O     0.55153   0.60813   0.84388   0.00000  Uiso   1.00
N1015  N     0.57121   0.37580   0.78038   0.00000  Uiso   1.00
O1016  O     0.58756   0.37365   0.82055   0.00000  Uiso   1.00
O1017  O     0.59591   0.37692   0.74819   0.00000  Uiso   1.00
N1018  N     0.45184   0.62498   0.68359   0.00000  Uiso   1.00
O1019  O     0.42872   0.58915   0.68462   0.00000  Uiso   1.00
O1020  O     0.45036   0.64927   0.64718   0.00000  Uiso   1.00
C1021  C     0.53643   0.58339   0.61775   0.00000  Uiso   1.00
H1022  H     0.56160   0.57260   0.64244   0.00000  Uiso   1.00
H1023  H     0.54982   0.60799   0.59452   0.00000  Uiso   1.00
H1024  H     0.51201   0.60233   0.63413   0.00000  Uiso   1.00
C1025  C     0.55993   0.43956   0.88627   0.00000  Uiso   1.00
H1026  H     0.54159   0.41098   0.87163   0.00000  Uiso   1.00
H1027  H     0.57620   0.45804   0.86046   0.00000  Uiso   1.00
H1028  H     0.58377   0.42410   0.91018   0.00000  Uiso   1.00
C1029  C     0.44222   0.56055   0.88136   0.00000  Uiso   1.00
H1030  H     0.42298   0.53906   0.85831   0.00000  Uiso   1.00
H1031  H     0.42132   0.57752   0.90431   0.00000  Uiso   1.00
H1032  H     0.45679   0.58825   0.86262   0.00000  Uiso   1.00
C1033  C     0.51270   0.41023   0.61253   0.00000  Uiso   1.00
H1034  H     0.53906   0.40836   0.63770   0.00000  Uiso   1.00
H1035  H     0.48369   0.40099   0.62703   0.00000  Uiso   1.00
H1036  H     0.51894   0.38333   0.58770   0.00000  Uiso   1.00
O1037  O     0.77321   0.53958   0.74999   0.00000  Uiso   1.00
O1038  O     0.89345   0.46042   0.75000   0.00000  Uiso   1.00
O1039  O     0.89345   0.53958   0.75000   0.00000  Uiso   1.00
O1040  O     0.77321   0.46042   0.74999   0.00000  Uiso   1.00
N1041  N     0.83333   0.61736   0.75000   0.00000  Uiso   1.00
N1042  N     0.83333   0.38264   0.75000   0.00000  Uiso   1.00
C1043  C     0.75418   0.50041   0.75053   0.00000  Uiso   1.00
C1044  C     0.91254   0.49970   0.75072   0.00000  Uiso   1.00
O1045  O     0.83333   0.53959   0.68573   0.00000  Uiso   1.00
O1046  O     0.83334   0.46041   0.81427   0.00000  Uiso   1.00
O1047  O     0.83334   0.53959   0.81427   0.00000  Uiso   1.00
O1048  O     0.83333   0.46041   0.68573   0.00000  Uiso   1.00
C1049  C     0.83692   0.49996   0.66523   0.00000  Uiso   1.00
C1050  C     0.83330   0.49998   0.83488   0.00000  Uiso   1.00
Cu1051 Cu    0.83333   0.54689   0.75000   0.00000  Uiso   1.00
Cu1052 Cu    0.83333   0.45311   0.75000   0.00000  Uiso   1.00
C1053  C     0.80213   0.35874   0.72834   0.00000  Uiso   1.00
C1054  C     0.86227   0.64084   0.77511   0.00000  Uiso   1.00
C1055  C     0.86504   0.35643   0.77082   0.00000  Uiso   1.00
C1056  C     0.80560   0.64347   0.72300   0.00000  Uiso   1.00
C1057  C     0.69029   0.46451   0.77232   0.00000  Uiso   1.00
C1058  C     0.97658   0.53687   0.73182   0.00000  Uiso   1.00
C1059  C     0.98091   0.46441   0.77278   0.00000  Uiso   1.00
C1060  C     0.68592   0.53786   0.73275   0.00000  Uiso   1.00
C1061  C     0.84975   0.54277   0.54807   0.00000  Uiso   1.00
C1062  C     0.86682   0.47419   0.95393   0.00000  Uiso   1.00
C1063  C     0.81174   0.53208   0.95201   0.00000  Uiso   1.00
C1064  C     0.83996   0.46046   0.54608   0.00000  Uiso   1.00
H1065  H     0.85505   0.57469   0.53051   0.00000  Uiso   1.00
H1066  H     0.88922   0.45249   0.97292   0.00000  Uiso   1.00
H1067  H     0.79129   0.55451   0.96959   0.00000  Uiso   1.00
H1068  H     0.83677   0.42908   0.52695   0.00000  Uiso   1.00
C1069  C     0.85249   0.54156   0.59427   0.00000  Uiso   1.00
C1070  C     0.86433   0.47218   0.90802   0.00000  Uiso   1.00
C1071  C     0.80839   0.53075   0.90580   0.00000  Uiso   1.00
C1072  C     0.84211   0.45803   0.59209   0.00000  Uiso   1.00
C1073  C     0.84358   0.49983   0.61692   0.00000  Uiso   1.00
C1074  C     0.83489   0.50044   0.88342   0.00000  Uiso   1.00
H1075  H     0.70826   0.43657   0.78861   0.00000  Uiso   1.00
H1076  H     0.95871   0.56496   0.71566   0.00000  Uiso   1.00
H1077  H     0.96664   0.43744   0.79073   0.00000  Uiso   1.00
H1078  H     0.70003   0.56695   0.71777   0.00000  Uiso   1.00
C1079  C     0.84223   0.50267   0.52415   0.00000  Uiso   1.00
C1080  C     0.84057   0.50364   0.97589   0.00000  Uiso   1.00
C1081  C     0.95724   0.49982   0.75136   0.00000  Uiso   1.00
C1082  C     0.70958   0.50107   0.75190   0.00000  Uiso   1.00
N1083  N     0.76470   0.38151   0.71129   0.00000  Uiso   1.00
O1084  O     0.76478   0.41007   0.67806   0.00000  Uiso   1.00
O1085  O     0.72945   0.36650   0.72312   0.00000  Uiso   1.00
N1086  N     0.89245   0.61594   0.80293   0.00000  Uiso   1.00
O1087  O     0.93043   0.61264   0.79155   0.00000  Uiso   1.00
O1088  O     0.88486   0.60813   0.84388   0.00000  Uiso   1.00
N1089  N     0.90454   0.37580   0.78038   0.00000  Uiso   1.00
O1090  O     0.92089   0.37365   0.82055   0.00000  Uiso   1.00
O1091  O     0.92925   0.37692   0.74819   0.00000  Uiso   1.00
N1092  N     0.78517   0.62498   0.68359   0.00000  Uiso   1.00
O1093  O     0.76205   0.58915   0.68462   0.00000  Uiso   1.00
O1094  O     0.78370   0.64927   0.64718   0.00000  Uiso   1.00
C1095  C     0.86976   0.58339   0.61775   0.00000  Uiso   1.00
H1096  H     0.89493   0.57260   0.64244   0.00000  Uiso   1.00
H1097  H     0.88315   0.60799   0.59452   0.00000  Uiso   1.00
H1098  H     0.84534   0.60233   0.63413   0.00000  Uiso   1.00
C1099  C     0.89326   0.43956   0.88627   0.00000  Uiso   1.00
H1100  H     0.87492   0.41098   0.87163   0.00000  Uiso   1.00
H1101  H     0.90953   0.45804   0.86046   0.00000  Uiso   1.00
H1102  H     0.91711   0.42410   0.91018   0.00000  Uiso   1.00
C1103  C     0.77555   0.56055   0.88136   0.00000  Uiso   1.00
H1104  H     0.75631   0.53906   0.85831   0.00000  Uiso   1.00
H1105  H     0.75466   0.57752   0.90431   0.00000  Uiso   1.00
H1106  H     0.79012   0.58825   0.86262   0.00000  Uiso   1.00
C1107  C     0.84604   0.41023   0.61253   0.00000  Uiso   1.00
H1108  H     0.87240   0.40836   0.63770   0.00000  Uiso   1.00
H1109  H     0.81702   0.40099   0.62703   0.00000  Uiso   1.00
H1110  H     0.85228   0.38333   0.58770   0.00000  Uiso   1.00
O1111  O     0.10655   0.87291   0.74999   0.00000  Uiso   1.00
O1112  O     0.22679   0.79375   0.75000   0.00000  Uiso   1.00
O1113  O     0.22679   0.87291   0.75000   0.00000  Uiso   1.00
O1114  O     0.10655   0.79375   0.74999   0.00000  Uiso   1.00
N1115  N     0.16667   0.95069   0.75000   0.00000  Uiso   1.00
N1116  N     0.16667   0.71598   0.75000   0.00000  Uiso   1.00
C1117  C     0.08751   0.83374   0.75053   0.00000  Uiso   1.00
C1118  C     0.24588   0.83304   0.75072   0.00000  Uiso   1.00
O1119  O     0.16666   0.87293   0.68573   0.00000  Uiso   1.00
O1120  O     0.16667   0.79374   0.81427   0.00000  Uiso   1.00
O1121  O     0.16667   0.87293   0.81427   0.00000  Uiso   1.00
O1122  O     0.16666   0.79374   0.68573   0.00000  Uiso   1.00
C1123  C     0.17025   0.83329   0.66523   0.00000  Uiso   1.00
C1124  C     0.16663   0.83331   0.83488   0.00000  Uiso   1.00
Cu1125 Cu    0.16667   0.88022   0.75000   0.00000  Uiso   1.00
Cu1126 Cu    0.16667   0.78645   0.75000   0.00000  Uiso   1.00
C1127  C     0.13547   0.69207   0.72834   0.00000  Uiso   1.00
C1128  C     0.19561   0.97417   0.77511   0.00000  Uiso   1.00
C1129  C     0.19837   0.68976   0.77082   0.00000  Uiso   1.00
C1130  C     0.13893   0.97680   0.72300   0.00000  Uiso   1.00
C1131  C     0.02363   0.79785   0.77232   0.00000  Uiso   1.00
C1132  C     0.30991   0.87020   0.73182   0.00000  Uiso   1.00
C1133  C     0.31425   0.79775   0.77278   0.00000  Uiso   1.00
C1134  C     0.01926   0.87120   0.73275   0.00000  Uiso   1.00
C1135  C     0.18309   0.87611   0.54807   0.00000  Uiso   1.00
C1136  C     0.20015   0.80752   0.95393   0.00000  Uiso   1.00
C1137  C     0.14507   0.86541   0.95201   0.00000  Uiso   1.00
C1138  C     0.17329   0.79380   0.54608   0.00000  Uiso   1.00
H1139  H     0.18839   0.90802   0.53051   0.00000  Uiso   1.00
H1140  H     0.22255   0.78582   0.97292   0.00000  Uiso   1.00
H1141  H     0.12463   0.88784   0.96959   0.00000  Uiso   1.00
H1142  H     0.17010   0.76241   0.52695   0.00000  Uiso   1.00
C1143  C     0.18582   0.87490   0.59427   0.00000  Uiso   1.00
C1144  C     0.19767   0.80551   0.90802   0.00000  Uiso   1.00
C1145  C     0.14172   0.86408   0.90580   0.00000  Uiso   1.00
C1146  C     0.17544   0.79136   0.59209   0.00000  Uiso   1.00
C1147  C     0.17691   0.83317   0.61692   0.00000  Uiso   1.00
C1148  C     0.16822   0.83377   0.88342   0.00000  Uiso   1.00
H1149  H     0.04159   0.76991   0.78861   0.00000  Uiso   1.00
H1150  H     0.29204   0.89830   0.71566   0.00000  Uiso   1.00
H1151  H     0.29997   0.77077   0.79073   0.00000  Uiso   1.00
H1152  H     0.03336   0.90028   0.71777   0.00000  Uiso   1.00
C1153  C     0.17556   0.83600   0.52415   0.00000  Uiso   1.00
C1154  C     0.17391   0.83698   0.97589   0.00000  Uiso   1.00
C1155  C     0.29057   0.83315   0.75136   0.00000  Uiso   1.00
C1156  C     0.04291   0.83441   0.75190   0.00000  Uiso   1.00
N1157  N     0.09804   0.71484   0.71129   0.00000  Uiso   1.00
O1158  O     0.09811   0.74340   0.67806   0.00000  Uiso   1.00
O1159  O     0.06279   0.69983   0.72312   0.00000  Uiso   1.00
N1160  N     0.22578   0.94928   0.80293   0.00000  Uiso   1.00
O1161  O     0.26376   0.94597   0.79155   0.00000  Uiso   1.00
O1162  O     0.21819   0.94147   0.84388   0.00000  Uiso   1.00
N1163  N     0.23787   0.70913   0.78038   0.00000  Uiso   1.00
O1164  O     0.25423   0.70699   0.82055   0.00000  Uiso   1.00
O1165  O     0.26258   0.71025   0.74819   0.00000  Uiso   1.00
N1166  N     0.11851   0.95831   0.68359   0.00000  Uiso   1.00
O1167  O     0.09538   0.92249   0.68462   0.00000  Uiso   1.00
O1168  O     0.11703   0.98260   0.64718   0.00000  Uiso   1.00
C1169  C     0.20309   0.91672   0.61775   0.00000  Uiso   1.00
H1170  H     0.22826   0.90593   0.64244   0.00000  Uiso   1.00
H1171  H     0.21648   0.94132   0.59452   0.00000  Uiso   1.00
H1172  H     0.17868   0.93566   0.63413   0.00000  Uiso   1.00
C1173  C     0.22659   0.77290   0.88627   0.00000  Uiso   1.00
H1174  H     0.20826   0.74431   0.87163   0.00000  Uiso   1.00
H1175  H     0.24286   0.79138   0.86046   0.00000  Uiso   1.00
H1176  H     0.25044   0.75743   0.91018   0.00000  Uiso   1.00
C1177  C     0.10888   0.89388   0.88136   0.00000  Uiso   1.00
H1178  H     0.08965   0.87240   0.85831   0.00000  Uiso   1.00
H1179  H     0.08799   0.91086   0.90431   0.00000  Uiso   1.00
H1180  H     0.12346   0.92159   0.86262   0.00000  Uiso   1.00
C1181  C     0.17937   0.74357   0.61253   0.00000  Uiso   1.00
H1182  H     0.20573   0.74169   0.63770   0.00000  Uiso   1.00
H1183  H     0.15036   0.73432   0.62703   0.00000  Uiso   1.00
H1184  H     0.18561   0.71666   0.58770   0.00000  Uiso   1.00
O1185  O     0.43988   0.87291   0.74999   0.00000  Uiso   1.00
O1186  O     0.56012   0.79375   0.75000   0.00000  Uiso   1.00
O1187  O     0.56012   0.87291   0.75000   0.00000  Uiso   1.00
O1188  O     0.43988   0.79375   0.74999   0.00000  Uiso   1.00
N1189  N     0.50000   0.95069   0.75000   0.00000  Uiso   1.00
N1190  N     0.50000   0.71598   0.75000   0.00000  Uiso   1.00
C1191  C     0.42084   0.83374   0.75053   0.00000  Uiso   1.00
C1192  C     0.57921   0.83304   0.75072   0.00000  Uiso   1.00
O1193  O     0.50000   0.87293   0.68573   0.00000  Uiso   1.00
O1194  O     0.50000   0.79374   0.81427   0.00000  Uiso   1.00
O1195  O     0.50000   0.87293   0.81427   0.00000  Uiso   1.00
O1196  O     0.50000   0.79374   0.68573   0.00000  Uiso   1.00
C1197  C     0.50358   0.83329   0.66523   0.00000  Uiso   1.00
C1198  C     0.49997   0.83331   0.83488   0.00000  Uiso   1.00
Cu1199 Cu    0.50000   0.88022   0.75000   0.00000  Uiso   1.00
Cu1200 Cu    0.50000   0.78645   0.75000   0.00000  Uiso   1.00
C1201  C     0.46880   0.69207   0.72834   0.00000  Uiso   1.00
C1202  C     0.52894   0.97417   0.77511   0.00000  Uiso   1.00
C1203  C     0.53170   0.68976   0.77082   0.00000  Uiso   1.00
C1204  C     0.47226   0.97680   0.72300   0.00000  Uiso   1.00
C1205  C     0.35696   0.79785   0.77232   0.00000  Uiso   1.00
C1206  C     0.64325   0.87020   0.73182   0.00000  Uiso   1.00
C1207  C     0.64758   0.79775   0.77278   0.00000  Uiso   1.00
C1208  C     0.35259   0.87120   0.73275   0.00000  Uiso   1.00
C1209  C     0.51642   0.87611   0.54807   0.00000  Uiso   1.00
C1210  C     0.53348   0.80752   0.95393   0.00000  Uiso   1.00
C1211  C     0.47841   0.86541   0.95201   0.00000  Uiso   1.00
C1212  C     0.50663   0.79380   0.54608   0.00000  Uiso   1.00
H1213  H     0.52172   0.90802   0.53051   0.00000  Uiso   1.00
H1214  H     0.55588   0.78582   0.97292   0.00000  Uiso   1.00
H1215  H     0.45796   0.88784   0.96959   0.00000  Uiso   1.00
H1216  H     0.50343   0.76241   0.52695   0.00000  Uiso   1.00
C1217  C     0.51916   0.87490   0.59427   0.00000  Uiso   1.00
C1218  C     0.53100   0.80551   0.90802   0.00000  Uiso   1.00
C1219  C     0.47506   0.86408   0.90580   0.00000  Uiso   1.00
C1220  C     0.50878   0.79136   0.59209   0.00000  Uiso   1.00
C1221  C     0.51024   0.83317   0.61692   0.00000  Uiso   1.00
C1222  C     0.50156   0.83377   0.88342   0.00000  Uiso   1.00
H1223  H     0.37493   0.76991   0.78861   0.00000  Uiso   1.00
H1224  H     0.62537   0.89830   0.71566   0.00000  Uiso   1.00
H1225  H     0.63331   0.77077   0.79073   0.00000  Uiso   1.00
H1226  H     0.36670   0.90028   0.71777   0.00000  Uiso   1.00
C1227  C     0.50890   0.83600   0.52415   0.00000  Uiso   1.00
C1228  C     0.50724   0.83698   0.97589   0.00000  Uiso   1.00
C1229  C     0.62391   0.83315   0.75136   0.00000  Uiso   1.00
C1230  C     0.37624   0.83441   0.75190   0.00000  Uiso   1.00
N1231  N     0.43137   0.71484   0.71129   0.00000  Uiso   1.00
O1232  O     0.43145   0.74340   0.67806   0.00000  Uiso   1.00
O1233  O     0.39612   0.69983   0.72312   0.00000  Uiso   1.00
N1234  N     0.55911   0.94928   0.80293   0.00000  Uiso   1.00
O1235  O     0.59710   0.94597   0.79155   0.00000  Uiso   1.00
O1236  O     0.55153   0.94147   0.84388   0.00000  Uiso   1.00
N1237  N     0.57121   0.70913   0.78038   0.00000  Uiso   1.00
O1238  O     0.58756   0.70699   0.82055   0.00000  Uiso   1.00
O1239  O     0.59591   0.71025   0.74819   0.00000  Uiso   1.00
N1240  N     0.45184   0.95831   0.68359   0.00000  Uiso   1.00
O1241  O     0.42872   0.92249   0.68462   0.00000  Uiso   1.00
O1242  O     0.45036   0.98260   0.64718   0.00000  Uiso   1.00
C1243  C     0.53643   0.91672   0.61775   0.00000  Uiso   1.00
H1244  H     0.56160   0.90593   0.64244   0.00000  Uiso   1.00
H1245  H     0.54982   0.94132   0.59452   0.00000  Uiso   1.00
H1246  H     0.51201   0.93566   0.63413   0.00000  Uiso   1.00
C1247  C     0.55993   0.77290   0.88627   0.00000  Uiso   1.00
H1248  H     0.54159   0.74431   0.87163   0.00000  Uiso   1.00
H1249  H     0.57620   0.79138   0.86046   0.00000  Uiso   1.00
H1250  H     0.58377   0.75743   0.91018   0.00000  Uiso   1.00
C1251  C     0.44222   0.89388   0.88136   0.00000  Uiso   1.00
H1252  H     0.42298   0.87240   0.85831   0.00000  Uiso   1.00
H1253  H     0.42132   0.91086   0.90431   0.00000  Uiso   1.00
H1254  H     0.45679   0.92159   0.86262   0.00000  Uiso   1.00
C1255  C     0.51270   0.74357   0.61253   0.00000  Uiso   1.00
H1256  H     0.53906   0.74169   0.63770   0.00000  Uiso   1.00
H1257  H     0.48369   0.73432   0.62703   0.00000  Uiso   1.00
H1258  H     0.51894   0.71666   0.58770   0.00000  Uiso   1.00
O1259  O     0.77321   0.87291   0.74999   0.00000  Uiso   1.00
O1260  O     0.89345   0.79375   0.75000   0.00000  Uiso   1.00
O1261  O     0.89345   0.87291   0.75000   0.00000  Uiso   1.00
O1262  O     0.77321   0.79375   0.74999   0.00000  Uiso   1.00
N1263  N     0.83333   0.95069   0.75000   0.00000  Uiso   1.00
N1264  N     0.83333   0.71598   0.75000   0.00000  Uiso   1.00
C1265  C     0.75418   0.83374   0.75053   0.00000  Uiso   1.00
C1266  C     0.91254   0.83304   0.75072   0.00000  Uiso   1.00
O1267  O     0.83333   0.87293   0.68573   0.00000  Uiso   1.00
O1268  O     0.83334   0.79374   0.81427   0.00000  Uiso   1.00
O1269  O     0.83334   0.87293   0.81427   0.00000  Uiso   1.00
O1270  O     0.83333   0.79374   0.68573   0.00000  Uiso   1.00
C1271  C     0.83692   0.83329   0.66523   0.00000  Uiso   1.00
C1272  C     0.83330   0.83331   0.83488   0.00000  Uiso   1.00
Cu1273 Cu    0.83333   0.88022   0.75000   0.00000  Uiso   1.00
Cu1274 Cu    0.83333   0.78645   0.75000   0.00000  Uiso   1.00
C1275  C     0.80213   0.69207   0.72834   0.00000  Uiso   1.00
C1276  C     0.86227   0.97417   0.77511   0.00000  Uiso   1.00
C1277  C     0.86504   0.68976   0.77082   0.00000  Uiso   1.00
C1278  C     0.80560   0.97680   0.72300   0.00000  Uiso   1.00
C1279  C     0.69029   0.79785   0.77232   0.00000  Uiso   1.00
C1280  C     0.97658   0.87020   0.73182   0.00000  Uiso   1.00
C1281  C     0.98091   0.79775   0.77278   0.00000  Uiso   1.00
C1282  C     0.68592   0.87120   0.73275   0.00000  Uiso   1.00
C1283  C     0.84975   0.87611   0.54807   0.00000  Uiso   1.00
C1284  C     0.86682   0.80752   0.95393   0.00000  Uiso   1.00
C1285  C     0.81174   0.86541   0.95201   0.00000  Uiso   1.00
C1286  C     0.83996   0.79380   0.54608   0.00000  Uiso   1.00
H1287  H     0.85505   0.90802   0.53051   0.00000  Uiso   1.00
H1288  H     0.88922   0.78582   0.97292   0.00000  Uiso   1.00
H1289  H     0.79129   0.88784   0.96959   0.00000  Uiso   1.00
H1290  H     0.83677   0.76241   0.52695   0.00000  Uiso   1.00
C1291  C     0.85249   0.87490   0.59427   0.00000  Uiso   1.00
C1292  C     0.86433   0.80551   0.90802   0.00000  Uiso   1.00
C1293  C     0.80839   0.86408   0.90580   0.00000  Uiso   1.00
C1294  C     0.84211   0.79136   0.59209   0.00000  Uiso   1.00
C1295  C     0.84358   0.83317   0.61692   0.00000  Uiso   1.00
C1296  C     0.83489   0.83377   0.88342   0.00000  Uiso   1.00
H1297  H     0.70826   0.76991   0.78861   0.00000  Uiso   1.00
H1298  H     0.95871   0.89830   0.71566   0.00000  Uiso   1.00
H1299  H     0.96664   0.77077   0.79073   0.00000  Uiso   1.00
H1300  H     0.70003   0.90028   0.71777   0.00000  Uiso   1.00
C1301  C     0.84223   0.83600   0.52415   0.00000  Uiso   1.00
C1302  C     0.84057   0.83698   0.97589   0.00000  Uiso   1.00
C1303  C     0.95724   0.83315   0.75136   0.00000  Uiso   1.00
C1304  C     0.70958   0.83441   0.75190   0.00000  Uiso   1.00
N1305  N     0.76470   0.71484   0.71129   0.00000  Uiso   1.00
O1306  O     0.76478   0.74340   0.67806   0.00000  Uiso   1.00
O1307  O     0.72945   0.69983   0.72312   0.00000  Uiso   1.00
N1308  N     0.89245   0.94928   0.80293   0.00000  Uiso   1.00
O1309  O     0.93043   0.94597   0.79155   0.00000  Uiso   1.00
O1310  O     0.88486   0.94147   0.84388   0.00000  Uiso   1.00
N1311  N     0.90454   0.70913   0.78038   0.00000  Uiso   1.00
O1312  O     0.92089   0.70699   0.82055   0.00000  Uiso   1.00
O1313  O     0.92925   0.71025   0.74819   0.00000  Uiso   1.00
N1314  N     0.78517   0.95831   0.68359   0.00000  Uiso   1.00
O1315  O     0.76205   0.92249   0.68462   0.00000  Uiso   1.00
O1316  O     0.78370   0.98260   0.64718   0.00000  Uiso   1.00
C1317  C     0.86976   0.91672   0.61775   0.00000  Uiso   1.00
H1318  H     0.89493   0.90593   0.64244   0.00000  Uiso   1.00
H1319  H     0.88315   0.94132   0.59452   0.00000  Uiso   1.00
H1320  H     0.84534   0.93566   0.63413   0.00000  Uiso   1.00
C1321  C     0.89326   0.77290   0.88627   0.00000  Uiso   1.00
H1322  H     0.87492   0.74431   0.87163   0.00000  Uiso   1.00
H1323  H     0.90953   0.79138   0.86046   0.00000  Uiso   1.00
H1324  H     0.91711   0.75743   0.91018   0.00000  Uiso   1.00
C1325  C     0.77555   0.89388   0.88136   0.00000  Uiso   1.00
H1326  H     0.75631   0.87240   0.85831   0.00000  Uiso   1.00
H1327  H     0.75466   0.91086   0.90431   0.00000  Uiso   1.00
H1328  H     0.79012   0.92159   0.86262   0.00000  Uiso   1.00
C1329  C     0.84604   0.74357   0.61253   0.00000  Uiso   1.00
H1330  H     0.87240   0.74169   0.63770   0.00000  Uiso   1.00
H1331  H     0.81702   0.73432   0.62703   0.00000  Uiso   1.00
H1332  H     0.85228   0.71666   0.58770   0.00000  Uiso   1.00
loop_
_geom_bond_atom_site_label_1
_geom_bond_atom_site_label_2
_geom_bond_distance
_geom_bond_site_symmetry_2
_ccdc_geom_bond_type
O1     Cu15    1.965   .     S
O1     C7      1.302   .     A
O2     Cu16    1.965   .     S
O2     C8      1.305   .     A
O3     C8      1.296   .     A
O3     Cu15    1.956   .     S
O4     Cu16    1.956   .     S
O4     C7      1.300   .     A
N5     C20     1.386   .     A
N5     C18     1.367   .     A
N5     Cu15    2.038   .     S
N6     C19     1.382   .     A
N6     Cu16    2.038   .     S
N6     C17     1.374   .     A
C7     C46     1.449   .     S
C8     C45     1.448   .     S
O9     Cu15    1.963   .     S
O9     C13     1.315   .     A
O10    Cu16    1.963   .     S
O10    C14     1.308   .     A
O11    Cu15    1.960   .     S
O11    C14     1.301   .     A
O12    Cu16    1.960   .     S
O12    C13     1.309   .     A
C13    C37     1.495   .     S
C14    C38     1.471   .     S
Cu15   Cu16    2.712   .     S
C17    N47     1.434   .     S
C17    C464    1.419   1_545 S
C18    N50     1.430   .     S
C18    C241    1.425   .     S
C19    N53     1.423   .     S
C19    C462    1.425   1_545 S
C20    N56     1.443   .     S
C20    C239    1.419   .     S
C21    H39     1.084   .     S
C21    C46     1.400   .     A
C21    C171    1.386   1_455 S
C22    H40     1.084   .     S
C22    C45     1.399   .     A
C22    C98     1.383   .     S
C23    H41     1.077   .     S
C23    C45     1.398   .     A
C23    C95     1.386   .     S
C24    H42     1.077   .     S
C24    C46     1.399   .     A
C24    C170    1.383   1_455 S
C25    C43     1.391   .     A
C25    H29     1.084   .     S
C25    C33     1.399   .     A
C26    C44     1.393   .     A
C26    H30     1.085   .     S
C26    C34     1.392   .     A
C27    C44     1.396   .     A
C27    C35     1.400   .     A
C27    H31     1.084   .     S
C28    C43     1.391   .     A
C28    H32     1.085   .     S
C28    C36     1.394   .     A
C33    C37     1.428   .     A
C33    C59     1.509   .     S
C34    C63     1.501   .     S
C34    C38     1.416   .     A
C35    C67     1.510   .     S
C35    C38     1.420   .     A
C36    C71     1.510   .     S
C36    C37     1.430   .     A
C43    C710    1.462   1_554 S
C44    C709    1.462   .     S
N47    O48     1.299   .     A
N47    O49     1.301   .     A
N50    O52     1.300   .     A
N50    O51     1.301   .     A
N53    O55     1.301   .     A
N53    O54     1.299   .     A
N56    O57     1.293   .     A
N56    O58     1.302   .     A
C59    H60     1.111   .     S
C59    H61     1.111   .     S
C59    H62     1.099   .     S
C63    H65     1.111   .     S
C63    H66     1.111   .     S
C63    H64     1.108   .     S
C67    H70     1.110   .     S
C67    H68     1.111   .     S
C67    H69     1.111   .     S
C71    H74     1.111   .     S
C71    H72     1.110   .     S
C71    H73     1.100   .     S
O75    Cu89    1.965   .     S
O75    C81     1.302   .     A
O76    Cu90    1.965   .     S
O76    C82     1.305   .     A
O77    C82     1.296   .     A
O77    Cu89    1.956   .     S
O78    Cu90    1.956   .     S
O78    C81     1.300   .     A
N79    C94     1.386   .     A
N79    C92     1.367   .     A
N79    Cu89    2.038   .     S
N80    C93     1.382   .     A
N80    Cu90    2.038   .     S
N80    C91     1.374   .     A
C81    C120    1.449   .     S
C82    C119    1.448   .     S
O83    Cu89    1.963   .     S
O83    C87     1.315   .     A
O84    Cu90    1.963   .     S
O84    C88     1.308   .     A
O85    Cu89    1.960   .     S
O85    C88     1.301   .     A
O86    Cu90    1.960   .     S
O86    C87     1.309   .     A
C87    C111    1.495   .     S
C88    C112    1.471   .     S
Cu89   Cu90    2.712   .     S
C91    N121    1.434   .     S
C91    C538    1.419   1_545 S
C92    N124    1.430   .     S
C92    C315    1.425   .     S
C93    N127    1.423   .     S
C93    C536    1.425   1_545 S
C94    N130    1.443   .     S
C94    C313    1.419   .     S
C95    H113    1.084   .     S
C95    C120    1.400   .     A
C96    H114    1.084   .     S
C96    C119    1.399   .     A
C96    C172    1.383   .     S
C97    H115    1.077   .     S
C97    C119    1.398   .     A
C97    C169    1.386   .     S
C98    H116    1.077   .     S
C98    C120    1.399   .     A
C99    C117    1.391   .     A
C99    H103    1.084   .     S
C99    C107    1.399   .     A
C100   C118    1.393   .     A
C100   H104    1.085   .     S
C100   C108    1.392   .     A
C101   C118    1.396   .     A
C101   C109    1.400   .     A
C101   H105    1.084   .     S
C102   C117    1.391   .     A
C102   H106    1.085   .     S
C102   C110    1.394   .     A
C107   C111    1.428   .     A
C107   C133    1.509   .     S
C108   C137    1.501   .     S
C108   C112    1.416   .     A
C109   C141    1.510   .     S
C109   C112    1.420   .     A
C110   C145    1.510   .     S
C110   C111    1.430   .     A
C117   C784    1.462   1_554 S
C118   C783    1.462   .     S
N121   O122    1.299   .     A
N121   O123    1.301   .     A
N124   O126    1.300   .     A
N124   O125    1.301   .     A
N127   O129    1.301   .     A
N127   O128    1.299   .     A
N130   O131    1.293   .     A
N130   O132    1.302   .     A
C133   H134    1.111   .     S
C133   H135    1.111   .     S
C133   H136    1.099   .     S
C137   H139    1.111   .     S
C137   H140    1.111   .     S
C137   H138    1.108   .     S
C141   H144    1.110   .     S
C141   H142    1.111   .     S
C141   H143    1.111   .     S
C145   H148    1.111   .     S
C145   H146    1.110   .     S
C145   H147    1.100   .     S
O149   Cu163   1.965   .     S
O149   C155    1.302   .     A
O150   Cu164   1.965   .     S
O150   C156    1.305   .     A
O151   C156    1.296   .     A
O151   Cu163   1.956   .     S
O152   Cu164   1.956   .     S
O152   C155    1.300   .     A
N153   C168    1.386   .     A
N153   C166    1.367   .     A
N153   Cu163   2.038   .     S
N154   C167    1.382   .     A
N154   Cu164   2.038   .     S
N154   C165    1.374   .     A
C155   C194    1.449   .     S
C156   C193    1.448   .     S
O157   Cu163   1.963   .     S
O157   C161    1.315   .     A
O158   Cu164   1.963   .     S
O158   C162    1.308   .     A
O159   Cu163   1.960   .     S
O159   C162    1.301   .     A
O160   Cu164   1.960   .     S
O160   C161    1.309   .     A
C161   C185    1.495   .     S
C162   C186    1.471   .     S
Cu163  Cu164   2.712   .     S
C165   N195    1.434   .     S
C165   C612    1.419   1_545 S
C166   N198    1.430   .     S
C166   C389    1.425   .     S
C167   N201    1.423   .     S
C167   C610    1.425   1_545 S
C168   N204    1.443   .     S
C168   C387    1.419   .     S
C169   H187    1.084   .     S
C169   C194    1.400   .     A
C170   H188    1.084   .     S
C170   C193    1.399   .     A
C170   C24     1.383   1_655 S
C171   H189    1.077   .     S
C171   C193    1.398   .     A
C171   C21     1.386   1_655 S
C172   H190    1.077   .     S
C172   C194    1.399   .     A
C173   C191    1.391   .     A
C173   H177    1.084   .     S
C173   C181    1.399   .     A
C174   C192    1.393   .     A
C174   H178    1.085   .     S
C174   C182    1.392   .     A
C175   C192    1.396   .     A
C175   C183    1.400   .     A
C175   H179    1.084   .     S
C176   C191    1.391   .     A
C176   H180    1.085   .     S
C176   C184    1.394   .     A
C181   C185    1.428   .     A
C181   C207    1.509   .     S
C182   C211    1.501   .     S
C182   C186    1.416   .     A
C183   C215    1.510   .     S
C183   C186    1.420   .     A
C184   C219    1.510   .     S
C184   C185    1.430   .     A
C191   C858    1.462   1_554 S
C192   C857    1.462   .     S
N195   O196    1.299   .     A
N195   O197    1.301   .     A
N198   O200    1.300   .     A
N198   O199    1.301   .     A
N201   O203    1.301   .     A
N201   O202    1.299   .     A
N204   O205    1.293   .     A
N204   O206    1.302   .     A
C207   H208    1.111   .     S
C207   H209    1.111   .     S
C207   H210    1.099   .     S
C211   H213    1.111   .     S
C211   H214    1.111   .     S
C211   H212    1.108   .     S
C215   H218    1.110   .     S
C215   H216    1.111   .     S
C215   H217    1.111   .     S
C219   H222    1.111   .     S
C219   H220    1.110   .     S
C219   H221    1.100   .     S
O223   Cu237   1.965   .     S
O223   C229    1.302   .     A
O224   Cu238   1.965   .     S
O224   C230    1.305   .     A
O225   C230    1.296   .     A
O225   Cu237   1.956   .     S
O226   Cu238   1.956   .     S
O226   C229    1.300   .     A
N227   C242    1.386   .     A
N227   C240    1.367   .     A
N227   Cu237   2.038   .     S
N228   C241    1.382   .     A
N228   Cu238   2.038   .     S
N228   C239    1.374   .     A
C229   C268    1.449   .     S
C230   C267    1.448   .     S
O231   Cu237   1.963   .     S
O231   C235    1.315   .     A
O232   Cu238   1.963   .     S
O232   C236    1.308   .     A
O233   Cu237   1.960   .     S
O233   C236    1.301   .     A
O234   Cu238   1.960   .     S
O234   C235    1.309   .     A
C235   C259    1.495   .     S
C236   C260    1.471   .     S
Cu237  Cu238   2.712   .     S
C239   N269    1.434   .     S
C240   N272    1.430   .     S
C240   C463    1.425   .     S
C241   N275    1.423   .     S
C242   N278    1.443   .     S
C242   C461    1.419   .     S
C243   H261    1.084   .     S
C243   C268    1.400   .     A
C243   C393    1.386   1_455 S
C244   H262    1.084   .     S
C244   C267    1.399   .     A
C244   C320    1.383   .     S
C245   H263    1.077   .     S
C245   C267    1.398   .     A
C245   C317    1.386   .     S
C246   H264    1.077   .     S
C246   C268    1.399   .     A
C246   C392    1.383   1_455 S
C247   C265    1.391   .     A
C247   H251    1.084   .     S
C247   C255    1.399   .     A
C248   C266    1.393   .     A
C248   H252    1.085   .     S
C248   C256    1.392   .     A
C249   C266    1.396   .     A
C249   C257    1.400   .     A
C249   H253    1.084   .     S
C250   C265    1.391   .     A
C250   H254    1.085   .     S
C250   C258    1.394   .     A
C255   C259    1.428   .     A
C255   C281    1.509   .     S
C256   C285    1.501   .     S
C256   C260    1.416   .     A
C257   C289    1.510   .     S
C257   C260    1.420   .     A
C258   C293    1.510   .     S
C258   C259    1.430   .     A
C265   C932    1.462   1_554 S
C266   C931    1.462   .     S
N269   O270    1.299   .     A
N269   O271    1.301   .     A
N272   O274    1.300   .     A
N272   O273    1.301   .     A
N275   O277    1.301   .     A
N275   O276    1.299   .     A
N278   O279    1.293   .     A
N278   O280    1.302   .     A
C281   H282    1.111   .     S
C281   H283    1.111   .     S
C281   H284    1.099   .     S
C285   H287    1.111   .     S
C285   H288    1.111   .     S
C285   H286    1.108   .     S
C289   H292    1.110   .     S
C289   H290    1.111   .     S
C289   H291    1.111   .     S
C293   H296    1.111   .     S
C293   H294    1.110   .     S
C293   H295    1.100   .     S
O297   Cu311   1.965   .     S
O297   C303    1.302   .     A
O298   Cu312   1.965   .     S
O298   C304    1.305   .     A
O299   C304    1.296   .     A
O299   Cu311   1.956   .     S
O300   Cu312   1.956   .     S
O300   C303    1.300   .     A
N301   C316    1.386   .     A
N301   C314    1.367   .     A
N301   Cu311   2.038   .     S
N302   C315    1.382   .     A
N302   Cu312   2.038   .     S
N302   C313    1.374   .     A
C303   C342    1.449   .     S
C304   C341    1.448   .     S
O305   Cu311   1.963   .     S
O305   C309    1.315   .     A
O306   Cu312   1.963   .     S
O306   C310    1.308   .     A
O307   Cu311   1.960   .     S
O307   C310    1.301   .     A
O308   Cu312   1.960   .     S
O308   C309    1.309   .     A
C309   C333    1.495   .     S
C310   C334    1.471   .     S
Cu311  Cu312   2.712   .     S
C313   N343    1.434   .     S
C314   N346    1.430   .     S
C314   C537    1.425   .     S
C315   N349    1.423   .     S
C316   N352    1.443   .     S
C316   C535    1.419   .     S
C317   H335    1.084   .     S
C317   C342    1.400   .     A
C318   H336    1.084   .     S
C318   C341    1.399   .     A
C318   C394    1.383   .     S
C319   H337    1.077   .     S
C319   C341    1.398   .     A
C319   C391    1.386   .     S
C320   H338    1.077   .     S
C320   C342    1.399   .     A
C321   C339    1.391   .     A
C321   H325    1.084   .     S
C321   C329    1.399   .     A
C322   C340    1.393   .     A
C322   H326    1.085   .     S
C322   C330    1.392   .     A
C323   C340    1.396   .     A
C323   C331    1.400   .     A
C323   H327    1.084   .     S
C324   C339    1.391   .     A
C324   H328    1.085   .     S
C324   C332    1.394   .     A
C329   C333    1.428   .     A
C329   C355    1.509   .     S
C330   C359    1.501   .     S
C330   C334    1.416   .     A
C331   C363    1.510   .     S
C331   C334    1.420   .     A
C332   C367    1.510   .     S
C332   C333    1.430   .     A
C339   C1006   1.462   1_554 S
C340   C1005   1.462   .     S
N343   O344    1.299   .     A
N343   O345    1.301   .     A
N346   O348    1.300   .     A
N346   O347    1.301   .     A
N349   O351    1.301   .     A
N349   O350    1.299   .     A
N352   O353    1.293   .     A
N352   O354    1.302   .     A
C355   H356    1.111   .     S
C355   H357    1.111   .     S
C355   H358    1.099   .     S
C359   H361    1.111   .     S
C359   H362    1.111   .     S
C359   H360    1.108   .     S
C363   H366    1.110   .     S
C363   H364    1.111   .     S
C363   H365    1.111   .     S
C367   H370    1.111   .     S
C367   H368    1.110   .     S
C367   H369    1.100   .     S
O371   Cu385   1.965   .     S
O371   C377    1.302   .     A
O372   Cu386   1.965   .     S
O372   C378    1.305   .     A
O373   C378    1.296   .     A
O373   Cu385   1.956   .     S
O374   Cu386   1.956   .     S
O374   C377    1.300   .     A
N375   C390    1.386   .     A
N375   C388    1.367   .     A
N375   Cu385   2.038   .     S
N376   C389    1.382   .     A
N376   Cu386   2.038   .     S
N376   C387    1.374   .     A
C377   C416    1.449   .     S
C378   C415    1.448   .     S
O379   Cu385   1.963   .     S
O379   C383    1.315   .     A
O380   Cu386   1.963   .     S
O380   C384    1.308   .     A
O381   Cu385   1.960   .     S
O381   C384    1.301   .     A
O382   Cu386   1.960   .     S
O382   C383    1.309   .     A
C383   C407    1.495   .     S
C384   C408    1.471   .     S
Cu385  Cu386   2.712   .     S
C387   N417    1.434   .     S
C388   N420    1.430   .     S
C388   C611    1.425   .     S
C389   N423    1.423   .     S
C390   N426    1.443   .     S
C390   C609    1.419   .     S
C391   H409    1.084   .     S
C391   C416    1.400   .     A
C392   H410    1.084   .     S
C392   C415    1.399   .     A
C392   C246    1.383   1_655 S
C393   H411    1.077   .     S
C393   C415    1.398   .     A
C393   C243    1.386   1_655 S
C394   H412    1.077   .     S
C394   C416    1.399   .     A
C395   C413    1.391   .     A
C395   H399    1.084   .     S
C395   C403    1.399   .     A
C396   C414    1.393   .     A
C396   H400    1.085   .     S
C396   C404    1.392   .     A
C397   C414    1.396   .     A
C397   C405    1.400   .     A
C397   H401    1.084   .     S
C398   C413    1.391   .     A
C398   H402    1.085   .     S
C398   C406    1.394   .     A
C403   C407    1.428   .     A
C403   C429    1.509   .     S
C404   C433    1.501   .     S
C404   C408    1.416   .     A
C405   C437    1.510   .     S
C405   C408    1.420   .     A
C406   C441    1.510   .     S
C406   C407    1.430   .     A
C413   C1080   1.462   1_554 S
C414   C1079   1.462   .     S
N417   O418    1.299   .     A
N417   O419    1.301   .     A
N420   O422    1.300   .     A
N420   O421    1.301   .     A
N423   O425    1.301   .     A
N423   O424    1.299   .     A
N426   O427    1.293   .     A
N426   O428    1.302   .     A
C429   H430    1.111   .     S
C429   H431    1.111   .     S
C429   H432    1.099   .     S
C433   H435    1.111   .     S
C433   H436    1.111   .     S
C433   H434    1.108   .     S
C437   H440    1.110   .     S
C437   H438    1.111   .     S
C437   H439    1.111   .     S
C441   H444    1.111   .     S
C441   H442    1.110   .     S
C441   H443    1.100   .     S
O445   Cu459   1.965   .     S
O445   C451    1.302   .     A
O446   Cu460   1.965   .     S
O446   C452    1.305   .     A
O447   C452    1.296   .     A
O447   Cu459   1.956   .     S
O448   Cu460   1.956   .     S
O448   C451    1.300   .     A
N449   C464    1.386   .     A
N449   C462    1.367   .     A
N449   Cu459   2.038   .     S
N450   C463    1.382   .     A
N450   Cu460   2.038   .     S
N450   C461    1.374   .     A
C451   C490    1.449   .     S
C452   C489    1.448   .     S
O453   Cu459   1.963   .     S
O453   C457    1.315   .     A
O454   Cu460   1.963   .     S
O454   C458    1.308   .     A
O455   Cu459   1.960   .     S
O455   C458    1.301   .     A
O456   Cu460   1.960   .     S
O456   C457    1.309   .     A
C457   C481    1.495   .     S
C458   C482    1.471   .     S
Cu459  Cu460   2.712   .     S
C461   N491    1.434   .     S
C462   N494    1.430   .     S
C462   C19     1.425   1_565 S
C463   N497    1.423   .     S
C464   N500    1.443   .     S
C464   C17     1.419   1_565 S
C465   H483    1.084   .     S
C465   C490    1.400   .     A
C465   C615    1.386   1_455 S
C466   H484    1.084   .     S
C466   C489    1.399   .     A
C466   C542    1.383   .     S
C467   H485    1.077   .     S
C467   C489    1.398   .     A
C467   C539    1.386   .     S
C468   H486    1.077   .     S
C468   C490    1.399   .     A
C468   C614    1.383   1_455 S
C469   C487    1.391   .     A
C469   H473    1.084   .     S
C469   C477    1.399   .     A
C470   C488    1.393   .     A
C470   H474    1.085   .     S
C470   C478    1.392   .     A
C471   C488    1.396   .     A
C471   C479    1.400   .     A
C471   H475    1.084   .     S
C472   C487    1.391   .     A
C472   H476    1.085   .     S
C472   C480    1.394   .     A
C477   C481    1.428   .     A
C477   C503    1.509   .     S
C478   C507    1.501   .     S
C478   C482    1.416   .     A
C479   C511    1.510   .     S
C479   C482    1.420   .     A
C480   C515    1.510   .     S
C480   C481    1.430   .     A
C487   C1154   1.462   1_554 S
C488   C1153   1.462   .     S
N491   O492    1.299   .     A
N491   O493    1.301   .     A
N494   O496    1.300   .     A
N494   O495    1.301   .     A
N497   O499    1.301   .     A
N497   O498    1.299   .     A
N500   O501    1.293   .     A
N500   O502    1.302   .     A
C503   H504    1.111   .     S
C503   H505    1.111   .     S
C503   H506    1.099   .     S
C507   H509    1.111   .     S
C507   H510    1.111   .     S
C507   H508    1.108   .     S
C511   H514    1.110   .     S
C511   H512    1.111   .     S
C511   H513    1.111   .     S
C515   H518    1.111   .     S
C515   H516    1.110   .     S
C515   H517    1.100   .     S
O519   Cu533   1.965   .     S
O519   C525    1.302   .     A
O520   Cu534   1.965   .     S
O520   C526    1.305   .     A
O521   C526    1.296   .     A
O521   Cu533   1.956   .     S
O522   Cu534   1.956   .     S
O522   C525    1.300   .     A
N523   C538    1.386   .     A
N523   C536    1.367   .     A
N523   Cu533   2.038   .     S
N524   C537    1.382   .     A
N524   Cu534   2.038   .     S
N524   C535    1.374   .     A
C525   C564    1.449   .     S
C526   C563    1.448   .     S
O527   Cu533   1.963   .     S
O527   C531    1.315   .     A
O528   Cu534   1.963   .     S
O528   C532    1.308   .     A
O529   Cu533   1.960   .     S
O529   C532    1.301   .     A
O530   Cu534   1.960   .     S
O530   C531    1.309   .     A
C531   C555    1.495   .     S
C532   C556    1.471   .     S
Cu533  Cu534   2.712   .     S
C535   N565    1.434   .     S
C536   N568    1.430   .     S
C536   C93     1.425   1_565 S
C537   N571    1.423   .     S
C538   N574    1.443   .     S
C538   C91     1.419   1_565 S
C539   H557    1.084   .     S
C539   C564    1.400   .     A
C540   H558    1.084   .     S
C540   C563    1.399   .     A
C540   C616    1.383   .     S
C541   H559    1.077   .     S
C541   C563    1.398   .     A
C541   C613    1.386   .     S
C542   H560    1.077   .     S
C542   C564    1.399   .     A
C543   C561    1.391   .     A
C543   H547    1.084   .     S
C543   C551    1.399   .     A
C544   C562    1.393   .     A
C544   H548    1.085   .     S
C544   C552    1.392   .     A
C545   C562    1.396   .     A
C545   C553    1.400   .     A
C545   H549    1.084   .     S
C546   C561    1.391   .     A
C546   H550    1.085   .     S
C546   C554    1.394   .     A
C551   C555    1.428   .     A
C551   C577    1.509   .     S
C552   C581    1.501   .     S
C552   C556    1.416   .     A
C553   C585    1.510   .     S
C553   C556    1.420   .     A
C554   C589    1.510   .     S
C554   C555    1.430   .     A
C561   C1228   1.462   1_554 S
C562   C1227   1.462   .     S
N565   O566    1.299   .     A
N565   O567    1.301   .     A
N568   O570    1.300   .     A
N568   O569    1.301   .     A
N571   O573    1.301   .     A
N571   O572    1.299   .     A
N574   O575    1.293   .     A
N574   O576    1.302   .     A
C577   H578    1.111   .     S
C577   H579    1.111   .     S
C577   H580    1.099   .     S
C581   H583    1.111   .     S
C581   H584    1.111   .     S
C581   H582    1.108   .     S
C585   H588    1.110   .     S
C585   H586    1.111   .     S
C585   H587    1.111   .     S
C589   H592    1.111   .     S
C589   H590    1.110   .     S
C589   H591    1.100   .     S
O593   Cu607   1.965   .     S
O593   C599    1.302   .     A
O594   Cu608   1.965   .     S
O594   C600    1.305   .     A
O595   C600    1.296   .     A
O595   Cu607   1.956   .     S
O596   Cu608   1.956   .     S
O596   C599    1.300   .     A
N597   C612    1.386   .     A
N597   C610    1.367   .     A
N597   Cu607   2.038   .     S
N598   C611    1.382   .     A
N598   Cu608   2.038   .     S
N598   C609    1.374   .     A
C599   C638    1.449   .     S
C600   C637    1.448   .     S
O601   Cu607   1.963   .     S
O601   C605    1.315   .     A
O602   Cu608   1.963   .     S
O602   C606    1.308   .     A
O603   Cu607   1.960   .     S
O603   C606    1.301   .     A
O604   Cu608   1.960   .     S
O604   C605    1.309   .     A
C605   C629    1.495   .     S
C606   C630    1.471   .     S
Cu607  Cu608   2.712   .     S
C609   N639    1.434   .     S
C610   N642    1.430   .     S
C610   C167    1.425   1_565 S
C611   N645    1.423   .     S
C612   N648    1.443   .     S
C612   C165    1.419   1_565 S
C613   H631    1.084   .     S
C613   C638    1.400   .     A
C614   H632    1.084   .     S
C614   C637    1.399   .     A
C614   C468    1.383   1_655 S
C615   H633    1.077   .     S
C615   C637    1.398   .     A
C615   C465    1.386   1_655 S
C616   H634    1.077   .     S
C616   C638    1.399   .     A
C617   C635    1.391   .     A
C617   H621    1.084   .     S
C617   C625    1.399   .     A
C618   C636    1.393   .     A
C618   H622    1.085   .     S
C618   C626    1.392   .     A
C619   C636    1.396   .     A
C619   C627    1.400   .     A
C619   H623    1.084   .     S
C620   C635    1.391   .     A
C620   H624    1.085   .     S
C620   C628    1.394   .     A
C625   C629    1.428   .     A
C625   C651    1.509   .     S
C626   C655    1.501   .     S
C626   C630    1.416   .     A
C627   C659    1.510   .     S
C627   C630    1.420   .     A
C628   C663    1.510   .     S
C628   C629    1.430   .     A
C635   C1302   1.462   1_554 S
C636   C1301   1.462   .     S
N639   O640    1.299   .     A
N639   O641    1.301   .     A
N642   O644    1.300   .     A
N642   O643    1.301   .     A
N645   O647    1.301   .     A
N645   O646    1.299   .     A
N648   O649    1.293   .     A
N648   O650    1.302   .     A
C651   H652    1.111   .     S
C651   H653    1.111   .     S
C651   H654    1.099   .     S
C655   H657    1.111   .     S
C655   H658    1.111   .     S
C655   H656    1.108   .     S
C659   H662    1.110   .     S
C659   H660    1.111   .     S
C659   H661    1.111   .     S
C663   H666    1.111   .     S
C663   H664    1.110   .     S
C663   H665    1.100   .     S
O667   Cu681   1.965   .     S
O667   C673    1.302   .     A
O668   Cu682   1.965   .     S
O668   C674    1.305   .     A
O669   C674    1.296   .     A
O669   Cu681   1.956   .     S
O670   Cu682   1.956   .     S
O670   C673    1.300   .     A
N671   C686    1.386   .     A
N671   C684    1.367   .     A
N671   Cu681   2.038   .     S
N672   C685    1.382   .     A
N672   Cu682   2.038   .     S
N672   C683    1.374   .     A
C673   C712    1.449   .     S
C674   C711    1.448   .     S
O675   Cu681   1.963   .     S
O675   C679    1.315   .     A
O676   Cu682   1.963   .     S
O676   C680    1.308   .     A
O677   Cu681   1.960   .     S
O677   C680    1.301   .     A
O678   Cu682   1.960   .     S
O678   C679    1.309   .     A
C679   C703    1.495   .     S
C680   C704    1.471   .     S
Cu681  Cu682   2.712   .     S
C683   N713    1.434   .     S
C683   C1130   1.419   1_545 S
C684   N716    1.430   .     S
C684   C907    1.425   .     S
C685   N719    1.423   .     S
C685   C1128   1.425   1_545 S
C686   N722    1.443   .     S
C686   C905    1.419   .     S
C687   H705    1.084   .     S
C687   C712    1.400   .     A
C687   C837    1.386   1_455 S
C688   H706    1.084   .     S
C688   C711    1.399   .     A
C688   C764    1.383   .     S
C689   H707    1.077   .     S
C689   C711    1.398   .     A
C689   C761    1.386   .     S
C690   H708    1.077   .     S
C690   C712    1.399   .     A
C690   C836    1.383   1_455 S
C691   C709    1.391   .     A
C691   H695    1.084   .     S
C691   C699    1.399   .     A
C692   C710    1.393   .     A
C692   H696    1.085   .     S
C692   C700    1.392   .     A
C693   C710    1.396   .     A
C693   C701    1.400   .     A
C693   H697    1.084   .     S
C694   C709    1.391   .     A
C694   H698    1.085   .     S
C694   C702    1.394   .     A
C699   C703    1.428   .     A
C699   C725    1.509   .     S
C700   C729    1.501   .     S
C700   C704    1.416   .     A
C701   C733    1.510   .     S
C701   C704    1.420   .     A
C702   C737    1.510   .     S
C702   C703    1.430   .     A
C710   C43     1.462   1_556 S
N713   O714    1.299   .     A
N713   O715    1.301   .     A
N716   O718    1.300   .     A
N716   O717    1.301   .     A
N719   O721    1.301   .     A
N719   O720    1.299   .     A
N722   O723    1.293   .     A
N722   O724    1.302   .     A
C725   H726    1.111   .     S
C725   H727    1.111   .     S
C725   H728    1.099   .     S
C729   H731    1.111   .     S
C729   H732    1.111   .     S
C729   H730    1.108   .     S
C733   H736    1.110   .     S
C733   H734    1.111   .     S
C733   H735    1.111   .     S
C737   H740    1.111   .     S
C737   H738    1.110   .     S
C737   H739    1.100   .     S
O741   Cu755   1.965   .     S
O741   C747    1.302   .     A
O742   Cu756   1.965   .     S
O742   C748    1.305   .     A
O743   C748    1.296   .     A
O743   Cu755   1.956   .     S
O744   Cu756   1.956   .     S
O744   C747    1.300   .     A
N745   C760    1.386   .     A
N745   C758    1.367   .     A
N745   Cu755   2.038   .     S
N746   C759    1.382   .     A
N746   Cu756   2.038   .     S
N746   C757    1.374   .     A
C747   C786    1.449   .     S
C748   C785    1.448   .     S
O749   Cu755   1.963   .     S
O749   C753    1.315   .     A
O750   Cu756   1.963   .     S
O750   C754    1.308   .     A
O751   Cu755   1.960   .     S
O751   C754    1.301   .     A
O752   Cu756   1.960   .     S
O752   C753    1.309   .     A
C753   C777    1.495   .     S
C754   C778    1.471   .     S
Cu755  Cu756   2.712   .     S
C757   N787    1.434   .     S
C757   C1204   1.419   1_545 S
C758   N790    1.430   .     S
C758   C981    1.425   .     S
C759   N793    1.423   .     S
C759   C1202   1.425   1_545 S
C760   N796    1.443   .     S
C760   C979    1.419   .     S
C761   H779    1.084   .     S
C761   C786    1.400   .     A
C762   H780    1.084   .     S
C762   C785    1.399   .     A
C762   C838    1.383   .     S
C763   H781    1.077   .     S
C763   C785    1.398   .     A
C763   C835    1.386   .     S
C764   H782    1.077   .     S
C764   C786    1.399   .     A
C765   C783    1.391   .     A
C765   H769    1.084   .     S
C765   C773    1.399   .     A
C766   C784    1.393   .     A
C766   H770    1.085   .     S
C766   C774    1.392   .     A
C767   C784    1.396   .     A
C767   C775    1.400   .     A
C767   H771    1.084   .     S
C768   C783    1.391   .     A
C768   H772    1.085   .     S
C768   C776    1.394   .     A
C773   C777    1.428   .     A
C773   C799    1.509   .     S
C774   C803    1.501   .     S
C774   C778    1.416   .     A
C775   C807    1.510   .     S
C775   C778    1.420   .     A
C776   C811    1.510   .     S
C776   C777    1.430   .     A
C784   C117    1.462   1_556 S
N787   O788    1.299   .     A
N787   O789    1.301   .     A
N790   O792    1.300   .     A
N790   O791    1.301   .     A
N793   O795    1.301   .     A
N793   O794    1.299   .     A
N796   O797    1.293   .     A
N796   O798    1.302   .     A
C799   H800    1.111   .     S
C799   H801    1.111   .     S
C799   H802    1.099   .     S
C803   H805    1.111   .     S
C803   H806    1.111   .     S
C803   H804    1.108   .     S
C807   H810    1.110   .     S
C807   H808    1.111   .     S
C807   H809    1.111   .     S
C811   H814    1.111   .     S
C811   H812    1.110   .     S
C811   H813    1.100   .     S
O815   Cu829   1.965   .     S
O815   C821    1.302   .     A
O816   Cu830   1.965   .     S
O816   C822    1.305   .     A
O817   C822    1.296   .     A
O817   Cu829   1.956   .     S
O818   Cu830   1.956   .     S
O818   C821    1.300   .     A
N819   C834    1.386   .     A
N819   C832    1.367   .     A
N819   Cu829   2.038   .     S
N820   C833    1.382   .     A
N820   Cu830   2.038   .     S
N820   C831    1.374   .     A
C821   C860    1.449   .     S
C822   C859    1.448   .     S
O823   Cu829   1.963   .     S
O823   C827    1.315   .     A
O824   Cu830   1.963   .     S
O824   C828    1.308   .     A
O825   Cu829   1.960   .     S
O825   C828    1.301   .     A
O826   Cu830   1.960   .     S
O826   C827    1.309   .     A
C827   C851    1.495   .     S
C828   C852    1.471   .     S
Cu829  Cu830   2.712   .     S
C831   N861    1.434   .     S
C831   C1278   1.419   1_545 S
C832   N864    1.430   .     S
C832   C1055   1.425   .     S
C833   N867    1.423   .     S
C833   C1276   1.425   1_545 S
C834   N870    1.443   .     S
C834   C1053   1.419   .     S
C835   H853    1.084   .     S
C835   C860    1.400   .     A
C836   H854    1.084   .     S
C836   C859    1.399   .     A
C836   C690    1.383   1_655 S
C837   H855    1.077   .     S
C837   C859    1.398   .     A
C837   C687    1.386   1_655 S
C838   H856    1.077   .     S
C838   C860    1.399   .     A
C839   C857    1.391   .     A
C839   H843    1.084   .     S
C839   C847    1.399   .     A
C840   C858    1.393   .     A
C840   H844    1.085   .     S
C840   C848    1.392   .     A
C841   C858    1.396   .     A
C841   C849    1.400   .     A
C841   H845    1.084   .     S
C842   C857    1.391   .     A
C842   H846    1.085   .     S
C842   C850    1.394   .     A
C847   C851    1.428   .     A
C847   C873    1.509   .     S
C848   C877    1.501   .     S
C848   C852    1.416   .     A
C849   C881    1.510   .     S
C849   C852    1.420   .     A
C850   C885    1.510   .     S
C850   C851    1.430   .     A
C858   C191    1.462   1_556 S
N861   O862    1.299   .     A
N861   O863    1.301   .     A
N864   O866    1.300   .     A
N864   O865    1.301   .     A
N867   O869    1.301   .     A
N867   O868    1.299   .     A
N870   O871    1.293   .     A
N870   O872    1.302   .     A
C873   H874    1.111   .     S
C873   H875    1.111   .     S
C873   H876    1.099   .     S
C877   H879    1.111   .     S
C877   H880    1.111   .     S
C877   H878    1.108   .     S
C881   H884    1.110   .     S
C881   H882    1.111   .     S
C881   H883    1.111   .     S
C885   H888    1.111   .     S
C885   H886    1.110   .     S
C885   H887    1.100   .     S
O889   Cu903   1.965   .     S
O889   C895    1.302   .     A
O890   Cu904   1.965   .     S
O890   C896    1.305   .     A
O891   C896    1.296   .     A
O891   Cu903   1.956   .     S
O892   Cu904   1.956   .     S
O892   C895    1.300   .     A
N893   C908    1.386   .     A
N893   C906    1.367   .     A
N893   Cu903   2.038   .     S
N894   C907    1.382   .     A
N894   Cu904   2.038   .     S
N894   C905    1.374   .     A
C895   C934    1.449   .     S
C896   C933    1.448   .     S
O897   Cu903   1.963   .     S
O897   C901    1.315   .     A
O898   Cu904   1.963   .     S
O898   C902    1.308   .     A
O899   Cu903   1.960   .     S
O899   C902    1.301   .     A
O900   Cu904   1.960   .     S
O900   C901    1.309   .     A
C901   C925    1.495   .     S
C902   C926    1.471   .     S
Cu903  Cu904   2.712   .     S
C905   N935    1.434   .     S
C906   N938    1.430   .     S
C906   C1129   1.425   .     S
C907   N941    1.423   .     S
C908   N944    1.443   .     S
C908   C1127   1.419   .     S
C909   H927    1.084   .     S
C909   C934    1.400   .     A
C909   C1059   1.386   1_455 S
C910   H928    1.084   .     S
C910   C933    1.399   .     A
C910   C986    1.383   .     S
C911   H929    1.077   .     S
C911   C933    1.398   .     A
C911   C983    1.386   .     S
C912   H930    1.077   .     S
C912   C934    1.399   .     A
C912   C1058   1.383   1_455 S
C913   C931    1.391   .     A
C913   H917    1.084   .     S
C913   C921    1.399   .     A
C914   C932    1.393   .     A
C914   H918    1.085   .     S
C914   C922    1.392   .     A
C915   C932    1.396   .     A
C915   C923    1.400   .     A
C915   H919    1.084   .     S
C916   C931    1.391   .     A
C916   H920    1.085   .     S
C916   C924    1.394   .     A
C921   C925    1.428   .     A
C921   C947    1.509   .     S
C922   C951    1.501   .     S
C922   C926    1.416   .     A
C923   C955    1.510   .     S
C923   C926    1.420   .     A
C924   C959    1.510   .     S
C924   C925    1.430   .     A
C932   C265    1.462   1_556 S
N935   O936    1.299   .     A
N935   O937    1.301   .     A
N938   O940    1.300   .     A
N938   O939    1.301   .     A
N941   O943    1.301   .     A
N941   O942    1.299   .     A
N944   O945    1.293   .     A
N944   O946    1.302   .     A
C947   H948    1.111   .     S
C947   H949    1.111   .     S
C947   H950    1.099   .     S
C951   H953    1.111   .     S
C951   H954    1.111   .     S
C951   H952    1.108   .     S
C955   H958    1.110   .     S
C955   H956    1.111   .     S
C955   H957    1.111   .     S
C959   H962    1.111   .     S
C959   H960    1.110   .     S
C959   H961    1.100   .     S
O963   Cu977   1.965   .     S
O963   C969    1.302   .     A
O964   Cu978   1.965   .     S
O964   C970    1.305   .     A
O965   C970    1.296   .     A
O965   Cu977   1.956   .     S
O966   Cu978   1.956   .     S
O966   C969    1.300   .     A
N967   C982    1.386   .     A
N967   C980    1.367   .     A
N967   Cu977   2.038   .     S
N968   C981    1.382   .     A
N968   Cu978   2.038   .     S
N968   C979    1.374   .     A
C969   C1008   1.449   .     S
C970   C1007   1.448   .     S
O971   Cu977   1.963   .     S
O971   C975    1.315   .     A
O972   Cu978   1.963   .     S
O972   C976    1.308   .     A
O973   Cu977   1.960   .     S
O973   C976    1.301   .     A
O974   Cu978   1.960   .     S
O974   C975    1.309   .     A
C975   C999    1.495   .     S
C976   C1000   1.471   .     S
Cu977  Cu978   2.712   .     S
C979   N1009   1.434   .     S
C980   N1012   1.430   .     S
C980   C1203   1.425   .     S
C981   N1015   1.423   .     S
C982   N1018   1.443   .     S
C982   C1201   1.419   .     S
C983   H1001   1.084   .     S
C983   C1008   1.400   .     A
C984   H1002   1.084   .     S
C984   C1007   1.399   .     A
C984   C1060   1.383   .     S
C985   H1003   1.077   .     S
C985   C1007   1.398   .     A
C985   C1057   1.386   .     S
C986   H1004   1.077   .     S
C986   C1008   1.399   .     A
C987   C1005   1.391   .     A
C987   H991    1.084   .     S
C987   C995    1.399   .     A
C988   C1006   1.393   .     A
C988   H992    1.085   .     S
C988   C996    1.392   .     A
C989   C1006   1.396   .     A
C989   C997    1.400   .     A
C989   H993    1.084   .     S
C990   C1005   1.391   .     A
C990   H994    1.085   .     S
C990   C998    1.394   .     A
C995   C999    1.428   .     A
C995   C1021   1.509   .     S
C996   C1025   1.501   .     S
C996   C1000   1.416   .     A
C997   C1029   1.510   .     S
C997   C1000   1.420   .     A
C998   C1033   1.510   .     S
C998   C999    1.430   .     A
C1006  C339    1.462   1_556 S
N1009  O1010   1.299   .     A
N1009  O1011   1.301   .     A
N1012  O1014   1.300   .     A
N1012  O1013   1.301   .     A
N1015  O1017   1.301   .     A
N1015  O1016   1.299   .     A
N1018  O1019   1.293   .     A
N1018  O1020   1.302   .     A
C1021  H1022   1.111   .     S
C1021  H1023   1.111   .     S
C1021  H1024   1.099   .     S
C1025  H1027   1.111   .     S
C1025  H1028   1.111   .     S
C1025  H1026   1.108   .     S
C1029  H1032   1.110   .     S
C1029  H1030   1.111   .     S
C1029  H1031   1.111   .     S
C1033  H1036   1.111   .     S
C1033  H1034   1.110   .     S
C1033  H1035   1.100   .     S
O1037  Cu1051  1.965   .     S
O1037  C1043   1.302   .     A
O1038  Cu1052  1.965   .     S
O1038  C1044   1.305   .     A
O1039  C1044   1.296   .     A
O1039  Cu1051  1.956   .     S
O1040  Cu1052  1.956   .     S
O1040  C1043   1.300   .     A
N1041  C1056   1.386   .     A
N1041  C1054   1.367   .     A
N1041  Cu1051  2.038   .     S
N1042  C1055   1.382   .     A
N1042  Cu1052  2.038   .     S
N1042  C1053   1.374   .     A
C1043  C1082   1.449   .     S
C1044  C1081   1.448   .     S
O1045  Cu1051  1.963   .     S
O1045  C1049   1.315   .     A
O1046  Cu1052  1.963   .     S
O1046  C1050   1.308   .     A
O1047  Cu1051  1.960   .     S
O1047  C1050   1.301   .     A
O1048  Cu1052  1.960   .     S
O1048  C1049   1.309   .     A
C1049  C1073   1.495   .     S
C1050  C1074   1.471   .     S
Cu1051 Cu1052  2.712   .     S
C1053  N1083   1.434   .     S
C1054  N1086   1.430   .     S
C1054  C1277   1.425   .     S
C1055  N1089   1.423   .     S
C1056  N1092   1.443   .     S
C1056  C1275   1.419   .     S
C1057  H1075   1.084   .     S
C1057  C1082   1.400   .     A
C1058  H1076   1.084   .     S
C1058  C1081   1.399   .     A
C1058  C912    1.383   1_655 S
C1059  H1077   1.077   .     S
C1059  C1081   1.398   .     A
C1059  C909    1.386   1_655 S
C1060  H1078   1.077   .     S
C1060  C1082   1.399   .     A
C1061  C1079   1.391   .     A
C1061  H1065   1.084   .     S
C1061  C1069   1.399   .     A
C1062  C1080   1.393   .     A
C1062  H1066   1.085   .     S
C1062  C1070   1.392   .     A
C1063  C1080   1.396   .     A
C1063  C1071   1.400   .     A
C1063  H1067   1.084   .     S
C1064  C1079   1.391   .     A
C1064  H1068   1.085   .     S
C1064  C1072   1.394   .     A
C1069  C1073   1.428   .     A
C1069  C1095   1.509   .     S
C1070  C1099   1.501   .     S
C1070  C1074   1.416   .     A
C1071  C1103   1.510   .     S
C1071  C1074   1.420   .     A
C1072  C1107   1.510   .     S
C1072  C1073   1.430   .     A
C1080  C413    1.462   1_556 S
N1083  O1084   1.299   .     A
N1083  O1085   1.301   .     A
N1086  O1088   1.300   .     A
N1086  O1087   1.301   .     A
N1089  O1091   1.301   .     A
N1089  O1090   1.299   .     A
N1092  O1093   1.293   .     A
N1092  O1094   1.302   .     A
C1095  H1096   1.111   .     S
C1095  H1097   1.111   .     S
C1095  H1098   1.099   .     S
C1099  H1101   1.111   .     S
C1099  H1102   1.111   .     S
C1099  H1100   1.108   .     S
C1103  H1106   1.110   .     S
C1103  H1104   1.111   .     S
C1103  H1105   1.111   .     S
C1107  H1110   1.111   .     S
C1107  H1108   1.110   .     S
C1107  H1109   1.100   .     S
O1111  Cu1125  1.965   .     S
O1111  C1117   1.302   .     A
O1112  Cu1126  1.965   .     S
O1112  C1118   1.305   .     A
O1113  C1118   1.296   .     A
O1113  Cu1125  1.956   .     S
O1114  Cu1126  1.956   .     S
O1114  C1117   1.300   .     A
N1115  C1130   1.386   .     A
N1115  C1128   1.367   .     A
N1115  Cu1125  2.038   .     S
N1116  C1129   1.382   .     A
N1116  Cu1126  2.038   .     S
N1116  C1127   1.374   .     A
C1117  C1156   1.449   .     S
C1118  C1155   1.448   .     S
O1119  Cu1125  1.963   .     S
O1119  C1123   1.315   .     A
O1120  Cu1126  1.963   .     S
O1120  C1124   1.308   .     A
O1121  Cu1125  1.960   .     S
O1121  C1124   1.301   .     A
O1122  Cu1126  1.960   .     S
O1122  C1123   1.309   .     A
C1123  C1147   1.495   .     S
C1124  C1148   1.471   .     S
Cu1125 Cu1126  2.712   .     S
C1127  N1157   1.434   .     S
C1128  N1160   1.430   .     S
C1128  C685    1.425   1_565 S
C1129  N1163   1.423   .     S
C1130  N1166   1.443   .     S
C1130  C683    1.419   1_565 S
C1131  H1149   1.084   .     S
C1131  C1156   1.400   .     A
C1131  C1281   1.386   1_455 S
C1132  H1150   1.084   .     S
C1132  C1155   1.399   .     A
C1132  C1208   1.383   .     S
C1133  H1151   1.077   .     S
C1133  C1155   1.398   .     A
C1133  C1205   1.386   .     S
C1134  H1152   1.077   .     S
C1134  C1156   1.399   .     A
C1134  C1280   1.383   1_455 S
C1135  C1153   1.391   .     A
C1135  H1139   1.084   .     S
C1135  C1143   1.399   .     A
C1136  C1154   1.393   .     A
C1136  H1140   1.085   .     S
C1136  C1144   1.392   .     A
C1137  C1154   1.396   .     A
C1137  C1145   1.400   .     A
C1137  H1141   1.084   .     S
C1138  C1153   1.391   .     A
C1138  H1142   1.085   .     S
C1138  C1146   1.394   .     A
C1143  C1147   1.428   .     A
C1143  C1169   1.509   .     S
C1144  C1173   1.501   .     S
C1144  C1148   1.416   .     A
C1145  C1177   1.510   .     S
C1145  C1148   1.420   .     A
C1146  C1181   1.510   .     S
C1146  C1147   1.430   .     A
C1154  C487    1.462   1_556 S
N1157  O1158   1.299   .     A
N1157  O1159   1.301   .     A
N1160  O1162   1.300   .     A
N1160  O1161   1.301   .     A
N1163  O1165   1.301   .     A
N1163  O1164   1.299   .     A
N1166  O1167   1.293   .     A
N1166  O1168   1.302   .     A
C1169  H1170   1.111   .     S
C1169  H1171   1.111   .     S
C1169  H1172   1.099   .     S
C1173  H1175   1.111   .     S
C1173  H1176   1.111   .     S
C1173  H1174   1.108   .     S
C1177  H1180   1.110   .     S
C1177  H1178   1.111   .     S
C1177  H1179   1.111   .     S
C1181  H1184   1.111   .     S
C1181  H1182   1.110   .     S
C1181  H1183   1.100   .     S
O1185  Cu1199  1.965   .     S
O1185  C1191   1.302   .     A
O1186  Cu1200  1.965   .     S
O1186  C1192   1.305   .     A
O1187  C1192   1.296   .     A
O1187  Cu1199  1.956   .     S
O1188  Cu1200  1.956   .     S
O1188  C1191   1.300   .     A
N1189  C1204   1.386   .     A
N1189  C1202   1.367   .     A
N1189  Cu1199  2.038   .     S
N1190  C1203   1.382   .     A
N1190  Cu1200  2.038   .     S
N1190  C1201   1.374   .     A
C1191  C1230   1.449   .     S
C1192  C1229   1.448   .     S
O1193  Cu1199  1.963   .     S
O1193  C1197   1.315   .     A
O1194  Cu1200  1.963   .     S
O1194  C1198   1.308   .     A
O1195  Cu1199  1.960   .     S
O1195  C1198   1.301   .     A
O1196  Cu1200  1.960   .     S
O1196  C1197   1.309   .     A
C1197  C1221   1.495   .     S
C1198  C1222   1.471   .     S
Cu1199 Cu1200  2.712   .     S
C1201  N1231   1.434   .     S
C1202  N1234   1.430   .     S
C1202  C759    1.425   1_565 S
C1203  N1237   1.423   .     S
C1204  N1240   1.443   .     S
C1204  C757    1.419   1_565 S
C1205  H1223   1.084   .     S
C1205  C1230   1.400   .     A
C1206  H1224   1.084   .     S
C1206  C1229   1.399   .     A
C1206  C1282   1.383   .     S
C1207  H1225   1.077   .     S
C1207  C1229   1.398   .     A
C1207  C1279   1.386   .     S
C1208  H1226   1.077   .     S
C1208  C1230   1.399   .     A
C1209  C1227   1.391   .     A
C1209  H1213   1.084   .     S
C1209  C1217   1.399   .     A
C1210  C1228   1.393   .     A
C1210  H1214   1.085   .     S
C1210  C1218   1.392   .     A
C1211  C1228   1.396   .     A
C1211  C1219   1.400   .     A
C1211  H1215   1.084   .     S
C1212  C1227   1.391   .     A
C1212  H1216   1.085   .     S
C1212  C1220   1.394   .     A
C1217  C1221   1.428   .     A
C1217  C1243   1.509   .     S
C1218  C1247   1.501   .     S
C1218  C1222   1.416   .     A
C1219  C1251   1.510   .     S
C1219  C1222   1.420   .     A
C1220  C1255   1.510   .     S
C1220  C1221   1.430   .     A
C1228  C561    1.462   1_556 S
N1231  O1232   1.299   .     A
N1231  O1233   1.301   .     A
N1234  O1236   1.300   .     A
N1234  O1235   1.301   .     A
N1237  O1239   1.301   .     A
N1237  O1238   1.299   .     A
N1240  O1241   1.293   .     A
N1240  O1242   1.302   .     A
C1243  H1244   1.111   .     S
C1243  H1245   1.111   .     S
C1243  H1246   1.099   .     S
C1247  H1249   1.111   .     S
C1247  H1250   1.111   .     S
C1247  H1248   1.108   .     S
C1251  H1254   1.110   .     S
C1251  H1252   1.111   .     S
C1251  H1253   1.111   .     S
C1255  H1258   1.111   .     S
C1255  H1256   1.110   .     S
C1255  H1257   1.100   .     S
O1259  Cu1273  1.965   .     S
O1259  C1265   1.302   .     A
O1260  Cu1274  1.965   .     S
O1260  C1266   1.305   .     A
O1261  C1266   1.296   .     A
O1261  Cu1273  1.956   .     S
O1262  Cu1274  1.956   .     S
O1262  C1265   1.300   .     A
N1263  C1278   1.386   .     A
N1263  C1276   1.367   .     A
N1263  Cu1273  2.038   .     S
N1264  C1277   1.382   .     A
N1264  Cu1274  2.038   .     S
N1264  C1275   1.374   .     A
C1265  C1304   1.449   .     S
C1266  C1303   1.448   .     S
O1267  Cu1273  1.963   .     S
O1267  C1271   1.315   .     A
O1268  Cu1274  1.963   .     S
O1268  C1272   1.308   .     A
O1269  Cu1273  1.960   .     S
O1269  C1272   1.301   .     A
O1270  Cu1274  1.960   .     S
O1270  C1271   1.309   .     A
C1271  C1295   1.495   .     S
C1272  C1296   1.471   .     S
Cu1273 Cu1274  2.712   .     S
C1275  N1305   1.434   .     S
C1276  N1308   1.430   .     S
C1276  C833    1.425   1_565 S
C1277  N1311   1.423   .     S
C1278  N1314   1.443   .     S
C1278  C831    1.419   1_565 S
C1279  H1297   1.084   .     S
C1279  C1304   1.400   .     A
C1280  H1298   1.084   .     S
C1280  C1303   1.399   .     A
C1280  C1134   1.383   1_655 S
C1281  H1299   1.077   .     S
C1281  C1303   1.398   .     A
C1281  C1131   1.386   1_655 S
C1282  H1300   1.077   .     S
C1282  C1304   1.399   .     A
C1283  C1301   1.391   .     A
C1283  H1287   1.084   .     S
C1283  C1291   1.399   .     A
C1284  C1302   1.393   .     A
C1284  H1288   1.085   .     S
C1284  C1292   1.392   .     A
C1285  C1302   1.396   .     A
C1285  C1293   1.400   .     A
C1285  H1289   1.084   .     S
C1286  C1301   1.391   .     A
C1286  H1290   1.085   .     S
C1286  C1294   1.394   .     A
C1291  C1295   1.428   .     A
C1291  C1317   1.509   .     S
C1292  C1321   1.501   .     S
C1292  C1296   1.416   .     A
C1293  C1325   1.510   .     S
C1293  C1296   1.420   .     A
C1294  C1329   1.510   .     S
C1294  C1295   1.430   .     A
C1302  C635    1.462   1_556 S
N1305  O1306   1.299   .     A
N1305  O1307   1.301   .     A
N1308  O1310   1.300   .     A
N1308  O1309   1.301   .     A
N1311  O1313   1.301   .     A
N1311  O1312   1.299   .     A
N1314  O1315   1.293   .     A
N1314  O1316   1.302   .     A
C1317  H1318   1.111   .     S
C1317  H1319   1.111   .     S
C1317  H1320   1.099   .     S
C1321  H1323   1.111   .     S
C1321  H1324   1.111   .     S
C1321  H1322   1.108   .     S
C1325  H1328   1.110   .     S
C1325  H1326   1.111   .     S
C1325  H1327   1.111   .     S
C1329  H1332   1.111   .     S
C1329  H1330   1.110   .     S
C1329  H1331   1.100   .     S
