data_str_m2_o1_o18_pcu_sym.93
_audit_creation_date              2020-01-03
_audit_creation_method            'Materials Studio'
_symmetry_space_group_name_H-M    'P1'
_symmetry_Int_Tables_number       1
_symmetry_cell_setting            triclinic
loop_
_symmetry_equiv_pos_as_xyz
  x,y,z
_cell_length_a                    28.9877
_cell_length_b                    32.4780
_cell_length_c                    31.7453
_cell_angle_alpha                 89.8003
_cell_angle_beta                  71.2427
_cell_angle_gamma                 89.8538
loop_
_atom_site_label
_atom_site_type_symbol
_atom_site_fract_x
_atom_site_fract_y
_atom_site_fract_z
_atom_site_U_iso_or_equiv
_atom_site_adp_type
_atom_site_occupancy
C1     C     0.33333   0.08752   0.25030   0.00000  Uiso   1.00
C2     C     0.03611   0.02080   0.26203   0.00000  Uiso   1.00
C3     C     0.33320   0.29050   0.24950   0.00000  Uiso   1.00
C4     C     0.00020   0.04282   0.25036   0.00000  Uiso   1.00
C5     C     0.18107   0.14322   0.28002   0.00000  Uiso   1.00
C6     C     0.15180   0.19143   0.22123   0.00000  Uiso   1.00
C7     C     0.13177   0.14265   0.27898   0.00000  Uiso   1.00
C8     C     0.20164   0.19043   0.22076   0.00000  Uiso   1.00
C9     C     0.30491   0.16745   0.33558   0.00000  Uiso   1.00
C10    C     0.02843   0.16748   0.16441   0.00000  Uiso   1.00
C11    C     0.28731   0.17164   0.38389   0.00000  Uiso   1.00
C12    C     0.00003   0.24581   0.24965   0.00000  Uiso   1.00
C13    C     0.04605   0.17166   0.11607   0.00000  Uiso   1.00
C14    C     0.30117   0.16714   0.45420   0.00000  Uiso   1.00
C15    C     0.03225   0.16720   0.04578   0.00000  Uiso   1.00
C16    C     0.31697   0.16044   0.40879   0.00000  Uiso   1.00
C17    C     0.01637   0.16062   0.09124   0.00000  Uiso   1.00
C18    C     0.24036   0.18685   0.40535   0.00000  Uiso   1.00
C19    C     0.09307   0.18662   0.09450   0.00000  Uiso   1.00
C20    C     0.22362   0.19294   0.45181   0.00000  Uiso   1.00
C21    C     0.10977   0.19282   0.04802   0.00000  Uiso   1.00
C22    C     0.25674   0.18665   0.47546   0.00000  Uiso   1.00
C23    C     0.19502   0.20446   0.04432   0.00000  Uiso   1.00
C24    C     0.07667   0.18658   0.02440   0.00000  Uiso   1.00
C25    C     0.17414   0.20077   0.47624   0.00000  Uiso   1.00
C26    C     0.15922   0.20072   0.02356   0.00000  Uiso   1.00
C27    C     0.28214   0.24422   0.05222   0.00000  Uiso   1.00
C28    C     0.05031   0.24426   0.44835   0.00000  Uiso   1.00
C29    C     0.16368   0.12201   0.35295   0.00000  Uiso   1.00
C30    C     0.15450   0.25580   0.18936   0.00000  Uiso   1.00
C31    C     0.13833   0.20448   0.45547   0.00000  Uiso   1.00
C32    C     0.24390   0.19880   0.02013   0.00000  Uiso   1.00
C33    C     0.08951   0.19868   0.47964   0.00000  Uiso   1.00
C34    C     0.29756   0.02177   0.23836   0.00000  Uiso   1.00
C35    C     0.03583   0.31154   0.26150   0.00000  Uiso   1.00
C36    C     0.29731   0.31251   0.23778   0.00000  Uiso   1.00
Cu37   Cu    0.04689   0.16667   0.25000   0.00000  Uiso   1.00
Cu38   Cu    0.28645   0.16666   0.25000   0.00000  Uiso   1.00
F39    F     0.26251   0.29314   0.22502   0.00000  Uiso   1.00
F40    F     0.07093   0.04015   0.27477   0.00000  Uiso   1.00
H41    H     0.11577   0.19289   0.11465   0.00000  Uiso   1.00
H42    H     0.06348   0.29508   0.27107   0.00000  Uiso   1.00
H43    H     0.10507   0.12266   0.30127   0.00000  Uiso   1.00
H44    H     0.22896   0.20859   0.19672   0.00000  Uiso   1.00
H45    H     0.31532   0.24800   0.06202   0.00000  Uiso   1.00
H46    H     0.25049   0.25332   0.08123   0.00000  Uiso   1.00
H47    H     0.28571   0.26530   0.02358   0.00000  Uiso   1.00
H48    H     0.08202   0.25433   0.41986   0.00000  Uiso   1.00
H49    H     0.04572   0.26467   0.47756   0.00000  Uiso   1.00
H50    H     0.01733   0.24788   0.43817   0.00000  Uiso   1.00
H51    H     0.13184   0.10128   0.35867   0.00000  Uiso   1.00
H52    H     0.21776   0.19347   0.38511   0.00000  Uiso   1.00
H53    H     0.15147   0.15436   0.36160   0.00000  Uiso   1.00
H54    H     0.18339   0.11221   0.37603   0.00000  Uiso   1.00
H55    H     0.19258   0.25836   0.16669   0.00000  Uiso   1.00
H56    H     0.15124   0.26798   0.22299   0.00000  Uiso   1.00
H57    H     0.13162   0.27563   0.17553   0.00000  Uiso   1.00
H58    H     0.31440   0.14662   0.10685   0.00000  Uiso   1.00
H59    H     0.01892   0.14630   0.39326   0.00000  Uiso   1.00
H60    H     0.32306   0.15509   0.47245   0.00000  Uiso   1.00
H61    H     0.01040   0.15517   0.02758   0.00000  Uiso   1.00
H62    H     0.18628   0.20999   0.07945   0.00000  Uiso   1.00
H63    H     0.14702   0.21018   0.42034   0.00000  Uiso   1.00
H64    H     0.26984   0.03823   0.22888   0.00000  Uiso   1.00
N65    N     0.11736   0.16668   0.24999   0.00000  Uiso   1.00
N66    N     0.21597   0.16666   0.25001   0.00000  Uiso   1.00
O67    O     0.03958   0.10655   0.25000   0.00000  Uiso   1.00
O68    O     0.05471   0.20245   0.45881   0.00000  Uiso   1.00
O69    O     0.19556   0.11808   0.30890   0.00000  Uiso   1.00
O70    O     0.13777   0.21487   0.19080   0.00000  Uiso   1.00
O71    O     0.29375   0.22678   0.25000   0.00000  Uiso   1.00
O72    O     0.29372   0.10654   0.25001   0.00000  Uiso   1.00
O73    O     0.03961   0.22679   0.24999   0.00000  Uiso   1.00
O74    O     0.01852   0.16668   0.31491   0.00000  Uiso   1.00
O75    O     0.31481   0.16666   0.18509   0.00000  Uiso   1.00
O76    O     0.27267   0.16667   0.31492   0.00000  Uiso   1.00
O77    O     0.06067   0.16667   0.18508   0.00000  Uiso   1.00
O78    O     0.27874   0.20258   0.04088   0.00000  Uiso   1.00
C79    C     0.66666   0.08752   0.25030   0.00000  Uiso   1.00
C80    C     0.36945   0.02080   0.26203   0.00000  Uiso   1.00
C81    C     0.66653   0.29050   0.24950   0.00000  Uiso   1.00
C82    C     0.33353   0.04282   0.25036   0.00000  Uiso   1.00
C83    C     0.51440   0.14322   0.28002   0.00000  Uiso   1.00
C84    C     0.48513   0.19143   0.22123   0.00000  Uiso   1.00
C85    C     0.46510   0.14265   0.27898   0.00000  Uiso   1.00
C86    C     0.53498   0.19043   0.22076   0.00000  Uiso   1.00
C87    C     0.63824   0.16745   0.33558   0.00000  Uiso   1.00
C88    C     0.36176   0.16748   0.16441   0.00000  Uiso   1.00
C89    C     0.62064   0.17164   0.38389   0.00000  Uiso   1.00
C90    C     0.33336   0.24581   0.24965   0.00000  Uiso   1.00
C91    C     0.37938   0.17166   0.11607   0.00000  Uiso   1.00
C92    C     0.63450   0.16714   0.45420   0.00000  Uiso   1.00
C93    C     0.36558   0.16720   0.04578   0.00000  Uiso   1.00
C94    C     0.65031   0.16044   0.40879   0.00000  Uiso   1.00
C95    C     0.34971   0.16062   0.09124   0.00000  Uiso   1.00
C96    C     0.57369   0.18685   0.40535   0.00000  Uiso   1.00
C97    C     0.42640   0.18662   0.09450   0.00000  Uiso   1.00
C98    C     0.55695   0.19294   0.45181   0.00000  Uiso   1.00
C99    C     0.44311   0.19282   0.04802   0.00000  Uiso   1.00
C100   C     0.59008   0.18665   0.47546   0.00000  Uiso   1.00
C101   C     0.52835   0.20446   0.04432   0.00000  Uiso   1.00
C102   C     0.41000   0.18658   0.02440   0.00000  Uiso   1.00
C103   C     0.50747   0.20077   0.47624   0.00000  Uiso   1.00
C104   C     0.49255   0.20072   0.02356   0.00000  Uiso   1.00
C105   C     0.61547   0.24422   0.05222   0.00000  Uiso   1.00
C106   C     0.38364   0.24426   0.44835   0.00000  Uiso   1.00
C107   C     0.49702   0.12201   0.35295   0.00000  Uiso   1.00
C108   C     0.48783   0.25580   0.18936   0.00000  Uiso   1.00
C109   C     0.47167   0.20448   0.45547   0.00000  Uiso   1.00
C110   C     0.57723   0.19880   0.02013   0.00000  Uiso   1.00
C111   C     0.42284   0.19868   0.47964   0.00000  Uiso   1.00
C112   C     0.63089   0.02177   0.23836   0.00000  Uiso   1.00
C113   C     0.36916   0.31154   0.26150   0.00000  Uiso   1.00
C114   C     0.63064   0.31251   0.23778   0.00000  Uiso   1.00
Cu115  Cu    0.38022   0.16667   0.25000   0.00000  Uiso   1.00
Cu116  Cu    0.61978   0.16666   0.25000   0.00000  Uiso   1.00
F117   F     0.59584   0.29314   0.22502   0.00000  Uiso   1.00
F118   F     0.40427   0.04015   0.27477   0.00000  Uiso   1.00
H119   H     0.44911   0.19289   0.11465   0.00000  Uiso   1.00
H120   H     0.39681   0.29508   0.27107   0.00000  Uiso   1.00
H121   H     0.43841   0.12266   0.30127   0.00000  Uiso   1.00
H122   H     0.56229   0.20859   0.19672   0.00000  Uiso   1.00
H123   H     0.64866   0.24800   0.06202   0.00000  Uiso   1.00
H124   H     0.58382   0.25332   0.08123   0.00000  Uiso   1.00
H125   H     0.61905   0.26530   0.02358   0.00000  Uiso   1.00
H126   H     0.41535   0.25433   0.41986   0.00000  Uiso   1.00
H127   H     0.37906   0.26467   0.47756   0.00000  Uiso   1.00
H128   H     0.35066   0.24788   0.43817   0.00000  Uiso   1.00
H129   H     0.46517   0.10128   0.35867   0.00000  Uiso   1.00
H130   H     0.55109   0.19347   0.38511   0.00000  Uiso   1.00
H131   H     0.48481   0.15436   0.36160   0.00000  Uiso   1.00
H132   H     0.51672   0.11221   0.37603   0.00000  Uiso   1.00
H133   H     0.52592   0.25836   0.16669   0.00000  Uiso   1.00
H134   H     0.48457   0.26798   0.22299   0.00000  Uiso   1.00
H135   H     0.46495   0.27563   0.17553   0.00000  Uiso   1.00
H136   H     0.64774   0.14662   0.10685   0.00000  Uiso   1.00
H137   H     0.35225   0.14630   0.39326   0.00000  Uiso   1.00
H138   H     0.65639   0.15509   0.47245   0.00000  Uiso   1.00
H139   H     0.34373   0.15517   0.02758   0.00000  Uiso   1.00
H140   H     0.51962   0.20999   0.07945   0.00000  Uiso   1.00
H141   H     0.48035   0.21018   0.42034   0.00000  Uiso   1.00
H142   H     0.60317   0.03823   0.22888   0.00000  Uiso   1.00
N143   N     0.45069   0.16668   0.24999   0.00000  Uiso   1.00
N144   N     0.54931   0.16666   0.25001   0.00000  Uiso   1.00
O145   O     0.37291   0.10655   0.25000   0.00000  Uiso   1.00
O146   O     0.38804   0.20245   0.45881   0.00000  Uiso   1.00
O147   O     0.52889   0.11808   0.30890   0.00000  Uiso   1.00
O148   O     0.47111   0.21487   0.19080   0.00000  Uiso   1.00
O149   O     0.62709   0.22678   0.25000   0.00000  Uiso   1.00
O150   O     0.62706   0.10654   0.25001   0.00000  Uiso   1.00
O151   O     0.37294   0.22679   0.24999   0.00000  Uiso   1.00
O152   O     0.35186   0.16668   0.31491   0.00000  Uiso   1.00
O153   O     0.64814   0.16666   0.18509   0.00000  Uiso   1.00
O154   O     0.60600   0.16667   0.31492   0.00000  Uiso   1.00
O155   O     0.39400   0.16667   0.18508   0.00000  Uiso   1.00
O156   O     0.61208   0.20258   0.04088   0.00000  Uiso   1.00
C157   C     0.99999   0.08752   0.25030   0.00000  Uiso   1.00
C158   C     0.70278   0.02080   0.26203   0.00000  Uiso   1.00
C159   C     0.99986   0.29050   0.24950   0.00000  Uiso   1.00
C160   C     0.66687   0.04282   0.25036   0.00000  Uiso   1.00
C161   C     0.84773   0.14322   0.28002   0.00000  Uiso   1.00
C162   C     0.81846   0.19143   0.22123   0.00000  Uiso   1.00
C163   C     0.79844   0.14265   0.27898   0.00000  Uiso   1.00
C164   C     0.86831   0.19043   0.22076   0.00000  Uiso   1.00
C165   C     0.97157   0.16745   0.33558   0.00000  Uiso   1.00
C166   C     0.69510   0.16748   0.16441   0.00000  Uiso   1.00
C167   C     0.95397   0.17164   0.38389   0.00000  Uiso   1.00
C168   C     0.66669   0.24581   0.24965   0.00000  Uiso   1.00
C169   C     0.71271   0.17166   0.11607   0.00000  Uiso   1.00
C170   C     0.96783   0.16714   0.45420   0.00000  Uiso   1.00
C171   C     0.69892   0.16720   0.04578   0.00000  Uiso   1.00
C172   C     0.98364   0.16044   0.40879   0.00000  Uiso   1.00
C173   C     0.68304   0.16062   0.09124   0.00000  Uiso   1.00
C174   C     0.90702   0.18685   0.40535   0.00000  Uiso   1.00
C175   C     0.75973   0.18662   0.09450   0.00000  Uiso   1.00
C176   C     0.89029   0.19294   0.45181   0.00000  Uiso   1.00
C177   C     0.77644   0.19282   0.04802   0.00000  Uiso   1.00
C178   C     0.92341   0.18665   0.47546   0.00000  Uiso   1.00
C179   C     0.86168   0.20446   0.04432   0.00000  Uiso   1.00
C180   C     0.74334   0.18658   0.02440   0.00000  Uiso   1.00
C181   C     0.84081   0.20077   0.47624   0.00000  Uiso   1.00
C182   C     0.82589   0.20072   0.02356   0.00000  Uiso   1.00
C183   C     0.94881   0.24422   0.05222   0.00000  Uiso   1.00
C184   C     0.71698   0.24426   0.44835   0.00000  Uiso   1.00
C185   C     0.83035   0.12201   0.35295   0.00000  Uiso   1.00
C186   C     0.82116   0.25580   0.18936   0.00000  Uiso   1.00
C187   C     0.80500   0.20448   0.45547   0.00000  Uiso   1.00
C188   C     0.91056   0.19880   0.02013   0.00000  Uiso   1.00
C189   C     0.75617   0.19868   0.47964   0.00000  Uiso   1.00
C190   C     0.96422   0.02177   0.23836   0.00000  Uiso   1.00
C191   C     0.70250   0.31154   0.26150   0.00000  Uiso   1.00
C192   C     0.96398   0.31251   0.23778   0.00000  Uiso   1.00
Cu193  Cu    0.71355   0.16667   0.25000   0.00000  Uiso   1.00
Cu194  Cu    0.95311   0.16666   0.25000   0.00000  Uiso   1.00
F195   F     0.92918   0.29314   0.22502   0.00000  Uiso   1.00
F196   F     0.73760   0.04015   0.27477   0.00000  Uiso   1.00
H197   H     0.78244   0.19289   0.11465   0.00000  Uiso   1.00
H198   H     0.73014   0.29508   0.27107   0.00000  Uiso   1.00
H199   H     0.77174   0.12266   0.30127   0.00000  Uiso   1.00
H200   H     0.89563   0.20859   0.19672   0.00000  Uiso   1.00
H201   H     0.98199   0.24800   0.06202   0.00000  Uiso   1.00
H202   H     0.91715   0.25332   0.08123   0.00000  Uiso   1.00
H203   H     0.95238   0.26530   0.02358   0.00000  Uiso   1.00
H204   H     0.74869   0.25433   0.41986   0.00000  Uiso   1.00
H205   H     0.71239   0.26467   0.47756   0.00000  Uiso   1.00
H206   H     0.68399   0.24788   0.43817   0.00000  Uiso   1.00
H207   H     0.79850   0.10128   0.35867   0.00000  Uiso   1.00
H208   H     0.88443   0.19347   0.38511   0.00000  Uiso   1.00
H209   H     0.81814   0.15436   0.36160   0.00000  Uiso   1.00
H210   H     0.85005   0.11221   0.37603   0.00000  Uiso   1.00
H211   H     0.85925   0.25836   0.16669   0.00000  Uiso   1.00
H212   H     0.81790   0.26798   0.22299   0.00000  Uiso   1.00
H213   H     0.79828   0.27563   0.17553   0.00000  Uiso   1.00
H214   H     0.98107   0.14662   0.10685   0.00000  Uiso   1.00
H215   H     0.68558   0.14630   0.39326   0.00000  Uiso   1.00
H216   H     0.98973   0.15509   0.47245   0.00000  Uiso   1.00
H217   H     0.67707   0.15517   0.02758   0.00000  Uiso   1.00
H218   H     0.85295   0.20999   0.07945   0.00000  Uiso   1.00
H219   H     0.81369   0.21018   0.42034   0.00000  Uiso   1.00
H220   H     0.93651   0.03823   0.22888   0.00000  Uiso   1.00
N221   N     0.78403   0.16668   0.24999   0.00000  Uiso   1.00
N222   N     0.88264   0.16666   0.25001   0.00000  Uiso   1.00
O223   O     0.70625   0.10655   0.25000   0.00000  Uiso   1.00
O224   O     0.72138   0.20245   0.45881   0.00000  Uiso   1.00
O225   O     0.86223   0.11808   0.30890   0.00000  Uiso   1.00
O226   O     0.80444   0.21487   0.19080   0.00000  Uiso   1.00
O227   O     0.96042   0.22678   0.25000   0.00000  Uiso   1.00
O228   O     0.96039   0.10654   0.25001   0.00000  Uiso   1.00
O229   O     0.70628   0.22679   0.24999   0.00000  Uiso   1.00
O230   O     0.68519   0.16668   0.31491   0.00000  Uiso   1.00
O231   O     0.98148   0.16666   0.18509   0.00000  Uiso   1.00
O232   O     0.93933   0.16667   0.31492   0.00000  Uiso   1.00
O233   O     0.72733   0.16667   0.18508   0.00000  Uiso   1.00
O234   O     0.94541   0.20258   0.04088   0.00000  Uiso   1.00
C235   C     0.33333   0.42085   0.25030   0.00000  Uiso   1.00
C236   C     0.03611   0.35413   0.26203   0.00000  Uiso   1.00
C237   C     0.33320   0.62383   0.24950   0.00000  Uiso   1.00
C238   C     0.00020   0.37615   0.25036   0.00000  Uiso   1.00
C239   C     0.18107   0.47655   0.28002   0.00000  Uiso   1.00
C240   C     0.15180   0.52477   0.22123   0.00000  Uiso   1.00
C241   C     0.13177   0.47598   0.27898   0.00000  Uiso   1.00
C242   C     0.20164   0.52377   0.22076   0.00000  Uiso   1.00
C243   C     0.30491   0.50078   0.33558   0.00000  Uiso   1.00
C244   C     0.02843   0.50081   0.16441   0.00000  Uiso   1.00
C245   C     0.28731   0.50497   0.38389   0.00000  Uiso   1.00
C246   C     0.00003   0.57914   0.24965   0.00000  Uiso   1.00
C247   C     0.04605   0.50500   0.11607   0.00000  Uiso   1.00
C248   C     0.30117   0.50048   0.45420   0.00000  Uiso   1.00
C249   C     0.03225   0.50053   0.04578   0.00000  Uiso   1.00
C250   C     0.31697   0.49378   0.40879   0.00000  Uiso   1.00
C251   C     0.01637   0.49395   0.09124   0.00000  Uiso   1.00
C252   C     0.24036   0.52018   0.40535   0.00000  Uiso   1.00
C253   C     0.09307   0.51996   0.09450   0.00000  Uiso   1.00
C254   C     0.22362   0.52627   0.45181   0.00000  Uiso   1.00
C255   C     0.10977   0.52615   0.04802   0.00000  Uiso   1.00
C256   C     0.25674   0.51998   0.47546   0.00000  Uiso   1.00
C257   C     0.19502   0.53779   0.04432   0.00000  Uiso   1.00
C258   C     0.07667   0.51991   0.02440   0.00000  Uiso   1.00
C259   C     0.17414   0.53410   0.47624   0.00000  Uiso   1.00
C260   C     0.15922   0.53405   0.02356   0.00000  Uiso   1.00
C261   C     0.28214   0.57755   0.05222   0.00000  Uiso   1.00
C262   C     0.05031   0.57759   0.44835   0.00000  Uiso   1.00
C263   C     0.16368   0.45534   0.35295   0.00000  Uiso   1.00
C264   C     0.15450   0.58914   0.18936   0.00000  Uiso   1.00
C265   C     0.13833   0.53781   0.45547   0.00000  Uiso   1.00
C266   C     0.24390   0.53213   0.02013   0.00000  Uiso   1.00
C267   C     0.08951   0.53201   0.47964   0.00000  Uiso   1.00
C268   C     0.29756   0.35510   0.23836   0.00000  Uiso   1.00
C269   C     0.03583   0.64488   0.26150   0.00000  Uiso   1.00
C270   C     0.29731   0.64584   0.23778   0.00000  Uiso   1.00
Cu271  Cu    0.04689   0.50001   0.25000   0.00000  Uiso   1.00
Cu272  Cu    0.28645   0.49999   0.25000   0.00000  Uiso   1.00
F273   F     0.26251   0.62647   0.22502   0.00000  Uiso   1.00
F274   F     0.07093   0.37349   0.27477   0.00000  Uiso   1.00
H275   H     0.11577   0.52622   0.11465   0.00000  Uiso   1.00
H276   H     0.06348   0.62842   0.27107   0.00000  Uiso   1.00
H277   H     0.10507   0.45600   0.30127   0.00000  Uiso   1.00
H278   H     0.22896   0.54192   0.19672   0.00000  Uiso   1.00
H279   H     0.31532   0.58133   0.06202   0.00000  Uiso   1.00
H280   H     0.25049   0.58665   0.08123   0.00000  Uiso   1.00
H281   H     0.28571   0.59863   0.02358   0.00000  Uiso   1.00
H282   H     0.08202   0.58767   0.41986   0.00000  Uiso   1.00
H283   H     0.04572   0.59800   0.47756   0.00000  Uiso   1.00
H284   H     0.01733   0.58122   0.43817   0.00000  Uiso   1.00
H285   H     0.13184   0.43461   0.35867   0.00000  Uiso   1.00
H286   H     0.21776   0.52680   0.38511   0.00000  Uiso   1.00
H287   H     0.15147   0.48769   0.36160   0.00000  Uiso   1.00
H288   H     0.18339   0.44554   0.37603   0.00000  Uiso   1.00
H289   H     0.19258   0.59169   0.16669   0.00000  Uiso   1.00
H290   H     0.15124   0.60132   0.22299   0.00000  Uiso   1.00
H291   H     0.13162   0.60897   0.17553   0.00000  Uiso   1.00
H292   H     0.31440   0.47995   0.10685   0.00000  Uiso   1.00
H293   H     0.01892   0.47963   0.39326   0.00000  Uiso   1.00
H294   H     0.32306   0.48843   0.47245   0.00000  Uiso   1.00
H295   H     0.01040   0.48850   0.02758   0.00000  Uiso   1.00
H296   H     0.18628   0.54332   0.07945   0.00000  Uiso   1.00
H297   H     0.14702   0.54351   0.42034   0.00000  Uiso   1.00
H298   H     0.26984   0.37157   0.22888   0.00000  Uiso   1.00
N299   N     0.11736   0.50001   0.24999   0.00000  Uiso   1.00
N300   N     0.21597   0.49999   0.25001   0.00000  Uiso   1.00
O301   O     0.03958   0.43989   0.25000   0.00000  Uiso   1.00
O302   O     0.05471   0.53578   0.45881   0.00000  Uiso   1.00
O303   O     0.19556   0.45141   0.30890   0.00000  Uiso   1.00
O304   O     0.13777   0.54821   0.19080   0.00000  Uiso   1.00
O305   O     0.29375   0.56011   0.25000   0.00000  Uiso   1.00
O306   O     0.29372   0.43988   0.25001   0.00000  Uiso   1.00
O307   O     0.03961   0.56012   0.24999   0.00000  Uiso   1.00
O308   O     0.01852   0.50001   0.31491   0.00000  Uiso   1.00
O309   O     0.31481   0.49999   0.18509   0.00000  Uiso   1.00
O310   O     0.27267   0.50000   0.31492   0.00000  Uiso   1.00
O311   O     0.06067   0.50000   0.18508   0.00000  Uiso   1.00
O312   O     0.27874   0.53592   0.04088   0.00000  Uiso   1.00
C313   C     0.66666   0.42085   0.25030   0.00000  Uiso   1.00
C314   C     0.36945   0.35413   0.26203   0.00000  Uiso   1.00
C315   C     0.66653   0.62383   0.24950   0.00000  Uiso   1.00
C316   C     0.33353   0.37615   0.25036   0.00000  Uiso   1.00
C317   C     0.51440   0.47655   0.28002   0.00000  Uiso   1.00
C318   C     0.48513   0.52477   0.22123   0.00000  Uiso   1.00
C319   C     0.46510   0.47598   0.27898   0.00000  Uiso   1.00
C320   C     0.53498   0.52377   0.22076   0.00000  Uiso   1.00
C321   C     0.63824   0.50078   0.33558   0.00000  Uiso   1.00
C322   C     0.36176   0.50081   0.16441   0.00000  Uiso   1.00
C323   C     0.62064   0.50497   0.38389   0.00000  Uiso   1.00
C324   C     0.33336   0.57914   0.24965   0.00000  Uiso   1.00
C325   C     0.37938   0.50500   0.11607   0.00000  Uiso   1.00
C326   C     0.63450   0.50048   0.45420   0.00000  Uiso   1.00
C327   C     0.36558   0.50053   0.04578   0.00000  Uiso   1.00
C328   C     0.65031   0.49378   0.40879   0.00000  Uiso   1.00
C329   C     0.34971   0.49395   0.09124   0.00000  Uiso   1.00
C330   C     0.57369   0.52018   0.40535   0.00000  Uiso   1.00
C331   C     0.42640   0.51996   0.09450   0.00000  Uiso   1.00
C332   C     0.55695   0.52627   0.45181   0.00000  Uiso   1.00
C333   C     0.44311   0.52615   0.04802   0.00000  Uiso   1.00
C334   C     0.59008   0.51998   0.47546   0.00000  Uiso   1.00
C335   C     0.52835   0.53779   0.04432   0.00000  Uiso   1.00
C336   C     0.41000   0.51991   0.02440   0.00000  Uiso   1.00
C337   C     0.50747   0.53410   0.47624   0.00000  Uiso   1.00
C338   C     0.49255   0.53405   0.02356   0.00000  Uiso   1.00
C339   C     0.61547   0.57755   0.05222   0.00000  Uiso   1.00
C340   C     0.38364   0.57759   0.44835   0.00000  Uiso   1.00
C341   C     0.49702   0.45534   0.35295   0.00000  Uiso   1.00
C342   C     0.48783   0.58914   0.18936   0.00000  Uiso   1.00
C343   C     0.47167   0.53781   0.45547   0.00000  Uiso   1.00
C344   C     0.57723   0.53213   0.02013   0.00000  Uiso   1.00
C345   C     0.42284   0.53201   0.47964   0.00000  Uiso   1.00
C346   C     0.63089   0.35510   0.23836   0.00000  Uiso   1.00
C347   C     0.36916   0.64488   0.26150   0.00000  Uiso   1.00
C348   C     0.63064   0.64584   0.23778   0.00000  Uiso   1.00
Cu349  Cu    0.38022   0.50001   0.25000   0.00000  Uiso   1.00
Cu350  Cu    0.61978   0.49999   0.25000   0.00000  Uiso   1.00
F351   F     0.59584   0.62647   0.22502   0.00000  Uiso   1.00
F352   F     0.40427   0.37349   0.27477   0.00000  Uiso   1.00
H353   H     0.44911   0.52622   0.11465   0.00000  Uiso   1.00
H354   H     0.39681   0.62842   0.27107   0.00000  Uiso   1.00
H355   H     0.43841   0.45600   0.30127   0.00000  Uiso   1.00
H356   H     0.56229   0.54192   0.19672   0.00000  Uiso   1.00
H357   H     0.64866   0.58133   0.06202   0.00000  Uiso   1.00
H358   H     0.58382   0.58665   0.08123   0.00000  Uiso   1.00
H359   H     0.61905   0.59863   0.02358   0.00000  Uiso   1.00
H360   H     0.41535   0.58767   0.41986   0.00000  Uiso   1.00
H361   H     0.37906   0.59800   0.47756   0.00000  Uiso   1.00
H362   H     0.35066   0.58122   0.43817   0.00000  Uiso   1.00
H363   H     0.46517   0.43461   0.35867   0.00000  Uiso   1.00
H364   H     0.55109   0.52680   0.38511   0.00000  Uiso   1.00
H365   H     0.48481   0.48769   0.36160   0.00000  Uiso   1.00
H366   H     0.51672   0.44554   0.37603   0.00000  Uiso   1.00
H367   H     0.52592   0.59169   0.16669   0.00000  Uiso   1.00
H368   H     0.48457   0.60132   0.22299   0.00000  Uiso   1.00
H369   H     0.46495   0.60897   0.17553   0.00000  Uiso   1.00
H370   H     0.64774   0.47995   0.10685   0.00000  Uiso   1.00
H371   H     0.35225   0.47963   0.39326   0.00000  Uiso   1.00
H372   H     0.65639   0.48843   0.47245   0.00000  Uiso   1.00
H373   H     0.34373   0.48850   0.02758   0.00000  Uiso   1.00
H374   H     0.51962   0.54332   0.07945   0.00000  Uiso   1.00
H375   H     0.48035   0.54351   0.42034   0.00000  Uiso   1.00
H376   H     0.60317   0.37157   0.22888   0.00000  Uiso   1.00
N377   N     0.45069   0.50001   0.24999   0.00000  Uiso   1.00
N378   N     0.54931   0.49999   0.25001   0.00000  Uiso   1.00
O379   O     0.37291   0.43989   0.25000   0.00000  Uiso   1.00
O380   O     0.38804   0.53578   0.45881   0.00000  Uiso   1.00
O381   O     0.52889   0.45141   0.30890   0.00000  Uiso   1.00
O382   O     0.47111   0.54821   0.19080   0.00000  Uiso   1.00
O383   O     0.62709   0.56011   0.25000   0.00000  Uiso   1.00
O384   O     0.62706   0.43988   0.25001   0.00000  Uiso   1.00
O385   O     0.37294   0.56012   0.24999   0.00000  Uiso   1.00
O386   O     0.35186   0.50001   0.31491   0.00000  Uiso   1.00
O387   O     0.64814   0.49999   0.18509   0.00000  Uiso   1.00
O388   O     0.60600   0.50000   0.31492   0.00000  Uiso   1.00
O389   O     0.39400   0.50000   0.18508   0.00000  Uiso   1.00
O390   O     0.61208   0.53592   0.04088   0.00000  Uiso   1.00
C391   C     0.99999   0.42085   0.25030   0.00000  Uiso   1.00
C392   C     0.70278   0.35413   0.26203   0.00000  Uiso   1.00
C393   C     0.99986   0.62383   0.24950   0.00000  Uiso   1.00
C394   C     0.66687   0.37615   0.25036   0.00000  Uiso   1.00
C395   C     0.84773   0.47655   0.28002   0.00000  Uiso   1.00
C396   C     0.81846   0.52477   0.22123   0.00000  Uiso   1.00
C397   C     0.79844   0.47598   0.27898   0.00000  Uiso   1.00
C398   C     0.86831   0.52377   0.22076   0.00000  Uiso   1.00
C399   C     0.97157   0.50078   0.33558   0.00000  Uiso   1.00
C400   C     0.69510   0.50081   0.16441   0.00000  Uiso   1.00
C401   C     0.95397   0.50497   0.38389   0.00000  Uiso   1.00
C402   C     0.66669   0.57914   0.24965   0.00000  Uiso   1.00
C403   C     0.71271   0.50500   0.11607   0.00000  Uiso   1.00
C404   C     0.96783   0.50048   0.45420   0.00000  Uiso   1.00
C405   C     0.69892   0.50053   0.04578   0.00000  Uiso   1.00
C406   C     0.98364   0.49378   0.40879   0.00000  Uiso   1.00
C407   C     0.68304   0.49395   0.09124   0.00000  Uiso   1.00
C408   C     0.90702   0.52018   0.40535   0.00000  Uiso   1.00
C409   C     0.75973   0.51996   0.09450   0.00000  Uiso   1.00
C410   C     0.89029   0.52627   0.45181   0.00000  Uiso   1.00
C411   C     0.77644   0.52615   0.04802   0.00000  Uiso   1.00
C412   C     0.92341   0.51998   0.47546   0.00000  Uiso   1.00
C413   C     0.86168   0.53779   0.04432   0.00000  Uiso   1.00
C414   C     0.74334   0.51991   0.02440   0.00000  Uiso   1.00
C415   C     0.84081   0.53410   0.47624   0.00000  Uiso   1.00
C416   C     0.82589   0.53405   0.02356   0.00000  Uiso   1.00
C417   C     0.94881   0.57755   0.05222   0.00000  Uiso   1.00
C418   C     0.71698   0.57759   0.44835   0.00000  Uiso   1.00
C419   C     0.83035   0.45534   0.35295   0.00000  Uiso   1.00
C420   C     0.82116   0.58914   0.18936   0.00000  Uiso   1.00
C421   C     0.80500   0.53781   0.45547   0.00000  Uiso   1.00
C422   C     0.91056   0.53213   0.02013   0.00000  Uiso   1.00
C423   C     0.75617   0.53201   0.47964   0.00000  Uiso   1.00
C424   C     0.96422   0.35510   0.23836   0.00000  Uiso   1.00
C425   C     0.70250   0.64488   0.26150   0.00000  Uiso   1.00
C426   C     0.96398   0.64584   0.23778   0.00000  Uiso   1.00
Cu427  Cu    0.71355   0.50001   0.25000   0.00000  Uiso   1.00
Cu428  Cu    0.95311   0.49999   0.25000   0.00000  Uiso   1.00
F429   F     0.92918   0.62647   0.22502   0.00000  Uiso   1.00
F430   F     0.73760   0.37349   0.27477   0.00000  Uiso   1.00
H431   H     0.78244   0.52622   0.11465   0.00000  Uiso   1.00
H432   H     0.73014   0.62842   0.27107   0.00000  Uiso   1.00
H433   H     0.77174   0.45600   0.30127   0.00000  Uiso   1.00
H434   H     0.89563   0.54192   0.19672   0.00000  Uiso   1.00
H435   H     0.98199   0.58133   0.06202   0.00000  Uiso   1.00
H436   H     0.91715   0.58665   0.08123   0.00000  Uiso   1.00
H437   H     0.95238   0.59863   0.02358   0.00000  Uiso   1.00
H438   H     0.74869   0.58767   0.41986   0.00000  Uiso   1.00
H439   H     0.71239   0.59800   0.47756   0.00000  Uiso   1.00
H440   H     0.68399   0.58122   0.43817   0.00000  Uiso   1.00
H441   H     0.79850   0.43461   0.35867   0.00000  Uiso   1.00
H442   H     0.88443   0.52680   0.38511   0.00000  Uiso   1.00
H443   H     0.81814   0.48769   0.36160   0.00000  Uiso   1.00
H444   H     0.85005   0.44554   0.37603   0.00000  Uiso   1.00
H445   H     0.85925   0.59169   0.16669   0.00000  Uiso   1.00
H446   H     0.81790   0.60132   0.22299   0.00000  Uiso   1.00
H447   H     0.79828   0.60897   0.17553   0.00000  Uiso   1.00
H448   H     0.98107   0.47995   0.10685   0.00000  Uiso   1.00
H449   H     0.68558   0.47963   0.39326   0.00000  Uiso   1.00
H450   H     0.98973   0.48843   0.47245   0.00000  Uiso   1.00
H451   H     0.67707   0.48850   0.02758   0.00000  Uiso   1.00
H452   H     0.85295   0.54332   0.07945   0.00000  Uiso   1.00
H453   H     0.81369   0.54351   0.42034   0.00000  Uiso   1.00
H454   H     0.93651   0.37157   0.22888   0.00000  Uiso   1.00
N455   N     0.78403   0.50001   0.24999   0.00000  Uiso   1.00
N456   N     0.88264   0.49999   0.25001   0.00000  Uiso   1.00
O457   O     0.70625   0.43989   0.25000   0.00000  Uiso   1.00
O458   O     0.72138   0.53578   0.45881   0.00000  Uiso   1.00
O459   O     0.86223   0.45141   0.30890   0.00000  Uiso   1.00
O460   O     0.80444   0.54821   0.19080   0.00000  Uiso   1.00
O461   O     0.96042   0.56011   0.25000   0.00000  Uiso   1.00
O462   O     0.96039   0.43988   0.25001   0.00000  Uiso   1.00
O463   O     0.70628   0.56012   0.24999   0.00000  Uiso   1.00
O464   O     0.68519   0.50001   0.31491   0.00000  Uiso   1.00
O465   O     0.98148   0.49999   0.18509   0.00000  Uiso   1.00
O466   O     0.93933   0.50000   0.31492   0.00000  Uiso   1.00
O467   O     0.72733   0.50000   0.18508   0.00000  Uiso   1.00
O468   O     0.94541   0.53592   0.04088   0.00000  Uiso   1.00
C469   C     0.33333   0.75418   0.25030   0.00000  Uiso   1.00
C470   C     0.03611   0.68747   0.26203   0.00000  Uiso   1.00
C471   C     0.33320   0.95716   0.24950   0.00000  Uiso   1.00
C472   C     0.00020   0.70949   0.25036   0.00000  Uiso   1.00
C473   C     0.18107   0.80988   0.28002   0.00000  Uiso   1.00
C474   C     0.15180   0.85810   0.22123   0.00000  Uiso   1.00
C475   C     0.13177   0.80931   0.27898   0.00000  Uiso   1.00
C476   C     0.20164   0.85710   0.22076   0.00000  Uiso   1.00
C477   C     0.30491   0.83411   0.33558   0.00000  Uiso   1.00
C478   C     0.02843   0.83415   0.16441   0.00000  Uiso   1.00
C479   C     0.28731   0.83830   0.38389   0.00000  Uiso   1.00
C480   C     0.00003   0.91248   0.24965   0.00000  Uiso   1.00
C481   C     0.04605   0.83833   0.11607   0.00000  Uiso   1.00
C482   C     0.30117   0.83381   0.45420   0.00000  Uiso   1.00
C483   C     0.03225   0.83386   0.04578   0.00000  Uiso   1.00
C484   C     0.31697   0.82711   0.40879   0.00000  Uiso   1.00
C485   C     0.01637   0.82728   0.09124   0.00000  Uiso   1.00
C486   C     0.24036   0.85352   0.40535   0.00000  Uiso   1.00
C487   C     0.09307   0.85329   0.09450   0.00000  Uiso   1.00
C488   C     0.22362   0.85961   0.45181   0.00000  Uiso   1.00
C489   C     0.10977   0.85948   0.04802   0.00000  Uiso   1.00
C490   C     0.25674   0.85331   0.47546   0.00000  Uiso   1.00
C491   C     0.19502   0.87113   0.04432   0.00000  Uiso   1.00
C492   C     0.07667   0.85324   0.02440   0.00000  Uiso   1.00
C493   C     0.17414   0.86744   0.47624   0.00000  Uiso   1.00
C494   C     0.15922   0.86738   0.02356   0.00000  Uiso   1.00
C495   C     0.28214   0.91089   0.05222   0.00000  Uiso   1.00
C496   C     0.05031   0.91093   0.44835   0.00000  Uiso   1.00
C497   C     0.16368   0.78867   0.35295   0.00000  Uiso   1.00
C498   C     0.15450   0.92247   0.18936   0.00000  Uiso   1.00
C499   C     0.13833   0.87115   0.45547   0.00000  Uiso   1.00
C500   C     0.24390   0.86547   0.02013   0.00000  Uiso   1.00
C501   C     0.08951   0.86535   0.47964   0.00000  Uiso   1.00
C502   C     0.29756   0.68843   0.23836   0.00000  Uiso   1.00
C503   C     0.03583   0.97821   0.26150   0.00000  Uiso   1.00
C504   C     0.29731   0.97917   0.23778   0.00000  Uiso   1.00
Cu505  Cu    0.04689   0.83334   0.25000   0.00000  Uiso   1.00
Cu506  Cu    0.28645   0.83333   0.25000   0.00000  Uiso   1.00
F507   F     0.26251   0.95981   0.22502   0.00000  Uiso   1.00
F508   F     0.07093   0.70682   0.27477   0.00000  Uiso   1.00
H509   H     0.11577   0.85956   0.11465   0.00000  Uiso   1.00
H510   H     0.06348   0.96175   0.27107   0.00000  Uiso   1.00
H511   H     0.10507   0.78933   0.30127   0.00000  Uiso   1.00
H512   H     0.22896   0.87526   0.19672   0.00000  Uiso   1.00
H513   H     0.31532   0.91467   0.06202   0.00000  Uiso   1.00
H514   H     0.25049   0.91998   0.08123   0.00000  Uiso   1.00
H515   H     0.28571   0.93196   0.02358   0.00000  Uiso   1.00
H516   H     0.08202   0.92100   0.41986   0.00000  Uiso   1.00
H517   H     0.04572   0.93134   0.47756   0.00000  Uiso   1.00
H518   H     0.01733   0.91455   0.43817   0.00000  Uiso   1.00
H519   H     0.13184   0.76795   0.35867   0.00000  Uiso   1.00
H520   H     0.21776   0.86014   0.38511   0.00000  Uiso   1.00
H521   H     0.15147   0.82103   0.36160   0.00000  Uiso   1.00
H522   H     0.18339   0.77888   0.37603   0.00000  Uiso   1.00
H523   H     0.19258   0.92502   0.16669   0.00000  Uiso   1.00
H524   H     0.15124   0.93465   0.22299   0.00000  Uiso   1.00
H525   H     0.13162   0.94230   0.17553   0.00000  Uiso   1.00
H526   H     0.31440   0.81329   0.10685   0.00000  Uiso   1.00
H527   H     0.01892   0.81297   0.39326   0.00000  Uiso   1.00
H528   H     0.32306   0.82176   0.47245   0.00000  Uiso   1.00
H529   H     0.01040   0.82184   0.02758   0.00000  Uiso   1.00
H530   H     0.18628   0.87665   0.07945   0.00000  Uiso   1.00
H531   H     0.14702   0.87684   0.42034   0.00000  Uiso   1.00
H532   H     0.26984   0.70490   0.22888   0.00000  Uiso   1.00
N533   N     0.11736   0.83334   0.24999   0.00000  Uiso   1.00
N534   N     0.21597   0.83332   0.25001   0.00000  Uiso   1.00
O535   O     0.03958   0.77322   0.25000   0.00000  Uiso   1.00
O536   O     0.05471   0.86911   0.45881   0.00000  Uiso   1.00
O537   O     0.19556   0.78474   0.30890   0.00000  Uiso   1.00
O538   O     0.13777   0.88154   0.19080   0.00000  Uiso   1.00
O539   O     0.29375   0.89345   0.25000   0.00000  Uiso   1.00
O540   O     0.29372   0.77321   0.25001   0.00000  Uiso   1.00
O541   O     0.03961   0.89346   0.24999   0.00000  Uiso   1.00
O542   O     0.01852   0.83334   0.31491   0.00000  Uiso   1.00
O543   O     0.31481   0.83332   0.18509   0.00000  Uiso   1.00
O544   O     0.27267   0.83333   0.31492   0.00000  Uiso   1.00
O545   O     0.06067   0.83333   0.18508   0.00000  Uiso   1.00
O546   O     0.27874   0.86925   0.04088   0.00000  Uiso   1.00
C547   C     0.66666   0.75418   0.25030   0.00000  Uiso   1.00
C548   C     0.36945   0.68747   0.26203   0.00000  Uiso   1.00
C549   C     0.66653   0.95716   0.24950   0.00000  Uiso   1.00
C550   C     0.33353   0.70949   0.25036   0.00000  Uiso   1.00
C551   C     0.51440   0.80988   0.28002   0.00000  Uiso   1.00
C552   C     0.48513   0.85810   0.22123   0.00000  Uiso   1.00
C553   C     0.46510   0.80931   0.27898   0.00000  Uiso   1.00
C554   C     0.53498   0.85710   0.22076   0.00000  Uiso   1.00
C555   C     0.63824   0.83411   0.33558   0.00000  Uiso   1.00
C556   C     0.36176   0.83415   0.16441   0.00000  Uiso   1.00
C557   C     0.62064   0.83830   0.38389   0.00000  Uiso   1.00
C558   C     0.33336   0.91248   0.24965   0.00000  Uiso   1.00
C559   C     0.37938   0.83833   0.11607   0.00000  Uiso   1.00
C560   C     0.63450   0.83381   0.45420   0.00000  Uiso   1.00
C561   C     0.36558   0.83386   0.04578   0.00000  Uiso   1.00
C562   C     0.65031   0.82711   0.40879   0.00000  Uiso   1.00
C563   C     0.34971   0.82728   0.09124   0.00000  Uiso   1.00
C564   C     0.57369   0.85352   0.40535   0.00000  Uiso   1.00
C565   C     0.42640   0.85329   0.09450   0.00000  Uiso   1.00
C566   C     0.55695   0.85961   0.45181   0.00000  Uiso   1.00
C567   C     0.44311   0.85948   0.04802   0.00000  Uiso   1.00
C568   C     0.59008   0.85331   0.47546   0.00000  Uiso   1.00
C569   C     0.52835   0.87113   0.04432   0.00000  Uiso   1.00
C570   C     0.41000   0.85324   0.02440   0.00000  Uiso   1.00
C571   C     0.50747   0.86744   0.47624   0.00000  Uiso   1.00
C572   C     0.49255   0.86738   0.02356   0.00000  Uiso   1.00
C573   C     0.61547   0.91089   0.05222   0.00000  Uiso   1.00
C574   C     0.38364   0.91093   0.44835   0.00000  Uiso   1.00
C575   C     0.49702   0.78867   0.35295   0.00000  Uiso   1.00
C576   C     0.48783   0.92247   0.18936   0.00000  Uiso   1.00
C577   C     0.47167   0.87115   0.45547   0.00000  Uiso   1.00
C578   C     0.57723   0.86547   0.02013   0.00000  Uiso   1.00
C579   C     0.42284   0.86535   0.47964   0.00000  Uiso   1.00
C580   C     0.63089   0.68843   0.23836   0.00000  Uiso   1.00
C581   C     0.36916   0.97821   0.26150   0.00000  Uiso   1.00
C582   C     0.63064   0.97917   0.23778   0.00000  Uiso   1.00
Cu583  Cu    0.38022   0.83334   0.25000   0.00000  Uiso   1.00
Cu584  Cu    0.61978   0.83333   0.25000   0.00000  Uiso   1.00
F585   F     0.59584   0.95981   0.22502   0.00000  Uiso   1.00
F586   F     0.40427   0.70682   0.27477   0.00000  Uiso   1.00
H587   H     0.44911   0.85956   0.11465   0.00000  Uiso   1.00
H588   H     0.39681   0.96175   0.27107   0.00000  Uiso   1.00
H589   H     0.43841   0.78933   0.30127   0.00000  Uiso   1.00
H590   H     0.56229   0.87526   0.19672   0.00000  Uiso   1.00
H591   H     0.64866   0.91467   0.06202   0.00000  Uiso   1.00
H592   H     0.58382   0.91998   0.08123   0.00000  Uiso   1.00
H593   H     0.61905   0.93196   0.02358   0.00000  Uiso   1.00
H594   H     0.41535   0.92100   0.41986   0.00000  Uiso   1.00
H595   H     0.37906   0.93134   0.47756   0.00000  Uiso   1.00
H596   H     0.35066   0.91455   0.43817   0.00000  Uiso   1.00
H597   H     0.46517   0.76795   0.35867   0.00000  Uiso   1.00
H598   H     0.55109   0.86014   0.38511   0.00000  Uiso   1.00
H599   H     0.48481   0.82103   0.36160   0.00000  Uiso   1.00
H600   H     0.51672   0.77888   0.37603   0.00000  Uiso   1.00
H601   H     0.52592   0.92502   0.16669   0.00000  Uiso   1.00
H602   H     0.48457   0.93465   0.22299   0.00000  Uiso   1.00
H603   H     0.46495   0.94230   0.17553   0.00000  Uiso   1.00
H604   H     0.64774   0.81329   0.10685   0.00000  Uiso   1.00
H605   H     0.35225   0.81297   0.39326   0.00000  Uiso   1.00
H606   H     0.65639   0.82176   0.47245   0.00000  Uiso   1.00
H607   H     0.34373   0.82184   0.02758   0.00000  Uiso   1.00
H608   H     0.51962   0.87665   0.07945   0.00000  Uiso   1.00
H609   H     0.48035   0.87684   0.42034   0.00000  Uiso   1.00
H610   H     0.60317   0.70490   0.22888   0.00000  Uiso   1.00
N611   N     0.45069   0.83334   0.24999   0.00000  Uiso   1.00
N612   N     0.54931   0.83332   0.25001   0.00000  Uiso   1.00
O613   O     0.37291   0.77322   0.25000   0.00000  Uiso   1.00
O614   O     0.38804   0.86911   0.45881   0.00000  Uiso   1.00
O615   O     0.52889   0.78474   0.30890   0.00000  Uiso   1.00
O616   O     0.47111   0.88154   0.19080   0.00000  Uiso   1.00
O617   O     0.62709   0.89345   0.25000   0.00000  Uiso   1.00
O618   O     0.62706   0.77321   0.25001   0.00000  Uiso   1.00
O619   O     0.37294   0.89346   0.24999   0.00000  Uiso   1.00
O620   O     0.35186   0.83334   0.31491   0.00000  Uiso   1.00
O621   O     0.64814   0.83332   0.18509   0.00000  Uiso   1.00
O622   O     0.60600   0.83333   0.31492   0.00000  Uiso   1.00
O623   O     0.39400   0.83333   0.18508   0.00000  Uiso   1.00
O624   O     0.61208   0.86925   0.04088   0.00000  Uiso   1.00
C625   C     0.99999   0.75418   0.25030   0.00000  Uiso   1.00
C626   C     0.70278   0.68747   0.26203   0.00000  Uiso   1.00
C627   C     0.99986   0.95716   0.24950   0.00000  Uiso   1.00
C628   C     0.66687   0.70949   0.25036   0.00000  Uiso   1.00
C629   C     0.84773   0.80988   0.28002   0.00000  Uiso   1.00
C630   C     0.81846   0.85810   0.22123   0.00000  Uiso   1.00
C631   C     0.79844   0.80931   0.27898   0.00000  Uiso   1.00
C632   C     0.86831   0.85710   0.22076   0.00000  Uiso   1.00
C633   C     0.97157   0.83411   0.33558   0.00000  Uiso   1.00
C634   C     0.69510   0.83415   0.16441   0.00000  Uiso   1.00
C635   C     0.95397   0.83830   0.38389   0.00000  Uiso   1.00
C636   C     0.66669   0.91248   0.24965   0.00000  Uiso   1.00
C637   C     0.71271   0.83833   0.11607   0.00000  Uiso   1.00
C638   C     0.96783   0.83381   0.45420   0.00000  Uiso   1.00
C639   C     0.69892   0.83386   0.04578   0.00000  Uiso   1.00
C640   C     0.98364   0.82711   0.40879   0.00000  Uiso   1.00
C641   C     0.68304   0.82728   0.09124   0.00000  Uiso   1.00
C642   C     0.90702   0.85352   0.40535   0.00000  Uiso   1.00
C643   C     0.75973   0.85329   0.09450   0.00000  Uiso   1.00
C644   C     0.89029   0.85961   0.45181   0.00000  Uiso   1.00
C645   C     0.77644   0.85948   0.04802   0.00000  Uiso   1.00
C646   C     0.92341   0.85331   0.47546   0.00000  Uiso   1.00
C647   C     0.86168   0.87113   0.04432   0.00000  Uiso   1.00
C648   C     0.74334   0.85324   0.02440   0.00000  Uiso   1.00
C649   C     0.84081   0.86744   0.47624   0.00000  Uiso   1.00
C650   C     0.82589   0.86738   0.02356   0.00000  Uiso   1.00
C651   C     0.94881   0.91089   0.05222   0.00000  Uiso   1.00
C652   C     0.71698   0.91093   0.44835   0.00000  Uiso   1.00
C653   C     0.83035   0.78867   0.35295   0.00000  Uiso   1.00
C654   C     0.82116   0.92247   0.18936   0.00000  Uiso   1.00
C655   C     0.80500   0.87115   0.45547   0.00000  Uiso   1.00
C656   C     0.91056   0.86547   0.02013   0.00000  Uiso   1.00
C657   C     0.75617   0.86535   0.47964   0.00000  Uiso   1.00
C658   C     0.96422   0.68843   0.23836   0.00000  Uiso   1.00
C659   C     0.70250   0.97821   0.26150   0.00000  Uiso   1.00
C660   C     0.96398   0.97917   0.23778   0.00000  Uiso   1.00
Cu661  Cu    0.71355   0.83334   0.25000   0.00000  Uiso   1.00
Cu662  Cu    0.95311   0.83333   0.25000   0.00000  Uiso   1.00
F663   F     0.92918   0.95981   0.22502   0.00000  Uiso   1.00
F664   F     0.73760   0.70682   0.27477   0.00000  Uiso   1.00
H665   H     0.78244   0.85956   0.11465   0.00000  Uiso   1.00
H666   H     0.73014   0.96175   0.27107   0.00000  Uiso   1.00
H667   H     0.77174   0.78933   0.30127   0.00000  Uiso   1.00
H668   H     0.89563   0.87526   0.19672   0.00000  Uiso   1.00
H669   H     0.98199   0.91467   0.06202   0.00000  Uiso   1.00
H670   H     0.91715   0.91998   0.08123   0.00000  Uiso   1.00
H671   H     0.95238   0.93196   0.02358   0.00000  Uiso   1.00
H672   H     0.74869   0.92100   0.41986   0.00000  Uiso   1.00
H673   H     0.71239   0.93134   0.47756   0.00000  Uiso   1.00
H674   H     0.68399   0.91455   0.43817   0.00000  Uiso   1.00
H675   H     0.79850   0.76795   0.35867   0.00000  Uiso   1.00
H676   H     0.88443   0.86014   0.38511   0.00000  Uiso   1.00
H677   H     0.81814   0.82103   0.36160   0.00000  Uiso   1.00
H678   H     0.85005   0.77888   0.37603   0.00000  Uiso   1.00
H679   H     0.85925   0.92502   0.16669   0.00000  Uiso   1.00
H680   H     0.81790   0.93465   0.22299   0.00000  Uiso   1.00
H681   H     0.79828   0.94230   0.17553   0.00000  Uiso   1.00
H682   H     0.98107   0.81329   0.10685   0.00000  Uiso   1.00
H683   H     0.68558   0.81297   0.39326   0.00000  Uiso   1.00
H684   H     0.98973   0.82176   0.47245   0.00000  Uiso   1.00
H685   H     0.67707   0.82184   0.02758   0.00000  Uiso   1.00
H686   H     0.85295   0.87665   0.07945   0.00000  Uiso   1.00
H687   H     0.81369   0.87684   0.42034   0.00000  Uiso   1.00
H688   H     0.93651   0.70490   0.22888   0.00000  Uiso   1.00
N689   N     0.78403   0.83334   0.24999   0.00000  Uiso   1.00
N690   N     0.88264   0.83332   0.25001   0.00000  Uiso   1.00
O691   O     0.70625   0.77322   0.25000   0.00000  Uiso   1.00
O692   O     0.72138   0.86911   0.45881   0.00000  Uiso   1.00
O693   O     0.86223   0.78474   0.30890   0.00000  Uiso   1.00
O694   O     0.80444   0.88154   0.19080   0.00000  Uiso   1.00
O695   O     0.96042   0.89345   0.25000   0.00000  Uiso   1.00
O696   O     0.96039   0.77321   0.25001   0.00000  Uiso   1.00
O697   O     0.70628   0.89346   0.24999   0.00000  Uiso   1.00
O698   O     0.68519   0.83334   0.31491   0.00000  Uiso   1.00
O699   O     0.98148   0.83332   0.18509   0.00000  Uiso   1.00
O700   O     0.93933   0.83333   0.31492   0.00000  Uiso   1.00
O701   O     0.72733   0.83333   0.18508   0.00000  Uiso   1.00
O702   O     0.94541   0.86925   0.04088   0.00000  Uiso   1.00
C703   C     0.33333   0.08752   0.75030   0.00000  Uiso   1.00
C704   C     0.03611   0.02080   0.76203   0.00000  Uiso   1.00
C705   C     0.33320   0.29050   0.74950   0.00000  Uiso   1.00
C706   C     0.00020   0.04282   0.75036   0.00000  Uiso   1.00
C707   C     0.18107   0.14322   0.78002   0.00000  Uiso   1.00
C708   C     0.15180   0.19143   0.72123   0.00000  Uiso   1.00
C709   C     0.13177   0.14265   0.77898   0.00000  Uiso   1.00
C710   C     0.20164   0.19043   0.72076   0.00000  Uiso   1.00
C711   C     0.30491   0.16745   0.83558   0.00000  Uiso   1.00
C712   C     0.02843   0.16748   0.66441   0.00000  Uiso   1.00
C713   C     0.28731   0.17164   0.88389   0.00000  Uiso   1.00
C714   C     0.00003   0.24581   0.74965   0.00000  Uiso   1.00
C715   C     0.04605   0.17166   0.61607   0.00000  Uiso   1.00
C716   C     0.30117   0.16714   0.95420   0.00000  Uiso   1.00
C717   C     0.03225   0.16720   0.54578   0.00000  Uiso   1.00
C718   C     0.31697   0.16044   0.90879   0.00000  Uiso   1.00
C719   C     0.01637   0.16062   0.59124   0.00000  Uiso   1.00
C720   C     0.24036   0.18685   0.90535   0.00000  Uiso   1.00
C721   C     0.09307   0.18662   0.59450   0.00000  Uiso   1.00
C722   C     0.22362   0.19294   0.95181   0.00000  Uiso   1.00
C723   C     0.10977   0.19282   0.54802   0.00000  Uiso   1.00
C724   C     0.25674   0.18665   0.97546   0.00000  Uiso   1.00
C725   C     0.19502   0.20446   0.54432   0.00000  Uiso   1.00
C726   C     0.07667   0.18658   0.52440   0.00000  Uiso   1.00
C727   C     0.17414   0.20077   0.97624   0.00000  Uiso   1.00
C728   C     0.15922   0.20072   0.52356   0.00000  Uiso   1.00
C729   C     0.28214   0.24422   0.55222   0.00000  Uiso   1.00
C730   C     0.05031   0.24426   0.94835   0.00000  Uiso   1.00
C731   C     0.16368   0.12201   0.85295   0.00000  Uiso   1.00
C732   C     0.15450   0.25580   0.68936   0.00000  Uiso   1.00
C733   C     0.13833   0.20448   0.95547   0.00000  Uiso   1.00
C734   C     0.24390   0.19880   0.52013   0.00000  Uiso   1.00
C735   C     0.08951   0.19868   0.97964   0.00000  Uiso   1.00
C736   C     0.29756   0.02177   0.73836   0.00000  Uiso   1.00
C737   C     0.03583   0.31154   0.76150   0.00000  Uiso   1.00
C738   C     0.29731   0.31251   0.73778   0.00000  Uiso   1.00
Cu739  Cu    0.04689   0.16667   0.75000   0.00000  Uiso   1.00
Cu740  Cu    0.28645   0.16666   0.75000   0.00000  Uiso   1.00
F741   F     0.26251   0.29314   0.72502   0.00000  Uiso   1.00
F742   F     0.07093   0.04015   0.77477   0.00000  Uiso   1.00
H743   H     0.11577   0.19289   0.61465   0.00000  Uiso   1.00
H744   H     0.06348   0.29508   0.77107   0.00000  Uiso   1.00
H745   H     0.10507   0.12266   0.80127   0.00000  Uiso   1.00
H746   H     0.22896   0.20859   0.69672   0.00000  Uiso   1.00
H747   H     0.31532   0.24800   0.56202   0.00000  Uiso   1.00
H748   H     0.25049   0.25332   0.58123   0.00000  Uiso   1.00
H749   H     0.28571   0.26530   0.52358   0.00000  Uiso   1.00
H750   H     0.08202   0.25433   0.91986   0.00000  Uiso   1.00
H751   H     0.04572   0.26467   0.97756   0.00000  Uiso   1.00
H752   H     0.01733   0.24788   0.93817   0.00000  Uiso   1.00
H753   H     0.13184   0.10128   0.85867   0.00000  Uiso   1.00
H754   H     0.21776   0.19347   0.88511   0.00000  Uiso   1.00
H755   H     0.15147   0.15436   0.86160   0.00000  Uiso   1.00
H756   H     0.18339   0.11221   0.87603   0.00000  Uiso   1.00
H757   H     0.19258   0.25836   0.66669   0.00000  Uiso   1.00
H758   H     0.15124   0.26798   0.72299   0.00000  Uiso   1.00
H759   H     0.13162   0.27563   0.67553   0.00000  Uiso   1.00
H760   H     0.31440   0.14662   0.60685   0.00000  Uiso   1.00
H761   H     0.01892   0.14630   0.89326   0.00000  Uiso   1.00
H762   H     0.32306   0.15509   0.97245   0.00000  Uiso   1.00
H763   H     0.01040   0.15517   0.52758   0.00000  Uiso   1.00
H764   H     0.18628   0.20999   0.57945   0.00000  Uiso   1.00
H765   H     0.14702   0.21018   0.92034   0.00000  Uiso   1.00
H766   H     0.26984   0.03823   0.72888   0.00000  Uiso   1.00
N767   N     0.11736   0.16668   0.74999   0.00000  Uiso   1.00
N768   N     0.21597   0.16666   0.75001   0.00000  Uiso   1.00
O769   O     0.03958   0.10655   0.75000   0.00000  Uiso   1.00
O770   O     0.05471   0.20245   0.95881   0.00000  Uiso   1.00
O771   O     0.19556   0.11808   0.80890   0.00000  Uiso   1.00
O772   O     0.13777   0.21487   0.69080   0.00000  Uiso   1.00
O773   O     0.29375   0.22678   0.75000   0.00000  Uiso   1.00
O774   O     0.29372   0.10654   0.75001   0.00000  Uiso   1.00
O775   O     0.03961   0.22679   0.74999   0.00000  Uiso   1.00
O776   O     0.01852   0.16668   0.81491   0.00000  Uiso   1.00
O777   O     0.31481   0.16666   0.68509   0.00000  Uiso   1.00
O778   O     0.27267   0.16667   0.81492   0.00000  Uiso   1.00
O779   O     0.06067   0.16667   0.68508   0.00000  Uiso   1.00
O780   O     0.27874   0.20258   0.54088   0.00000  Uiso   1.00
C781   C     0.66666   0.08752   0.75030   0.00000  Uiso   1.00
C782   C     0.36945   0.02080   0.76203   0.00000  Uiso   1.00
C783   C     0.66653   0.29050   0.74950   0.00000  Uiso   1.00
C784   C     0.33353   0.04282   0.75036   0.00000  Uiso   1.00
C785   C     0.51440   0.14322   0.78002   0.00000  Uiso   1.00
C786   C     0.48513   0.19143   0.72123   0.00000  Uiso   1.00
C787   C     0.46510   0.14265   0.77898   0.00000  Uiso   1.00
C788   C     0.53498   0.19043   0.72076   0.00000  Uiso   1.00
C789   C     0.63824   0.16745   0.83558   0.00000  Uiso   1.00
C790   C     0.36176   0.16748   0.66441   0.00000  Uiso   1.00
C791   C     0.62064   0.17164   0.88389   0.00000  Uiso   1.00
C792   C     0.33336   0.24581   0.74965   0.00000  Uiso   1.00
C793   C     0.37938   0.17166   0.61607   0.00000  Uiso   1.00
C794   C     0.63450   0.16714   0.95420   0.00000  Uiso   1.00
C795   C     0.36558   0.16720   0.54578   0.00000  Uiso   1.00
C796   C     0.65031   0.16044   0.90879   0.00000  Uiso   1.00
C797   C     0.34971   0.16062   0.59124   0.00000  Uiso   1.00
C798   C     0.57369   0.18685   0.90535   0.00000  Uiso   1.00
C799   C     0.42640   0.18662   0.59450   0.00000  Uiso   1.00
C800   C     0.55695   0.19294   0.95181   0.00000  Uiso   1.00
C801   C     0.44311   0.19282   0.54802   0.00000  Uiso   1.00
C802   C     0.59008   0.18665   0.97546   0.00000  Uiso   1.00
C803   C     0.52835   0.20446   0.54432   0.00000  Uiso   1.00
C804   C     0.41000   0.18658   0.52440   0.00000  Uiso   1.00
C805   C     0.50747   0.20077   0.97624   0.00000  Uiso   1.00
C806   C     0.49255   0.20072   0.52356   0.00000  Uiso   1.00
C807   C     0.61547   0.24422   0.55222   0.00000  Uiso   1.00
C808   C     0.38364   0.24426   0.94835   0.00000  Uiso   1.00
C809   C     0.49702   0.12201   0.85295   0.00000  Uiso   1.00
C810   C     0.48783   0.25580   0.68936   0.00000  Uiso   1.00
C811   C     0.47167   0.20448   0.95547   0.00000  Uiso   1.00
C812   C     0.57723   0.19880   0.52013   0.00000  Uiso   1.00
C813   C     0.42284   0.19868   0.97964   0.00000  Uiso   1.00
C814   C     0.63089   0.02177   0.73836   0.00000  Uiso   1.00
C815   C     0.36916   0.31154   0.76150   0.00000  Uiso   1.00
C816   C     0.63064   0.31251   0.73778   0.00000  Uiso   1.00
Cu817  Cu    0.38022   0.16667   0.75000   0.00000  Uiso   1.00
Cu818  Cu    0.61978   0.16666   0.75000   0.00000  Uiso   1.00
F819   F     0.59584   0.29314   0.72502   0.00000  Uiso   1.00
F820   F     0.40427   0.04015   0.77477   0.00000  Uiso   1.00
H821   H     0.44911   0.19289   0.61465   0.00000  Uiso   1.00
H822   H     0.39681   0.29508   0.77107   0.00000  Uiso   1.00
H823   H     0.43841   0.12266   0.80127   0.00000  Uiso   1.00
H824   H     0.56229   0.20859   0.69672   0.00000  Uiso   1.00
H825   H     0.64866   0.24800   0.56202   0.00000  Uiso   1.00
H826   H     0.58382   0.25332   0.58123   0.00000  Uiso   1.00
H827   H     0.61905   0.26530   0.52358   0.00000  Uiso   1.00
H828   H     0.41535   0.25433   0.91986   0.00000  Uiso   1.00
H829   H     0.37906   0.26467   0.97756   0.00000  Uiso   1.00
H830   H     0.35066   0.24788   0.93817   0.00000  Uiso   1.00
H831   H     0.46517   0.10128   0.85867   0.00000  Uiso   1.00
H832   H     0.55109   0.19347   0.88511   0.00000  Uiso   1.00
H833   H     0.48481   0.15436   0.86160   0.00000  Uiso   1.00
H834   H     0.51672   0.11221   0.87603   0.00000  Uiso   1.00
H835   H     0.52592   0.25836   0.66669   0.00000  Uiso   1.00
H836   H     0.48457   0.26798   0.72299   0.00000  Uiso   1.00
H837   H     0.46495   0.27563   0.67553   0.00000  Uiso   1.00
H838   H     0.64774   0.14662   0.60685   0.00000  Uiso   1.00
H839   H     0.35225   0.14630   0.89326   0.00000  Uiso   1.00
H840   H     0.65639   0.15509   0.97245   0.00000  Uiso   1.00
H841   H     0.34373   0.15517   0.52758   0.00000  Uiso   1.00
H842   H     0.51962   0.20999   0.57945   0.00000  Uiso   1.00
H843   H     0.48035   0.21018   0.92034   0.00000  Uiso   1.00
H844   H     0.60317   0.03823   0.72888   0.00000  Uiso   1.00
N845   N     0.45069   0.16668   0.74999   0.00000  Uiso   1.00
N846   N     0.54931   0.16666   0.75001   0.00000  Uiso   1.00
O847   O     0.37291   0.10655   0.75000   0.00000  Uiso   1.00
O848   O     0.38804   0.20245   0.95881   0.00000  Uiso   1.00
O849   O     0.52889   0.11808   0.80890   0.00000  Uiso   1.00
O850   O     0.47111   0.21487   0.69080   0.00000  Uiso   1.00
O851   O     0.62709   0.22678   0.75000   0.00000  Uiso   1.00
O852   O     0.62706   0.10654   0.75001   0.00000  Uiso   1.00
O853   O     0.37294   0.22679   0.74999   0.00000  Uiso   1.00
O854   O     0.35186   0.16668   0.81491   0.00000  Uiso   1.00
O855   O     0.64814   0.16666   0.68509   0.00000  Uiso   1.00
O856   O     0.60600   0.16667   0.81492   0.00000  Uiso   1.00
O857   O     0.39400   0.16667   0.68508   0.00000  Uiso   1.00
O858   O     0.61208   0.20258   0.54088   0.00000  Uiso   1.00
C859   C     0.99999   0.08752   0.75030   0.00000  Uiso   1.00
C860   C     0.70278   0.02080   0.76203   0.00000  Uiso   1.00
C861   C     0.99986   0.29050   0.74950   0.00000  Uiso   1.00
C862   C     0.66687   0.04282   0.75036   0.00000  Uiso   1.00
C863   C     0.84773   0.14322   0.78002   0.00000  Uiso   1.00
C864   C     0.81846   0.19143   0.72123   0.00000  Uiso   1.00
C865   C     0.79844   0.14265   0.77898   0.00000  Uiso   1.00
C866   C     0.86831   0.19043   0.72076   0.00000  Uiso   1.00
C867   C     0.97157   0.16745   0.83558   0.00000  Uiso   1.00
C868   C     0.69510   0.16748   0.66441   0.00000  Uiso   1.00
C869   C     0.95397   0.17164   0.88389   0.00000  Uiso   1.00
C870   C     0.66669   0.24581   0.74965   0.00000  Uiso   1.00
C871   C     0.71271   0.17166   0.61607   0.00000  Uiso   1.00
C872   C     0.96783   0.16714   0.95420   0.00000  Uiso   1.00
C873   C     0.69892   0.16720   0.54578   0.00000  Uiso   1.00
C874   C     0.98364   0.16044   0.90879   0.00000  Uiso   1.00
C875   C     0.68304   0.16062   0.59124   0.00000  Uiso   1.00
C876   C     0.90702   0.18685   0.90535   0.00000  Uiso   1.00
C877   C     0.75973   0.18662   0.59450   0.00000  Uiso   1.00
C878   C     0.89029   0.19294   0.95181   0.00000  Uiso   1.00
C879   C     0.77644   0.19282   0.54802   0.00000  Uiso   1.00
C880   C     0.92341   0.18665   0.97546   0.00000  Uiso   1.00
C881   C     0.86168   0.20446   0.54432   0.00000  Uiso   1.00
C882   C     0.74334   0.18658   0.52440   0.00000  Uiso   1.00
C883   C     0.84081   0.20077   0.97624   0.00000  Uiso   1.00
C884   C     0.82589   0.20072   0.52356   0.00000  Uiso   1.00
C885   C     0.94881   0.24422   0.55222   0.00000  Uiso   1.00
C886   C     0.71698   0.24426   0.94835   0.00000  Uiso   1.00
C887   C     0.83035   0.12201   0.85295   0.00000  Uiso   1.00
C888   C     0.82116   0.25580   0.68936   0.00000  Uiso   1.00
C889   C     0.80500   0.20448   0.95547   0.00000  Uiso   1.00
C890   C     0.91056   0.19880   0.52013   0.00000  Uiso   1.00
C891   C     0.75617   0.19868   0.97964   0.00000  Uiso   1.00
C892   C     0.96422   0.02177   0.73836   0.00000  Uiso   1.00
C893   C     0.70250   0.31154   0.76150   0.00000  Uiso   1.00
C894   C     0.96398   0.31251   0.73778   0.00000  Uiso   1.00
Cu895  Cu    0.71355   0.16667   0.75000   0.00000  Uiso   1.00
Cu896  Cu    0.95311   0.16666   0.75000   0.00000  Uiso   1.00
F897   F     0.92918   0.29314   0.72502   0.00000  Uiso   1.00
F898   F     0.73760   0.04015   0.77477   0.00000  Uiso   1.00
H899   H     0.78244   0.19289   0.61465   0.00000  Uiso   1.00
H900   H     0.73014   0.29508   0.77107   0.00000  Uiso   1.00
H901   H     0.77174   0.12266   0.80127   0.00000  Uiso   1.00
H902   H     0.89563   0.20859   0.69672   0.00000  Uiso   1.00
H903   H     0.98199   0.24800   0.56202   0.00000  Uiso   1.00
H904   H     0.91715   0.25332   0.58123   0.00000  Uiso   1.00
H905   H     0.95238   0.26530   0.52358   0.00000  Uiso   1.00
H906   H     0.74869   0.25433   0.91986   0.00000  Uiso   1.00
H907   H     0.71239   0.26467   0.97756   0.00000  Uiso   1.00
H908   H     0.68399   0.24788   0.93817   0.00000  Uiso   1.00
H909   H     0.79850   0.10128   0.85867   0.00000  Uiso   1.00
H910   H     0.88443   0.19347   0.88511   0.00000  Uiso   1.00
H911   H     0.81814   0.15436   0.86160   0.00000  Uiso   1.00
H912   H     0.85005   0.11221   0.87603   0.00000  Uiso   1.00
H913   H     0.85925   0.25836   0.66669   0.00000  Uiso   1.00
H914   H     0.81790   0.26798   0.72299   0.00000  Uiso   1.00
H915   H     0.79828   0.27563   0.67553   0.00000  Uiso   1.00
H916   H     0.98107   0.14662   0.60685   0.00000  Uiso   1.00
H917   H     0.68558   0.14630   0.89326   0.00000  Uiso   1.00
H918   H     0.98973   0.15509   0.97245   0.00000  Uiso   1.00
H919   H     0.67707   0.15517   0.52758   0.00000  Uiso   1.00
H920   H     0.85295   0.20999   0.57945   0.00000  Uiso   1.00
H921   H     0.81369   0.21018   0.92034   0.00000  Uiso   1.00
H922   H     0.93651   0.03823   0.72888   0.00000  Uiso   1.00
N923   N     0.78403   0.16668   0.74999   0.00000  Uiso   1.00
N924   N     0.88264   0.16666   0.75001   0.00000  Uiso   1.00
O925   O     0.70625   0.10655   0.75000   0.00000  Uiso   1.00
O926   O     0.72138   0.20245   0.95881   0.00000  Uiso   1.00
O927   O     0.86223   0.11808   0.80890   0.00000  Uiso   1.00
O928   O     0.80444   0.21487   0.69080   0.00000  Uiso   1.00
O929   O     0.96042   0.22678   0.75000   0.00000  Uiso   1.00
O930   O     0.96039   0.10654   0.75001   0.00000  Uiso   1.00
O931   O     0.70628   0.22679   0.74999   0.00000  Uiso   1.00
O932   O     0.68519   0.16668   0.81491   0.00000  Uiso   1.00
O933   O     0.98148   0.16666   0.68509   0.00000  Uiso   1.00
O934   O     0.93933   0.16667   0.81492   0.00000  Uiso   1.00
O935   O     0.72733   0.16667   0.68508   0.00000  Uiso   1.00
O936   O     0.94541   0.20258   0.54088   0.00000  Uiso   1.00
C937   C     0.33333   0.42085   0.75030   0.00000  Uiso   1.00
C938   C     0.03611   0.35413   0.76203   0.00000  Uiso   1.00
C939   C     0.33320   0.62383   0.74950   0.00000  Uiso   1.00
C940   C     0.00020   0.37615   0.75036   0.00000  Uiso   1.00
C941   C     0.18107   0.47655   0.78002   0.00000  Uiso   1.00
C942   C     0.15180   0.52477   0.72123   0.00000  Uiso   1.00
C943   C     0.13177   0.47598   0.77898   0.00000  Uiso   1.00
C944   C     0.20164   0.52377   0.72076   0.00000  Uiso   1.00
C945   C     0.30491   0.50078   0.83558   0.00000  Uiso   1.00
C946   C     0.02843   0.50081   0.66441   0.00000  Uiso   1.00
C947   C     0.28731   0.50497   0.88389   0.00000  Uiso   1.00
C948   C     0.00003   0.57914   0.74965   0.00000  Uiso   1.00
C949   C     0.04605   0.50500   0.61607   0.00000  Uiso   1.00
C950   C     0.30117   0.50048   0.95420   0.00000  Uiso   1.00
C951   C     0.03225   0.50053   0.54578   0.00000  Uiso   1.00
C952   C     0.31697   0.49378   0.90879   0.00000  Uiso   1.00
C953   C     0.01637   0.49395   0.59124   0.00000  Uiso   1.00
C954   C     0.24036   0.52018   0.90535   0.00000  Uiso   1.00
C955   C     0.09307   0.51996   0.59450   0.00000  Uiso   1.00
C956   C     0.22362   0.52627   0.95181   0.00000  Uiso   1.00
C957   C     0.10977   0.52615   0.54802   0.00000  Uiso   1.00
C958   C     0.25674   0.51998   0.97546   0.00000  Uiso   1.00
C959   C     0.19502   0.53779   0.54432   0.00000  Uiso   1.00
C960   C     0.07667   0.51991   0.52440   0.00000  Uiso   1.00
C961   C     0.17414   0.53410   0.97624   0.00000  Uiso   1.00
C962   C     0.15922   0.53405   0.52356   0.00000  Uiso   1.00
C963   C     0.28214   0.57755   0.55222   0.00000  Uiso   1.00
C964   C     0.05031   0.57759   0.94835   0.00000  Uiso   1.00
C965   C     0.16368   0.45534   0.85295   0.00000  Uiso   1.00
C966   C     0.15450   0.58914   0.68936   0.00000  Uiso   1.00
C967   C     0.13833   0.53781   0.95547   0.00000  Uiso   1.00
C968   C     0.24390   0.53213   0.52013   0.00000  Uiso   1.00
C969   C     0.08951   0.53201   0.97964   0.00000  Uiso   1.00
C970   C     0.29756   0.35510   0.73836   0.00000  Uiso   1.00
C971   C     0.03583   0.64488   0.76150   0.00000  Uiso   1.00
C972   C     0.29731   0.64584   0.73778   0.00000  Uiso   1.00
Cu973  Cu    0.04689   0.50001   0.75000   0.00000  Uiso   1.00
Cu974  Cu    0.28645   0.49999   0.75000   0.00000  Uiso   1.00
F975   F     0.26251   0.62647   0.72502   0.00000  Uiso   1.00
F976   F     0.07093   0.37349   0.77477   0.00000  Uiso   1.00
H977   H     0.11577   0.52622   0.61465   0.00000  Uiso   1.00
H978   H     0.06348   0.62842   0.77107   0.00000  Uiso   1.00
H979   H     0.10507   0.45600   0.80127   0.00000  Uiso   1.00
H980   H     0.22896   0.54192   0.69672   0.00000  Uiso   1.00
H981   H     0.31532   0.58133   0.56202   0.00000  Uiso   1.00
H982   H     0.25049   0.58665   0.58123   0.00000  Uiso   1.00
H983   H     0.28571   0.59863   0.52358   0.00000  Uiso   1.00
H984   H     0.08202   0.58767   0.91986   0.00000  Uiso   1.00
H985   H     0.04572   0.59800   0.97756   0.00000  Uiso   1.00
H986   H     0.01733   0.58122   0.93817   0.00000  Uiso   1.00
H987   H     0.13184   0.43461   0.85867   0.00000  Uiso   1.00
H988   H     0.21776   0.52680   0.88511   0.00000  Uiso   1.00
H989   H     0.15147   0.48769   0.86160   0.00000  Uiso   1.00
H990   H     0.18339   0.44554   0.87603   0.00000  Uiso   1.00
H991   H     0.19258   0.59169   0.66669   0.00000  Uiso   1.00
H992   H     0.15124   0.60132   0.72299   0.00000  Uiso   1.00
H993   H     0.13162   0.60897   0.67553   0.00000  Uiso   1.00
H994   H     0.31440   0.47995   0.60685   0.00000  Uiso   1.00
H995   H     0.01892   0.47963   0.89326   0.00000  Uiso   1.00
H996   H     0.32306   0.48843   0.97245   0.00000  Uiso   1.00
H997   H     0.01040   0.48850   0.52758   0.00000  Uiso   1.00
H998   H     0.18628   0.54332   0.57945   0.00000  Uiso   1.00
H999   H     0.14702   0.54351   0.92034   0.00000  Uiso   1.00
H1000  H     0.26984   0.37157   0.72888   0.00000  Uiso   1.00
N1001  N     0.11736   0.50001   0.74999   0.00000  Uiso   1.00
N1002  N     0.21597   0.49999   0.75001   0.00000  Uiso   1.00
O1003  O     0.03958   0.43989   0.75000   0.00000  Uiso   1.00
O1004  O     0.05471   0.53578   0.95881   0.00000  Uiso   1.00
O1005  O     0.19556   0.45141   0.80890   0.00000  Uiso   1.00
O1006  O     0.13777   0.54821   0.69080   0.00000  Uiso   1.00
O1007  O     0.29375   0.56011   0.75000   0.00000  Uiso   1.00
O1008  O     0.29372   0.43988   0.75001   0.00000  Uiso   1.00
O1009  O     0.03961   0.56012   0.74999   0.00000  Uiso   1.00
O1010  O     0.01852   0.50001   0.81491   0.00000  Uiso   1.00
O1011  O     0.31481   0.49999   0.68509   0.00000  Uiso   1.00
O1012  O     0.27267   0.50000   0.81492   0.00000  Uiso   1.00
O1013  O     0.06067   0.50000   0.68508   0.00000  Uiso   1.00
O1014  O     0.27874   0.53592   0.54088   0.00000  Uiso   1.00
C1015  C     0.66666   0.42085   0.75030   0.00000  Uiso   1.00
C1016  C     0.36945   0.35413   0.76203   0.00000  Uiso   1.00
C1017  C     0.66653   0.62383   0.74950   0.00000  Uiso   1.00
C1018  C     0.33353   0.37615   0.75036   0.00000  Uiso   1.00
C1019  C     0.51440   0.47655   0.78002   0.00000  Uiso   1.00
C1020  C     0.48513   0.52477   0.72123   0.00000  Uiso   1.00
C1021  C     0.46510   0.47598   0.77898   0.00000  Uiso   1.00
C1022  C     0.53498   0.52377   0.72076   0.00000  Uiso   1.00
C1023  C     0.63824   0.50078   0.83558   0.00000  Uiso   1.00
C1024  C     0.36176   0.50081   0.66441   0.00000  Uiso   1.00
C1025  C     0.62064   0.50497   0.88389   0.00000  Uiso   1.00
C1026  C     0.33336   0.57914   0.74965   0.00000  Uiso   1.00
C1027  C     0.37938   0.50500   0.61607   0.00000  Uiso   1.00
C1028  C     0.63450   0.50048   0.95420   0.00000  Uiso   1.00
C1029  C     0.36558   0.50053   0.54578   0.00000  Uiso   1.00
C1030  C     0.65031   0.49378   0.90879   0.00000  Uiso   1.00
C1031  C     0.34971   0.49395   0.59124   0.00000  Uiso   1.00
C1032  C     0.57369   0.52018   0.90535   0.00000  Uiso   1.00
C1033  C     0.42640   0.51996   0.59450   0.00000  Uiso   1.00
C1034  C     0.55695   0.52627   0.95181   0.00000  Uiso   1.00
C1035  C     0.44311   0.52615   0.54802   0.00000  Uiso   1.00
C1036  C     0.59008   0.51998   0.97546   0.00000  Uiso   1.00
C1037  C     0.52835   0.53779   0.54432   0.00000  Uiso   1.00
C1038  C     0.41000   0.51991   0.52440   0.00000  Uiso   1.00
C1039  C     0.50747   0.53410   0.97624   0.00000  Uiso   1.00
C1040  C     0.49255   0.53405   0.52356   0.00000  Uiso   1.00
C1041  C     0.61547   0.57755   0.55222   0.00000  Uiso   1.00
C1042  C     0.38364   0.57759   0.94835   0.00000  Uiso   1.00
C1043  C     0.49702   0.45534   0.85295   0.00000  Uiso   1.00
C1044  C     0.48783   0.58914   0.68936   0.00000  Uiso   1.00
C1045  C     0.47167   0.53781   0.95547   0.00000  Uiso   1.00
C1046  C     0.57723   0.53213   0.52013   0.00000  Uiso   1.00
C1047  C     0.42284   0.53201   0.97964   0.00000  Uiso   1.00
C1048  C     0.63089   0.35510   0.73836   0.00000  Uiso   1.00
C1049  C     0.36916   0.64488   0.76150   0.00000  Uiso   1.00
C1050  C     0.63064   0.64584   0.73778   0.00000  Uiso   1.00
Cu1051 Cu    0.38022   0.50001   0.75000   0.00000  Uiso   1.00
Cu1052 Cu    0.61978   0.49999   0.75000   0.00000  Uiso   1.00
F1053  F     0.59584   0.62647   0.72502   0.00000  Uiso   1.00
F1054  F     0.40427   0.37349   0.77477   0.00000  Uiso   1.00
H1055  H     0.44911   0.52622   0.61465   0.00000  Uiso   1.00
H1056  H     0.39681   0.62842   0.77107   0.00000  Uiso   1.00
H1057  H     0.43841   0.45600   0.80127   0.00000  Uiso   1.00
H1058  H     0.56229   0.54192   0.69672   0.00000  Uiso   1.00
H1059  H     0.64866   0.58133   0.56202   0.00000  Uiso   1.00
H1060  H     0.58382   0.58665   0.58123   0.00000  Uiso   1.00
H1061  H     0.61905   0.59863   0.52358   0.00000  Uiso   1.00
H1062  H     0.41535   0.58767   0.91986   0.00000  Uiso   1.00
H1063  H     0.37906   0.59800   0.97756   0.00000  Uiso   1.00
H1064  H     0.35066   0.58122   0.93817   0.00000  Uiso   1.00
H1065  H     0.46517   0.43461   0.85867   0.00000  Uiso   1.00
H1066  H     0.55109   0.52680   0.88511   0.00000  Uiso   1.00
H1067  H     0.48481   0.48769   0.86160   0.00000  Uiso   1.00
H1068  H     0.51672   0.44554   0.87603   0.00000  Uiso   1.00
H1069  H     0.52592   0.59169   0.66669   0.00000  Uiso   1.00
H1070  H     0.48457   0.60132   0.72299   0.00000  Uiso   1.00
H1071  H     0.46495   0.60897   0.67553   0.00000  Uiso   1.00
H1072  H     0.64774   0.47995   0.60685   0.00000  Uiso   1.00
H1073  H     0.35225   0.47963   0.89326   0.00000  Uiso   1.00
H1074  H     0.65639   0.48843   0.97245   0.00000  Uiso   1.00
H1075  H     0.34373   0.48850   0.52758   0.00000  Uiso   1.00
H1076  H     0.51962   0.54332   0.57945   0.00000  Uiso   1.00
H1077  H     0.48035   0.54351   0.92034   0.00000  Uiso   1.00
H1078  H     0.60317   0.37157   0.72888   0.00000  Uiso   1.00
N1079  N     0.45069   0.50001   0.74999   0.00000  Uiso   1.00
N1080  N     0.54931   0.49999   0.75001   0.00000  Uiso   1.00
O1081  O     0.37291   0.43989   0.75000   0.00000  Uiso   1.00
O1082  O     0.38804   0.53578   0.95881   0.00000  Uiso   1.00
O1083  O     0.52889   0.45141   0.80890   0.00000  Uiso   1.00
O1084  O     0.47111   0.54821   0.69080   0.00000  Uiso   1.00
O1085  O     0.62709   0.56011   0.75000   0.00000  Uiso   1.00
O1086  O     0.62706   0.43988   0.75001   0.00000  Uiso   1.00
O1087  O     0.37294   0.56012   0.74999   0.00000  Uiso   1.00
O1088  O     0.35186   0.50001   0.81491   0.00000  Uiso   1.00
O1089  O     0.64814   0.49999   0.68509   0.00000  Uiso   1.00
O1090  O     0.60600   0.50000   0.81492   0.00000  Uiso   1.00
O1091  O     0.39400   0.50000   0.68508   0.00000  Uiso   1.00
O1092  O     0.61208   0.53592   0.54088   0.00000  Uiso   1.00
C1093  C     0.99999   0.42085   0.75030   0.00000  Uiso   1.00
C1094  C     0.70278   0.35413   0.76203   0.00000  Uiso   1.00
C1095  C     0.99986   0.62383   0.74950   0.00000  Uiso   1.00
C1096  C     0.66687   0.37615   0.75036   0.00000  Uiso   1.00
C1097  C     0.84773   0.47655   0.78002   0.00000  Uiso   1.00
C1098  C     0.81846   0.52477   0.72123   0.00000  Uiso   1.00
C1099  C     0.79844   0.47598   0.77898   0.00000  Uiso   1.00
C1100  C     0.86831   0.52377   0.72076   0.00000  Uiso   1.00
C1101  C     0.97157   0.50078   0.83558   0.00000  Uiso   1.00
C1102  C     0.69510   0.50081   0.66441   0.00000  Uiso   1.00
C1103  C     0.95397   0.50497   0.88389   0.00000  Uiso   1.00
C1104  C     0.66669   0.57914   0.74965   0.00000  Uiso   1.00
C1105  C     0.71271   0.50500   0.61607   0.00000  Uiso   1.00
C1106  C     0.96783   0.50048   0.95420   0.00000  Uiso   1.00
C1107  C     0.69892   0.50053   0.54578   0.00000  Uiso   1.00
C1108  C     0.98364   0.49378   0.90879   0.00000  Uiso   1.00
C1109  C     0.68304   0.49395   0.59124   0.00000  Uiso   1.00
C1110  C     0.90702   0.52018   0.90535   0.00000  Uiso   1.00
C1111  C     0.75973   0.51996   0.59450   0.00000  Uiso   1.00
C1112  C     0.89029   0.52627   0.95181   0.00000  Uiso   1.00
C1113  C     0.77644   0.52615   0.54802   0.00000  Uiso   1.00
C1114  C     0.92341   0.51998   0.97546   0.00000  Uiso   1.00
C1115  C     0.86168   0.53779   0.54432   0.00000  Uiso   1.00
C1116  C     0.74334   0.51991   0.52440   0.00000  Uiso   1.00
C1117  C     0.84081   0.53410   0.97624   0.00000  Uiso   1.00
C1118  C     0.82589   0.53405   0.52356   0.00000  Uiso   1.00
C1119  C     0.94881   0.57755   0.55222   0.00000  Uiso   1.00
C1120  C     0.71698   0.57759   0.94835   0.00000  Uiso   1.00
C1121  C     0.83035   0.45534   0.85295   0.00000  Uiso   1.00
C1122  C     0.82116   0.58914   0.68936   0.00000  Uiso   1.00
C1123  C     0.80500   0.53781   0.95547   0.00000  Uiso   1.00
C1124  C     0.91056   0.53213   0.52013   0.00000  Uiso   1.00
C1125  C     0.75617   0.53201   0.97964   0.00000  Uiso   1.00
C1126  C     0.96422   0.35510   0.73836   0.00000  Uiso   1.00
C1127  C     0.70250   0.64488   0.76150   0.00000  Uiso   1.00
C1128  C     0.96398   0.64584   0.73778   0.00000  Uiso   1.00
Cu1129 Cu    0.71355   0.50001   0.75000   0.00000  Uiso   1.00
Cu1130 Cu    0.95311   0.49999   0.75000   0.00000  Uiso   1.00
F1131  F     0.92918   0.62647   0.72502   0.00000  Uiso   1.00
F1132  F     0.73760   0.37349   0.77477   0.00000  Uiso   1.00
H1133  H     0.78244   0.52622   0.61465   0.00000  Uiso   1.00
H1134  H     0.73014   0.62842   0.77107   0.00000  Uiso   1.00
H1135  H     0.77174   0.45600   0.80127   0.00000  Uiso   1.00
H1136  H     0.89563   0.54192   0.69672   0.00000  Uiso   1.00
H1137  H     0.98199   0.58133   0.56202   0.00000  Uiso   1.00
H1138  H     0.91715   0.58665   0.58123   0.00000  Uiso   1.00
H1139  H     0.95238   0.59863   0.52358   0.00000  Uiso   1.00
H1140  H     0.74869   0.58767   0.91986   0.00000  Uiso   1.00
H1141  H     0.71239   0.59800   0.97756   0.00000  Uiso   1.00
H1142  H     0.68399   0.58122   0.93817   0.00000  Uiso   1.00
H1143  H     0.79850   0.43461   0.85867   0.00000  Uiso   1.00
H1144  H     0.88443   0.52680   0.88511   0.00000  Uiso   1.00
H1145  H     0.81814   0.48769   0.86160   0.00000  Uiso   1.00
H1146  H     0.85005   0.44554   0.87603   0.00000  Uiso   1.00
H1147  H     0.85925   0.59169   0.66669   0.00000  Uiso   1.00
H1148  H     0.81790   0.60132   0.72299   0.00000  Uiso   1.00
H1149  H     0.79828   0.60897   0.67553   0.00000  Uiso   1.00
H1150  H     0.98107   0.47995   0.60685   0.00000  Uiso   1.00
H1151  H     0.68558   0.47963   0.89326   0.00000  Uiso   1.00
H1152  H     0.98973   0.48843   0.97245   0.00000  Uiso   1.00
H1153  H     0.67707   0.48850   0.52758   0.00000  Uiso   1.00
H1154  H     0.85295   0.54332   0.57945   0.00000  Uiso   1.00
H1155  H     0.81369   0.54351   0.92034   0.00000  Uiso   1.00
H1156  H     0.93651   0.37157   0.72888   0.00000  Uiso   1.00
N1157  N     0.78403   0.50001   0.74999   0.00000  Uiso   1.00
N1158  N     0.88264   0.49999   0.75001   0.00000  Uiso   1.00
O1159  O     0.70625   0.43989   0.75000   0.00000  Uiso   1.00
O1160  O     0.72138   0.53578   0.95881   0.00000  Uiso   1.00
O1161  O     0.86223   0.45141   0.80890   0.00000  Uiso   1.00
O1162  O     0.80444   0.54821   0.69080   0.00000  Uiso   1.00
O1163  O     0.96042   0.56011   0.75000   0.00000  Uiso   1.00
O1164  O     0.96039   0.43988   0.75001   0.00000  Uiso   1.00
O1165  O     0.70628   0.56012   0.74999   0.00000  Uiso   1.00
O1166  O     0.68519   0.50001   0.81491   0.00000  Uiso   1.00
O1167  O     0.98148   0.49999   0.68509   0.00000  Uiso   1.00
O1168  O     0.93933   0.50000   0.81492   0.00000  Uiso   1.00
O1169  O     0.72733   0.50000   0.68508   0.00000  Uiso   1.00
O1170  O     0.94541   0.53592   0.54088   0.00000  Uiso   1.00
C1171  C     0.33333   0.75418   0.75030   0.00000  Uiso   1.00
C1172  C     0.03611   0.68747   0.76203   0.00000  Uiso   1.00
C1173  C     0.33320   0.95716   0.74950   0.00000  Uiso   1.00
C1174  C     0.00020   0.70949   0.75036   0.00000  Uiso   1.00
C1175  C     0.18107   0.80988   0.78002   0.00000  Uiso   1.00
C1176  C     0.15180   0.85810   0.72123   0.00000  Uiso   1.00
C1177  C     0.13177   0.80931   0.77898   0.00000  Uiso   1.00
C1178  C     0.20164   0.85710   0.72076   0.00000  Uiso   1.00
C1179  C     0.30491   0.83411   0.83558   0.00000  Uiso   1.00
C1180  C     0.02843   0.83415   0.66441   0.00000  Uiso   1.00
C1181  C     0.28731   0.83830   0.88389   0.00000  Uiso   1.00
C1182  C     0.00003   0.91248   0.74965   0.00000  Uiso   1.00
C1183  C     0.04605   0.83833   0.61607   0.00000  Uiso   1.00
C1184  C     0.30117   0.83381   0.95420   0.00000  Uiso   1.00
C1185  C     0.03225   0.83386   0.54578   0.00000  Uiso   1.00
C1186  C     0.31697   0.82711   0.90879   0.00000  Uiso   1.00
C1187  C     0.01637   0.82728   0.59124   0.00000  Uiso   1.00
C1188  C     0.24036   0.85352   0.90535   0.00000  Uiso   1.00
C1189  C     0.09307   0.85329   0.59450   0.00000  Uiso   1.00
C1190  C     0.22362   0.85961   0.95181   0.00000  Uiso   1.00
C1191  C     0.10977   0.85948   0.54802   0.00000  Uiso   1.00
C1192  C     0.25674   0.85331   0.97546   0.00000  Uiso   1.00
C1193  C     0.19502   0.87113   0.54432   0.00000  Uiso   1.00
C1194  C     0.07667   0.85324   0.52440   0.00000  Uiso   1.00
C1195  C     0.17414   0.86744   0.97624   0.00000  Uiso   1.00
C1196  C     0.15922   0.86738   0.52356   0.00000  Uiso   1.00
C1197  C     0.28214   0.91089   0.55222   0.00000  Uiso   1.00
C1198  C     0.05031   0.91093   0.94835   0.00000  Uiso   1.00
C1199  C     0.16368   0.78867   0.85295   0.00000  Uiso   1.00
C1200  C     0.15450   0.92247   0.68936   0.00000  Uiso   1.00
C1201  C     0.13833   0.87115   0.95547   0.00000  Uiso   1.00
C1202  C     0.24390   0.86547   0.52013   0.00000  Uiso   1.00
C1203  C     0.08951   0.86535   0.97964   0.00000  Uiso   1.00
C1204  C     0.29756   0.68843   0.73836   0.00000  Uiso   1.00
C1205  C     0.03583   0.97821   0.76150   0.00000  Uiso   1.00
C1206  C     0.29731   0.97917   0.73778   0.00000  Uiso   1.00
Cu1207 Cu    0.04689   0.83334   0.75000   0.00000  Uiso   1.00
Cu1208 Cu    0.28645   0.83333   0.75000   0.00000  Uiso   1.00
F1209  F     0.26251   0.95981   0.72502   0.00000  Uiso   1.00
F1210  F     0.07093   0.70682   0.77477   0.00000  Uiso   1.00
H1211  H     0.11577   0.85956   0.61465   0.00000  Uiso   1.00
H1212  H     0.06348   0.96175   0.77107   0.00000  Uiso   1.00
H1213  H     0.10507   0.78933   0.80127   0.00000  Uiso   1.00
H1214  H     0.22896   0.87526   0.69672   0.00000  Uiso   1.00
H1215  H     0.31532   0.91467   0.56202   0.00000  Uiso   1.00
H1216  H     0.25049   0.91998   0.58123   0.00000  Uiso   1.00
H1217  H     0.28571   0.93196   0.52358   0.00000  Uiso   1.00
H1218  H     0.08202   0.92100   0.91986   0.00000  Uiso   1.00
H1219  H     0.04572   0.93134   0.97756   0.00000  Uiso   1.00
H1220  H     0.01733   0.91455   0.93817   0.00000  Uiso   1.00
H1221  H     0.13184   0.76795   0.85867   0.00000  Uiso   1.00
H1222  H     0.21776   0.86014   0.88511   0.00000  Uiso   1.00
H1223  H     0.15147   0.82103   0.86160   0.00000  Uiso   1.00
H1224  H     0.18339   0.77888   0.87603   0.00000  Uiso   1.00
H1225  H     0.19258   0.92502   0.66669   0.00000  Uiso   1.00
H1226  H     0.15124   0.93465   0.72299   0.00000  Uiso   1.00
H1227  H     0.13162   0.94230   0.67553   0.00000  Uiso   1.00
H1228  H     0.31440   0.81329   0.60685   0.00000  Uiso   1.00
H1229  H     0.01892   0.81297   0.89326   0.00000  Uiso   1.00
H1230  H     0.32306   0.82176   0.97245   0.00000  Uiso   1.00
H1231  H     0.01040   0.82184   0.52758   0.00000  Uiso   1.00
H1232  H     0.18628   0.87665   0.57945   0.00000  Uiso   1.00
H1233  H     0.14702   0.87684   0.92034   0.00000  Uiso   1.00
H1234  H     0.26984   0.70490   0.72888   0.00000  Uiso   1.00
N1235  N     0.11736   0.83334   0.74999   0.00000  Uiso   1.00
N1236  N     0.21597   0.83332   0.75001   0.00000  Uiso   1.00
O1237  O     0.03958   0.77322   0.75000   0.00000  Uiso   1.00
O1238  O     0.05471   0.86911   0.95881   0.00000  Uiso   1.00
O1239  O     0.19556   0.78474   0.80890   0.00000  Uiso   1.00
O1240  O     0.13777   0.88154   0.69080   0.00000  Uiso   1.00
O1241  O     0.29375   0.89345   0.75000   0.00000  Uiso   1.00
O1242  O     0.29372   0.77321   0.75001   0.00000  Uiso   1.00
O1243  O     0.03961   0.89346   0.74999   0.00000  Uiso   1.00
O1244  O     0.01852   0.83334   0.81491   0.00000  Uiso   1.00
O1245  O     0.31481   0.83332   0.68509   0.00000  Uiso   1.00
O1246  O     0.27267   0.83333   0.81492   0.00000  Uiso   1.00
O1247  O     0.06067   0.83333   0.68508   0.00000  Uiso   1.00
O1248  O     0.27874   0.86925   0.54088   0.00000  Uiso   1.00
C1249  C     0.66666   0.75418   0.75030   0.00000  Uiso   1.00
C1250  C     0.36945   0.68747   0.76203   0.00000  Uiso   1.00
C1251  C     0.66653   0.95716   0.74950   0.00000  Uiso   1.00
C1252  C     0.33353   0.70949   0.75036   0.00000  Uiso   1.00
C1253  C     0.51440   0.80988   0.78002   0.00000  Uiso   1.00
C1254  C     0.48513   0.85810   0.72123   0.00000  Uiso   1.00
C1255  C     0.46510   0.80931   0.77898   0.00000  Uiso   1.00
C1256  C     0.53498   0.85710   0.72076   0.00000  Uiso   1.00
C1257  C     0.63824   0.83411   0.83558   0.00000  Uiso   1.00
C1258  C     0.36176   0.83415   0.66441   0.00000  Uiso   1.00
C1259  C     0.62064   0.83830   0.88389   0.00000  Uiso   1.00
C1260  C     0.33336   0.91248   0.74965   0.00000  Uiso   1.00
C1261  C     0.37938   0.83833   0.61607   0.00000  Uiso   1.00
C1262  C     0.63450   0.83381   0.95420   0.00000  Uiso   1.00
C1263  C     0.36558   0.83386   0.54578   0.00000  Uiso   1.00
C1264  C     0.65031   0.82711   0.90879   0.00000  Uiso   1.00
C1265  C     0.34971   0.82728   0.59124   0.00000  Uiso   1.00
C1266  C     0.57369   0.85352   0.90535   0.00000  Uiso   1.00
C1267  C     0.42640   0.85329   0.59450   0.00000  Uiso   1.00
C1268  C     0.55695   0.85961   0.95181   0.00000  Uiso   1.00
C1269  C     0.44311   0.85948   0.54802   0.00000  Uiso   1.00
C1270  C     0.59008   0.85331   0.97546   0.00000  Uiso   1.00
C1271  C     0.52835   0.87113   0.54432   0.00000  Uiso   1.00
C1272  C     0.41000   0.85324   0.52440   0.00000  Uiso   1.00
C1273  C     0.50747   0.86744   0.97624   0.00000  Uiso   1.00
C1274  C     0.49255   0.86738   0.52356   0.00000  Uiso   1.00
C1275  C     0.61547   0.91089   0.55222   0.00000  Uiso   1.00
C1276  C     0.38364   0.91093   0.94835   0.00000  Uiso   1.00
C1277  C     0.49702   0.78867   0.85295   0.00000  Uiso   1.00
C1278  C     0.48783   0.92247   0.68936   0.00000  Uiso   1.00
C1279  C     0.47167   0.87115   0.95547   0.00000  Uiso   1.00
C1280  C     0.57723   0.86547   0.52013   0.00000  Uiso   1.00
C1281  C     0.42284   0.86535   0.97964   0.00000  Uiso   1.00
C1282  C     0.63089   0.68843   0.73836   0.00000  Uiso   1.00
C1283  C     0.36916   0.97821   0.76150   0.00000  Uiso   1.00
C1284  C     0.63064   0.97917   0.73778   0.00000  Uiso   1.00
Cu1285 Cu    0.38022   0.83334   0.75000   0.00000  Uiso   1.00
Cu1286 Cu    0.61978   0.83333   0.75000   0.00000  Uiso   1.00
F1287  F     0.59584   0.95981   0.72502   0.00000  Uiso   1.00
F1288  F     0.40427   0.70682   0.77477   0.00000  Uiso   1.00
H1289  H     0.44911   0.85956   0.61465   0.00000  Uiso   1.00
H1290  H     0.39681   0.96175   0.77107   0.00000  Uiso   1.00
H1291  H     0.43841   0.78933   0.80127   0.00000  Uiso   1.00
H1292  H     0.56229   0.87526   0.69672   0.00000  Uiso   1.00
H1293  H     0.64866   0.91467   0.56202   0.00000  Uiso   1.00
H1294  H     0.58382   0.91998   0.58123   0.00000  Uiso   1.00
H1295  H     0.61905   0.93196   0.52358   0.00000  Uiso   1.00
H1296  H     0.41535   0.92100   0.91986   0.00000  Uiso   1.00
H1297  H     0.37906   0.93134   0.97756   0.00000  Uiso   1.00
H1298  H     0.35066   0.91455   0.93817   0.00000  Uiso   1.00
H1299  H     0.46517   0.76795   0.85867   0.00000  Uiso   1.00
H1300  H     0.55109   0.86014   0.88511   0.00000  Uiso   1.00
H1301  H     0.48481   0.82103   0.86160   0.00000  Uiso   1.00
H1302  H     0.51672   0.77888   0.87603   0.00000  Uiso   1.00
H1303  H     0.52592   0.92502   0.66669   0.00000  Uiso   1.00
H1304  H     0.48457   0.93465   0.72299   0.00000  Uiso   1.00
H1305  H     0.46495   0.94230   0.67553   0.00000  Uiso   1.00
H1306  H     0.64774   0.81329   0.60685   0.00000  Uiso   1.00
H1307  H     0.35225   0.81297   0.89326   0.00000  Uiso   1.00
H1308  H     0.65639   0.82176   0.97245   0.00000  Uiso   1.00
H1309  H     0.34373   0.82184   0.52758   0.00000  Uiso   1.00
H1310  H     0.51962   0.87665   0.57945   0.00000  Uiso   1.00
H1311  H     0.48035   0.87684   0.92034   0.00000  Uiso   1.00
H1312  H     0.60317   0.70490   0.72888   0.00000  Uiso   1.00
N1313  N     0.45069   0.83334   0.74999   0.00000  Uiso   1.00
N1314  N     0.54931   0.83332   0.75001   0.00000  Uiso   1.00
O1315  O     0.37291   0.77322   0.75000   0.00000  Uiso   1.00
O1316  O     0.38804   0.86911   0.95881   0.00000  Uiso   1.00
O1317  O     0.52889   0.78474   0.80890   0.00000  Uiso   1.00
O1318  O     0.47111   0.88154   0.69080   0.00000  Uiso   1.00
O1319  O     0.62709   0.89345   0.75000   0.00000  Uiso   1.00
O1320  O     0.62706   0.77321   0.75001   0.00000  Uiso   1.00
O1321  O     0.37294   0.89346   0.74999   0.00000  Uiso   1.00
O1322  O     0.35186   0.83334   0.81491   0.00000  Uiso   1.00
O1323  O     0.64814   0.83332   0.68509   0.00000  Uiso   1.00
O1324  O     0.60600   0.83333   0.81492   0.00000  Uiso   1.00
O1325  O     0.39400   0.83333   0.68508   0.00000  Uiso   1.00
O1326  O     0.61208   0.86925   0.54088   0.00000  Uiso   1.00
C1327  C     0.99999   0.75418   0.75030   0.00000  Uiso   1.00
C1328  C     0.70278   0.68747   0.76203   0.00000  Uiso   1.00
C1329  C     0.99986   0.95716   0.74950   0.00000  Uiso   1.00
C1330  C     0.66687   0.70949   0.75036   0.00000  Uiso   1.00
C1331  C     0.84773   0.80988   0.78002   0.00000  Uiso   1.00
C1332  C     0.81846   0.85810   0.72123   0.00000  Uiso   1.00
C1333  C     0.79844   0.80931   0.77898   0.00000  Uiso   1.00
C1334  C     0.86831   0.85710   0.72076   0.00000  Uiso   1.00
C1335  C     0.97157   0.83411   0.83558   0.00000  Uiso   1.00
C1336  C     0.69510   0.83415   0.66441   0.00000  Uiso   1.00
C1337  C     0.95397   0.83830   0.88389   0.00000  Uiso   1.00
C1338  C     0.66669   0.91248   0.74965   0.00000  Uiso   1.00
C1339  C     0.71271   0.83833   0.61607   0.00000  Uiso   1.00
C1340  C     0.96783   0.83381   0.95420   0.00000  Uiso   1.00
C1341  C     0.69892   0.83386   0.54578   0.00000  Uiso   1.00
C1342  C     0.98364   0.82711   0.90879   0.00000  Uiso   1.00
C1343  C     0.68304   0.82728   0.59124   0.00000  Uiso   1.00
C1344  C     0.90702   0.85352   0.90535   0.00000  Uiso   1.00
C1345  C     0.75973   0.85329   0.59450   0.00000  Uiso   1.00
C1346  C     0.89029   0.85961   0.95181   0.00000  Uiso   1.00
C1347  C     0.77644   0.85948   0.54802   0.00000  Uiso   1.00
C1348  C     0.92341   0.85331   0.97546   0.00000  Uiso   1.00
C1349  C     0.86168   0.87113   0.54432   0.00000  Uiso   1.00
C1350  C     0.74334   0.85324   0.52440   0.00000  Uiso   1.00
C1351  C     0.84081   0.86744   0.97624   0.00000  Uiso   1.00
C1352  C     0.82589   0.86738   0.52356   0.00000  Uiso   1.00
C1353  C     0.94881   0.91089   0.55222   0.00000  Uiso   1.00
C1354  C     0.71698   0.91093   0.94835   0.00000  Uiso   1.00
C1355  C     0.83035   0.78867   0.85295   0.00000  Uiso   1.00
C1356  C     0.82116   0.92247   0.68936   0.00000  Uiso   1.00
C1357  C     0.80500   0.87115   0.95547   0.00000  Uiso   1.00
C1358  C     0.91056   0.86547   0.52013   0.00000  Uiso   1.00
C1359  C     0.75617   0.86535   0.97964   0.00000  Uiso   1.00
C1360  C     0.96422   0.68843   0.73836   0.00000  Uiso   1.00
C1361  C     0.70250   0.97821   0.76150   0.00000  Uiso   1.00
C1362  C     0.96398   0.97917   0.73778   0.00000  Uiso   1.00
Cu1363 Cu    0.71355   0.83334   0.75000   0.00000  Uiso   1.00
Cu1364 Cu    0.95311   0.83333   0.75000   0.00000  Uiso   1.00
F1365  F     0.92918   0.95981   0.72502   0.00000  Uiso   1.00
F1366  F     0.73760   0.70682   0.77477   0.00000  Uiso   1.00
H1367  H     0.78244   0.85956   0.61465   0.00000  Uiso   1.00
H1368  H     0.73014   0.96175   0.77107   0.00000  Uiso   1.00
H1369  H     0.77174   0.78933   0.80127   0.00000  Uiso   1.00
H1370  H     0.89563   0.87526   0.69672   0.00000  Uiso   1.00
H1371  H     0.98199   0.91467   0.56202   0.00000  Uiso   1.00
H1372  H     0.91715   0.91998   0.58123   0.00000  Uiso   1.00
H1373  H     0.95238   0.93196   0.52358   0.00000  Uiso   1.00
H1374  H     0.74869   0.92100   0.91986   0.00000  Uiso   1.00
H1375  H     0.71239   0.93134   0.97756   0.00000  Uiso   1.00
H1376  H     0.68399   0.91455   0.93817   0.00000  Uiso   1.00
H1377  H     0.79850   0.76795   0.85867   0.00000  Uiso   1.00
H1378  H     0.88443   0.86014   0.88511   0.00000  Uiso   1.00
H1379  H     0.81814   0.82103   0.86160   0.00000  Uiso   1.00
H1380  H     0.85005   0.77888   0.87603   0.00000  Uiso   1.00
H1381  H     0.85925   0.92502   0.66669   0.00000  Uiso   1.00
H1382  H     0.81790   0.93465   0.72299   0.00000  Uiso   1.00
H1383  H     0.79828   0.94230   0.67553   0.00000  Uiso   1.00
H1384  H     0.98107   0.81329   0.60685   0.00000  Uiso   1.00
H1385  H     0.68558   0.81297   0.89326   0.00000  Uiso   1.00
H1386  H     0.98973   0.82176   0.97245   0.00000  Uiso   1.00
H1387  H     0.67707   0.82184   0.52758   0.00000  Uiso   1.00
H1388  H     0.85295   0.87665   0.57945   0.00000  Uiso   1.00
H1389  H     0.81369   0.87684   0.92034   0.00000  Uiso   1.00
H1390  H     0.93651   0.70490   0.72888   0.00000  Uiso   1.00
N1391  N     0.78403   0.83334   0.74999   0.00000  Uiso   1.00
N1392  N     0.88264   0.83332   0.75001   0.00000  Uiso   1.00
O1393  O     0.70625   0.77322   0.75000   0.00000  Uiso   1.00
O1394  O     0.72138   0.86911   0.95881   0.00000  Uiso   1.00
O1395  O     0.86223   0.78474   0.80890   0.00000  Uiso   1.00
O1396  O     0.80444   0.88154   0.69080   0.00000  Uiso   1.00
O1397  O     0.96042   0.89345   0.75000   0.00000  Uiso   1.00
O1398  O     0.96039   0.77321   0.75001   0.00000  Uiso   1.00
O1399  O     0.70628   0.89346   0.74999   0.00000  Uiso   1.00
O1400  O     0.68519   0.83334   0.81491   0.00000  Uiso   1.00
O1401  O     0.98148   0.83332   0.68509   0.00000  Uiso   1.00
O1402  O     0.93933   0.83333   0.81492   0.00000  Uiso   1.00
O1403  O     0.72733   0.83333   0.68508   0.00000  Uiso   1.00
O1404  O     0.94541   0.86925   0.54088   0.00000  Uiso   1.00
loop_
_geom_bond_atom_site_label_1
_geom_bond_atom_site_label_2
_geom_bond_distance
_geom_bond_site_symmetry_2
_ccdc_geom_bond_type
C1     O72     1.305   .     A
C1     C82     1.452   .     S
C1     O145    1.302   .     S
C2     C4      1.405   .     A
C2     F40     1.358   .     S
C2     C503    1.383   1_545 S
C3     C36     1.405   .     A
C3     C90     1.451   .     S
C3     C113    1.400   .     S
C4     C157    1.452   1_455 S
C4     C190    1.400   1_455 S
C5     O69     1.387   .     S
C5     C7      1.440   .     A
C5     N66     1.375   .     A
C6     N65     1.375   .     A
C6     C8      1.440   .     A
C6     O70     1.387   .     S
C7     H43     1.081   .     S
C7     N65     1.368   .     A
C8     N66     1.368   .     A
C8     H44     1.081   .     S
C9     O76     1.303   .     A
C9     C11     1.459   .     S
C9     O152    1.307   .     S
C10    O77     1.303   .     A
C10    C13     1.459   .     S
C10    O231    1.307   1_455 S
C11    C18     1.401   .     A
C11    C16     1.389   .     A
C12    O73     1.305   .     A
C12    C159    1.451   1_455 S
C12    O227    1.302   1_455 S
C13    C19     1.401   .     A
C13    C17     1.389   .     A
C14    C16     1.383   .     A
C14    H60     1.061   .     S
C14    C22     1.398   .     A
C15    C17     1.383   .     A
C15    H61     1.061   .     S
C15    C24     1.398   .     A
C16    H137    1.084   .     S
C17    H214    1.084   1_455 S
C18    H52     1.076   .     S
C18    C20     1.411   .     A
C19    C21     1.411   .     A
C19    H41     1.075   .     S
C20    C22     1.410   .     A
C20    C25     1.417   .     A
C21    C26     1.417   .     A
C21    C24     1.410   .     A
C22    C734    1.403   .     S
C23    C26     1.402   .     A
C23    H62     1.077   .     S
C23    C32     1.390   .     A
C24    C735    1.403   1_554 S
C25    C31     1.402   .     A
C25    C728    1.424   .     S
C26    C727    1.424   1_554 S
C27    O78     1.412   .     S
C27    H45     1.109   .     S
C27    H46     1.111   .     S
C27    H47     1.114   .     S
C28    O68     1.412   .     S
C28    H50     1.109   .     S
C28    H49     1.114   .     S
C28    H48     1.111   .     S
C29    H54     1.109   .     S
C29    O69     1.413   .     S
C29    H53     1.115   .     S
C29    H51     1.110   .     S
C30    H57     1.109   .     S
C30    O70     1.412   .     S
C30    H56     1.115   .     S
C30    H55     1.110   .     S
C31    C33     1.389   .     A
C31    H63     1.077   .     S
C32    O78     1.378   .     S
C32    C724    1.403   1_554 S
C33    O68     1.378   .     S
C33    C726    1.403   .     S
C34    H64     1.084   .     S
C34    C82     1.400   .     S
C34    C504    1.384   1_545 S
C35    H42     1.083   .     S
C35    C236    1.383   .     S
C35    C159    1.400   1_455 S
C36    F39     1.358   .     S
C36    C268    1.384   .     S
Cu37   O74     1.958   .     S
Cu37   N65     2.043   .     S
Cu37   O73     1.963   .     S
Cu37   O77     1.969   .     S
Cu37   O67     1.965   .     S
Cu37   Cu194   2.718   1_455 S
Cu38   O72     1.963   .     S
Cu38   O76     1.969   .     S
Cu38   N66     2.043   .     S
Cu38   O75     1.958   .     S
Cu38   O71     1.965   .     S
Cu38   Cu115   2.718   .     S
H58    C95     1.084   .     S
H59    C172    1.084   1_455 S
O67    C157    1.302   1_455 S
O71    C90     1.302   .     S
O74    C165    1.307   1_455 S
O75    C88     1.307   .     S
C79    O150    1.305   .     A
C79    C160    1.452   .     S
C79    O223    1.302   .     S
C80    C82     1.405   .     A
C80    F118    1.358   .     S
C80    C581    1.383   1_545 S
C81    C114    1.405   .     A
C81    C168    1.451   .     S
C81    C191    1.400   .     S
C83    O147    1.387   .     S
C83    C85     1.440   .     A
C83    N144    1.375   .     A
C84    N143    1.375   .     A
C84    C86     1.440   .     A
C84    O148    1.387   .     S
C85    H121    1.081   .     S
C85    N143    1.368   .     A
C86    N144    1.368   .     A
C86    H122    1.081   .     S
C87    O154    1.303   .     A
C87    C89     1.459   .     S
C87    O230    1.307   .     S
C88    O155    1.303   .     A
C88    C91     1.459   .     S
C89    C96     1.401   .     A
C89    C94     1.389   .     A
C90    O151    1.305   .     A
C91    C97     1.401   .     A
C91    C95     1.389   .     A
C92    C94     1.383   .     A
C92    H138    1.061   .     S
C92    C100    1.398   .     A
C93    C95     1.383   .     A
C93    H139    1.061   .     S
C93    C102    1.398   .     A
C94    H215    1.084   .     S
C96    H130    1.076   .     S
C96    C98     1.411   .     A
C97    C99     1.411   .     A
C97    H119    1.075   .     S
C98    C100    1.410   .     A
C98    C103    1.417   .     A
C99    C104    1.417   .     A
C99    C102    1.410   .     A
C100   C812    1.403   .     S
C101   C104    1.402   .     A
C101   H140    1.077   .     S
C101   C110    1.390   .     A
C102   C813    1.403   1_554 S
C103   C109    1.402   .     A
C103   C806    1.424   .     S
C104   C805    1.424   1_554 S
C105   O156    1.412   .     S
C105   H123    1.109   .     S
C105   H124    1.111   .     S
C105   H125    1.114   .     S
C106   O146    1.412   .     S
C106   H128    1.109   .     S
C106   H127    1.114   .     S
C106   H126    1.111   .     S
C107   H132    1.109   .     S
C107   O147    1.413   .     S
C107   H131    1.115   .     S
C107   H129    1.110   .     S
C108   H135    1.109   .     S
C108   O148    1.412   .     S
C108   H134    1.115   .     S
C108   H133    1.110   .     S
C109   C111    1.389   .     A
C109   H141    1.077   .     S
C110   O156    1.378   .     S
C110   C802    1.403   1_554 S
C111   O146    1.378   .     S
C111   C804    1.403   .     S
C112   H142    1.084   .     S
C112   C160    1.400   .     S
C112   C582    1.384   1_545 S
C113   H120    1.083   .     S
C113   C314    1.383   .     S
C114   F117    1.358   .     S
C114   C346    1.384   .     S
Cu115  O152    1.958   .     S
Cu115  N143    2.043   .     S
Cu115  O151    1.963   .     S
Cu115  O155    1.969   .     S
Cu115  O145    1.965   .     S
Cu116  O150    1.963   .     S
Cu116  O154    1.969   .     S
Cu116  N144    2.043   .     S
Cu116  O153    1.958   .     S
Cu116  O149    1.965   .     S
Cu116  Cu193   2.718   .     S
H136   C173    1.084   .     S
O149   C168    1.302   .     S
O153   C166    1.307   .     S
C157   O228    1.305   .     A
C157   C4      1.452   1_655 S
C157   O67     1.302   1_655 S
C158   C160    1.405   .     A
C158   F196    1.358   .     S
C158   C659    1.383   1_545 S
C159   C192    1.405   .     A
C159   C12     1.451   1_655 S
C159   C35     1.400   1_655 S
C161   O225    1.387   .     S
C161   C163    1.440   .     A
C161   N222    1.375   .     A
C162   N221    1.375   .     A
C162   C164    1.440   .     A
C162   O226    1.387   .     S
C163   H199    1.081   .     S
C163   N221    1.368   .     A
C164   N222    1.368   .     A
C164   H200    1.081   .     S
C165   O232    1.303   .     A
C165   C167    1.459   .     S
C165   O74     1.307   1_655 S
C166   O233    1.303   .     A
C166   C169    1.459   .     S
C167   C174    1.401   .     A
C167   C172    1.389   .     A
C168   O229    1.305   .     A
C169   C175    1.401   .     A
C169   C173    1.389   .     A
C170   C172    1.383   .     A
C170   H216    1.061   .     S
C170   C178    1.398   .     A
C171   C173    1.383   .     A
C171   H217    1.061   .     S
C171   C180    1.398   .     A
C172   H59     1.084   1_655 S
C174   H208    1.076   .     S
C174   C176    1.411   .     A
C175   C177    1.411   .     A
C175   H197    1.075   .     S
C176   C178    1.410   .     A
C176   C181    1.417   .     A
C177   C182    1.417   .     A
C177   C180    1.410   .     A
C178   C890    1.403   .     S
C179   C182    1.402   .     A
C179   H218    1.077   .     S
C179   C188    1.390   .     A
C180   C891    1.403   1_554 S
C181   C187    1.402   .     A
C181   C884    1.424   .     S
C182   C883    1.424   1_554 S
C183   O234    1.412   .     S
C183   H201    1.109   .     S
C183   H202    1.111   .     S
C183   H203    1.114   .     S
C184   O224    1.412   .     S
C184   H206    1.109   .     S
C184   H205    1.114   .     S
C184   H204    1.111   .     S
C185   H210    1.109   .     S
C185   O225    1.413   .     S
C185   H209    1.115   .     S
C185   H207    1.110   .     S
C186   H213    1.109   .     S
C186   O226    1.412   .     S
C186   H212    1.115   .     S
C186   H211    1.110   .     S
C187   C189    1.389   .     A
C187   H219    1.077   .     S
C188   O234    1.378   .     S
C188   C880    1.403   1_554 S
C189   O224    1.378   .     S
C189   C882    1.403   .     S
C190   H220    1.084   .     S
C190   C4      1.400   1_655 S
C190   C660    1.384   1_545 S
C191   H198    1.083   .     S
C191   C392    1.383   .     S
C192   F195    1.358   .     S
C192   C424    1.384   .     S
Cu193  O230    1.958   .     S
Cu193  N221    2.043   .     S
Cu193  O229    1.963   .     S
Cu193  O233    1.969   .     S
Cu193  O223    1.965   .     S
Cu194  O228    1.963   .     S
Cu194  O232    1.969   .     S
Cu194  N222    2.043   .     S
Cu194  O231    1.958   .     S
Cu194  O227    1.965   .     S
Cu194  Cu37    2.718   1_655 S
H214   C17     1.084   1_655 S
O227   C12     1.302   1_655 S
O231   C10     1.307   1_655 S
C235   O306    1.305   .     A
C235   C316    1.452   .     S
C235   O379    1.302   .     S
C236   C238    1.405   .     A
C236   F274    1.358   .     S
C237   C270    1.405   .     A
C237   C324    1.451   .     S
C237   C347    1.400   .     S
C238   C391    1.452   1_455 S
C238   C424    1.400   1_455 S
C239   O303    1.387   .     S
C239   C241    1.440   .     A
C239   N300    1.375   .     A
C240   N299    1.375   .     A
C240   C242    1.440   .     A
C240   O304    1.387   .     S
C241   H277    1.081   .     S
C241   N299    1.368   .     A
C242   N300    1.368   .     A
C242   H278    1.081   .     S
C243   O310    1.303   .     A
C243   C245    1.459   .     S
C243   O386    1.307   .     S
C244   O311    1.303   .     A
C244   C247    1.459   .     S
C244   O465    1.307   1_455 S
C245   C252    1.401   .     A
C245   C250    1.389   .     A
C246   O307    1.305   .     A
C246   C393    1.451   1_455 S
C246   O461    1.302   1_455 S
C247   C253    1.401   .     A
C247   C251    1.389   .     A
C248   C250    1.383   .     A
C248   H294    1.061   .     S
C248   C256    1.398   .     A
C249   C251    1.383   .     A
C249   H295    1.061   .     S
C249   C258    1.398   .     A
C250   H371    1.084   .     S
C251   H448    1.084   1_455 S
C252   H286    1.076   .     S
C252   C254    1.411   .     A
C253   C255    1.411   .     A
C253   H275    1.075   .     S
C254   C256    1.410   .     A
C254   C259    1.417   .     A
C255   C260    1.417   .     A
C255   C258    1.410   .     A
C256   C968    1.403   .     S
C257   C260    1.402   .     A
C257   H296    1.077   .     S
C257   C266    1.390   .     A
C258   C969    1.403   1_554 S
C259   C265    1.402   .     A
C259   C962    1.424   .     S
C260   C961    1.424   1_554 S
C261   O312    1.412   .     S
C261   H279    1.109   .     S
C261   H280    1.111   .     S
C261   H281    1.114   .     S
C262   O302    1.412   .     S
C262   H284    1.109   .     S
C262   H283    1.114   .     S
C262   H282    1.111   .     S
C263   H288    1.109   .     S
C263   O303    1.413   .     S
C263   H287    1.115   .     S
C263   H285    1.110   .     S
C264   H291    1.109   .     S
C264   O304    1.412   .     S
C264   H290    1.115   .     S
C264   H289    1.110   .     S
C265   C267    1.389   .     A
C265   H297    1.077   .     S
C266   O312    1.378   .     S
C266   C958    1.403   1_554 S
C267   O302    1.378   .     S
C267   C960    1.403   .     S
C268   H298    1.084   .     S
C268   C316    1.400   .     S
C269   H276    1.083   .     S
C269   C470    1.383   .     S
C269   C393    1.400   1_455 S
C270   F273    1.358   .     S
C270   C502    1.384   .     S
Cu271  O308    1.958   .     S
Cu271  N299    2.043   .     S
Cu271  O307    1.963   .     S
Cu271  O311    1.969   .     S
Cu271  O301    1.965   .     S
Cu271  Cu428   2.718   1_455 S
Cu272  O306    1.963   .     S
Cu272  O310    1.969   .     S
Cu272  N300    2.043   .     S
Cu272  O309    1.958   .     S
Cu272  O305    1.965   .     S
Cu272  Cu349   2.718   .     S
H292   C329    1.084   .     S
H293   C406    1.084   1_455 S
O301   C391    1.302   1_455 S
O305   C324    1.302   .     S
O308   C399    1.307   1_455 S
O309   C322    1.307   .     S
C313   O384    1.305   .     A
C313   C394    1.452   .     S
C313   O457    1.302   .     S
C314   C316    1.405   .     A
C314   F352    1.358   .     S
C315   C348    1.405   .     A
C315   C402    1.451   .     S
C315   C425    1.400   .     S
C317   O381    1.387   .     S
C317   C319    1.440   .     A
C317   N378    1.375   .     A
C318   N377    1.375   .     A
C318   C320    1.440   .     A
C318   O382    1.387   .     S
C319   H355    1.081   .     S
C319   N377    1.368   .     A
C320   N378    1.368   .     A
C320   H356    1.081   .     S
C321   O388    1.303   .     A
C321   C323    1.459   .     S
C321   O464    1.307   .     S
C322   O389    1.303   .     A
C322   C325    1.459   .     S
C323   C330    1.401   .     A
C323   C328    1.389   .     A
C324   O385    1.305   .     A
C325   C331    1.401   .     A
C325   C329    1.389   .     A
C326   C328    1.383   .     A
C326   H372    1.061   .     S
C326   C334    1.398   .     A
C327   C329    1.383   .     A
C327   H373    1.061   .     S
C327   C336    1.398   .     A
C328   H449    1.084   .     S
C330   H364    1.076   .     S
C330   C332    1.411   .     A
C331   C333    1.411   .     A
C331   H353    1.075   .     S
C332   C334    1.410   .     A
C332   C337    1.417   .     A
C333   C338    1.417   .     A
C333   C336    1.410   .     A
C334   C1046   1.403   .     S
C335   C338    1.402   .     A
C335   H374    1.077   .     S
C335   C344    1.390   .     A
C336   C1047   1.403   1_554 S
C337   C343    1.402   .     A
C337   C1040   1.424   .     S
C338   C1039   1.424   1_554 S
C339   O390    1.412   .     S
C339   H357    1.109   .     S
C339   H358    1.111   .     S
C339   H359    1.114   .     S
C340   O380    1.412   .     S
C340   H362    1.109   .     S
C340   H361    1.114   .     S
C340   H360    1.111   .     S
C341   H366    1.109   .     S
C341   O381    1.413   .     S
C341   H365    1.115   .     S
C341   H363    1.110   .     S
C342   H369    1.109   .     S
C342   O382    1.412   .     S
C342   H368    1.115   .     S
C342   H367    1.110   .     S
C343   C345    1.389   .     A
C343   H375    1.077   .     S
C344   O390    1.378   .     S
C344   C1036   1.403   1_554 S
C345   O380    1.378   .     S
C345   C1038   1.403   .     S
C346   H376    1.084   .     S
C346   C394    1.400   .     S
C347   H354    1.083   .     S
C347   C548    1.383   .     S
C348   F351    1.358   .     S
C348   C580    1.384   .     S
Cu349  O386    1.958   .     S
Cu349  N377    2.043   .     S
Cu349  O385    1.963   .     S
Cu349  O389    1.969   .     S
Cu349  O379    1.965   .     S
Cu350  O384    1.963   .     S
Cu350  O388    1.969   .     S
Cu350  N378    2.043   .     S
Cu350  O387    1.958   .     S
Cu350  O383    1.965   .     S
Cu350  Cu427   2.718   .     S
H370   C407    1.084   .     S
O383   C402    1.302   .     S
O387   C400    1.307   .     S
C391   O462    1.305   .     A
C391   C238    1.452   1_655 S
C391   O301    1.302   1_655 S
C392   C394    1.405   .     A
C392   F430    1.358   .     S
C393   C426    1.405   .     A
C393   C246    1.451   1_655 S
C393   C269    1.400   1_655 S
C395   O459    1.387   .     S
C395   C397    1.440   .     A
C395   N456    1.375   .     A
C396   N455    1.375   .     A
C396   C398    1.440   .     A
C396   O460    1.387   .     S
C397   H433    1.081   .     S
C397   N455    1.368   .     A
C398   N456    1.368   .     A
C398   H434    1.081   .     S
C399   O466    1.303   .     A
C399   C401    1.459   .     S
C399   O308    1.307   1_655 S
C400   O467    1.303   .     A
C400   C403    1.459   .     S
C401   C408    1.401   .     A
C401   C406    1.389   .     A
C402   O463    1.305   .     A
C403   C409    1.401   .     A
C403   C407    1.389   .     A
C404   C406    1.383   .     A
C404   H450    1.061   .     S
C404   C412    1.398   .     A
C405   C407    1.383   .     A
C405   H451    1.061   .     S
C405   C414    1.398   .     A
C406   H293    1.084   1_655 S
C408   H442    1.076   .     S
C408   C410    1.411   .     A
C409   C411    1.411   .     A
C409   H431    1.075   .     S
C410   C412    1.410   .     A
C410   C415    1.417   .     A
C411   C416    1.417   .     A
C411   C414    1.410   .     A
C412   C1124   1.403   .     S
C413   C416    1.402   .     A
C413   H452    1.077   .     S
C413   C422    1.390   .     A
C414   C1125   1.403   1_554 S
C415   C421    1.402   .     A
C415   C1118   1.424   .     S
C416   C1117   1.424   1_554 S
C417   O468    1.412   .     S
C417   H435    1.109   .     S
C417   H436    1.111   .     S
C417   H437    1.114   .     S
C418   O458    1.412   .     S
C418   H440    1.109   .     S
C418   H439    1.114   .     S
C418   H438    1.111   .     S
C419   H444    1.109   .     S
C419   O459    1.413   .     S
C419   H443    1.115   .     S
C419   H441    1.110   .     S
C420   H447    1.109   .     S
C420   O460    1.412   .     S
C420   H446    1.115   .     S
C420   H445    1.110   .     S
C421   C423    1.389   .     A
C421   H453    1.077   .     S
C422   O468    1.378   .     S
C422   C1114   1.403   1_554 S
C423   O458    1.378   .     S
C423   C1116   1.403   .     S
C424   H454    1.084   .     S
C424   C238    1.400   1_655 S
C425   H432    1.083   .     S
C425   C626    1.383   .     S
C426   F429    1.358   .     S
C426   C658    1.384   .     S
Cu427  O464    1.958   .     S
Cu427  N455    2.043   .     S
Cu427  O463    1.963   .     S
Cu427  O467    1.969   .     S
Cu427  O457    1.965   .     S
Cu428  O462    1.963   .     S
Cu428  O466    1.969   .     S
Cu428  N456    2.043   .     S
Cu428  O465    1.958   .     S
Cu428  O461    1.965   .     S
Cu428  Cu271   2.718   1_655 S
H448   C251    1.084   1_655 S
O461   C246    1.302   1_655 S
O465   C244    1.307   1_655 S
C469   O540    1.305   .     A
C469   C550    1.452   .     S
C469   O613    1.302   .     S
C470   C472    1.405   .     A
C470   F508    1.358   .     S
C471   C504    1.405   .     A
C471   C558    1.451   .     S
C471   C581    1.400   .     S
C472   C625    1.452   1_455 S
C472   C658    1.400   1_455 S
C473   O537    1.387   .     S
C473   C475    1.440   .     A
C473   N534    1.375   .     A
C474   N533    1.375   .     A
C474   C476    1.440   .     A
C474   O538    1.387   .     S
C475   H511    1.081   .     S
C475   N533    1.368   .     A
C476   N534    1.368   .     A
C476   H512    1.081   .     S
C477   O544    1.303   .     A
C477   C479    1.459   .     S
C477   O620    1.307   .     S
C478   O545    1.303   .     A
C478   C481    1.459   .     S
C478   O699    1.307   1_455 S
C479   C486    1.401   .     A
C479   C484    1.389   .     A
C480   O541    1.305   .     A
C480   C627    1.451   1_455 S
C480   O695    1.302   1_455 S
C481   C487    1.401   .     A
C481   C485    1.389   .     A
C482   C484    1.383   .     A
C482   H528    1.061   .     S
C482   C490    1.398   .     A
C483   C485    1.383   .     A
C483   H529    1.061   .     S
C483   C492    1.398   .     A
C484   H605    1.084   .     S
C485   H682    1.084   1_455 S
C486   H520    1.076   .     S
C486   C488    1.411   .     A
C487   C489    1.411   .     A
C487   H509    1.075   .     S
C488   C490    1.410   .     A
C488   C493    1.417   .     A
C489   C494    1.417   .     A
C489   C492    1.410   .     A
C490   C1202   1.403   .     S
C491   C494    1.402   .     A
C491   H530    1.077   .     S
C491   C500    1.390   .     A
C492   C1203   1.403   1_554 S
C493   C499    1.402   .     A
C493   C1196   1.424   .     S
C494   C1195   1.424   1_554 S
C495   O546    1.412   .     S
C495   H513    1.109   .     S
C495   H514    1.111   .     S
C495   H515    1.114   .     S
C496   O536    1.412   .     S
C496   H518    1.109   .     S
C496   H517    1.114   .     S
C496   H516    1.111   .     S
C497   H522    1.109   .     S
C497   O537    1.413   .     S
C497   H521    1.115   .     S
C497   H519    1.110   .     S
C498   H525    1.109   .     S
C498   O538    1.412   .     S
C498   H524    1.115   .     S
C498   H523    1.110   .     S
C499   C501    1.389   .     A
C499   H531    1.077   .     S
C500   O546    1.378   .     S
C500   C1192   1.403   1_554 S
C501   O536    1.378   .     S
C501   C1194   1.403   .     S
C502   H532    1.084   .     S
C502   C550    1.400   .     S
C503   H510    1.083   .     S
C503   C2      1.383   1_565 S
C503   C627    1.400   1_455 S
C504   F507    1.358   .     S
C504   C34     1.384   1_565 S
Cu505  O542    1.958   .     S
Cu505  N533    2.043   .     S
Cu505  O541    1.963   .     S
Cu505  O545    1.969   .     S
Cu505  O535    1.965   .     S
Cu505  Cu662   2.718   1_455 S
Cu506  O540    1.963   .     S
Cu506  O544    1.969   .     S
Cu506  N534    2.043   .     S
Cu506  O543    1.958   .     S
Cu506  O539    1.965   .     S
Cu506  Cu583   2.718   .     S
H526   C563    1.084   .     S
H527   C640    1.084   1_455 S
O535   C625    1.302   1_455 S
O539   C558    1.302   .     S
O542   C633    1.307   1_455 S
O543   C556    1.307   .     S
C547   O618    1.305   .     A
C547   C628    1.452   .     S
C547   O691    1.302   .     S
C548   C550    1.405   .     A
C548   F586    1.358   .     S
C549   C582    1.405   .     A
C549   C636    1.451   .     S
C549   C659    1.400   .     S
C551   O615    1.387   .     S
C551   C553    1.440   .     A
C551   N612    1.375   .     A
C552   N611    1.375   .     A
C552   C554    1.440   .     A
C552   O616    1.387   .     S
C553   H589    1.081   .     S
C553   N611    1.368   .     A
C554   N612    1.368   .     A
C554   H590    1.081   .     S
C555   O622    1.303   .     A
C555   C557    1.459   .     S
C555   O698    1.307   .     S
C556   O623    1.303   .     A
C556   C559    1.459   .     S
C557   C564    1.401   .     A
C557   C562    1.389   .     A
C558   O619    1.305   .     A
C559   C565    1.401   .     A
C559   C563    1.389   .     A
C560   C562    1.383   .     A
C560   H606    1.061   .     S
C560   C568    1.398   .     A
C561   C563    1.383   .     A
C561   H607    1.061   .     S
C561   C570    1.398   .     A
C562   H683    1.084   .     S
C564   H598    1.076   .     S
C564   C566    1.411   .     A
C565   C567    1.411   .     A
C565   H587    1.075   .     S
C566   C568    1.410   .     A
C566   C571    1.417   .     A
C567   C572    1.417   .     A
C567   C570    1.410   .     A
C568   C1280   1.403   .     S
C569   C572    1.402   .     A
C569   H608    1.077   .     S
C569   C578    1.390   .     A
C570   C1281   1.403   1_554 S
C571   C577    1.402   .     A
C571   C1274   1.424   .     S
C572   C1273   1.424   1_554 S
C573   O624    1.412   .     S
C573   H591    1.109   .     S
C573   H592    1.111   .     S
C573   H593    1.114   .     S
C574   O614    1.412   .     S
C574   H596    1.109   .     S
C574   H595    1.114   .     S
C574   H594    1.111   .     S
C575   H600    1.109   .     S
C575   O615    1.413   .     S
C575   H599    1.115   .     S
C575   H597    1.110   .     S
C576   H603    1.109   .     S
C576   O616    1.412   .     S
C576   H602    1.115   .     S
C576   H601    1.110   .     S
C577   C579    1.389   .     A
C577   H609    1.077   .     S
C578   O624    1.378   .     S
C578   C1270   1.403   1_554 S
C579   O614    1.378   .     S
C579   C1272   1.403   .     S
C580   H610    1.084   .     S
C580   C628    1.400   .     S
C581   H588    1.083   .     S
C581   C80     1.383   1_565 S
C582   F585    1.358   .     S
C582   C112    1.384   1_565 S
Cu583  O620    1.958   .     S
Cu583  N611    2.043   .     S
Cu583  O619    1.963   .     S
Cu583  O623    1.969   .     S
Cu583  O613    1.965   .     S
Cu584  O618    1.963   .     S
Cu584  O622    1.969   .     S
Cu584  N612    2.043   .     S
Cu584  O621    1.958   .     S
Cu584  O617    1.965   .     S
Cu584  Cu661   2.718   .     S
H604   C641    1.084   .     S
O617   C636    1.302   .     S
O621   C634    1.307   .     S
C625   O696    1.305   .     A
C625   C472    1.452   1_655 S
C625   O535    1.302   1_655 S
C626   C628    1.405   .     A
C626   F664    1.358   .     S
C627   C660    1.405   .     A
C627   C480    1.451   1_655 S
C627   C503    1.400   1_655 S
C629   O693    1.387   .     S
C629   C631    1.440   .     A
C629   N690    1.375   .     A
C630   N689    1.375   .     A
C630   C632    1.440   .     A
C630   O694    1.387   .     S
C631   H667    1.081   .     S
C631   N689    1.368   .     A
C632   N690    1.368   .     A
C632   H668    1.081   .     S
C633   O700    1.303   .     A
C633   C635    1.459   .     S
C633   O542    1.307   1_655 S
C634   O701    1.303   .     A
C634   C637    1.459   .     S
C635   C642    1.401   .     A
C635   C640    1.389   .     A
C636   O697    1.305   .     A
C637   C643    1.401   .     A
C637   C641    1.389   .     A
C638   C640    1.383   .     A
C638   H684    1.061   .     S
C638   C646    1.398   .     A
C639   C641    1.383   .     A
C639   H685    1.061   .     S
C639   C648    1.398   .     A
C640   H527    1.084   1_655 S
C642   H676    1.076   .     S
C642   C644    1.411   .     A
C643   C645    1.411   .     A
C643   H665    1.075   .     S
C644   C646    1.410   .     A
C644   C649    1.417   .     A
C645   C650    1.417   .     A
C645   C648    1.410   .     A
C646   C1358   1.403   .     S
C647   C650    1.402   .     A
C647   H686    1.077   .     S
C647   C656    1.390   .     A
C648   C1359   1.403   1_554 S
C649   C655    1.402   .     A
C649   C1352   1.424   .     S
C650   C1351   1.424   1_554 S
C651   O702    1.412   .     S
C651   H669    1.109   .     S
C651   H670    1.111   .     S
C651   H671    1.114   .     S
C652   O692    1.412   .     S
C652   H674    1.109   .     S
C652   H673    1.114   .     S
C652   H672    1.111   .     S
C653   H678    1.109   .     S
C653   O693    1.413   .     S
C653   H677    1.115   .     S
C653   H675    1.110   .     S
C654   H681    1.109   .     S
C654   O694    1.412   .     S
C654   H680    1.115   .     S
C654   H679    1.110   .     S
C655   C657    1.389   .     A
C655   H687    1.077   .     S
C656   O702    1.378   .     S
C656   C1348   1.403   1_554 S
C657   O692    1.378   .     S
C657   C1350   1.403   .     S
C658   H688    1.084   .     S
C658   C472    1.400   1_655 S
C659   H666    1.083   .     S
C659   C158    1.383   1_565 S
C660   F663    1.358   .     S
C660   C190    1.384   1_565 S
Cu661  O698    1.958   .     S
Cu661  N689    2.043   .     S
Cu661  O697    1.963   .     S
Cu661  O701    1.969   .     S
Cu661  O691    1.965   .     S
Cu662  O696    1.963   .     S
Cu662  O700    1.969   .     S
Cu662  N690    2.043   .     S
Cu662  O699    1.958   .     S
Cu662  O695    1.965   .     S
Cu662  Cu505   2.718   1_655 S
H682   C485    1.084   1_655 S
O695   C480    1.302   1_655 S
O699   C478    1.307   1_655 S
C703   O774    1.305   .     A
C703   C784    1.452   .     S
C703   O847    1.302   .     S
C704   C706    1.405   .     A
C704   F742    1.358   .     S
C704   C1205   1.383   1_545 S
C705   C738    1.405   .     A
C705   C792    1.451   .     S
C705   C815    1.400   .     S
C706   C859    1.452   1_455 S
C706   C892    1.400   1_455 S
C707   O771    1.387   .     S
C707   C709    1.440   .     A
C707   N768    1.375   .     A
C708   N767    1.375   .     A
C708   C710    1.440   .     A
C708   O772    1.387   .     S
C709   H745    1.081   .     S
C709   N767    1.368   .     A
C710   N768    1.368   .     A
C710   H746    1.081   .     S
C711   O778    1.303   .     A
C711   C713    1.459   .     S
C711   O854    1.307   .     S
C712   O779    1.303   .     A
C712   C715    1.459   .     S
C712   O933    1.307   1_455 S
C713   C720    1.401   .     A
C713   C718    1.389   .     A
C714   O775    1.305   .     A
C714   C861    1.451   1_455 S
C714   O929    1.302   1_455 S
C715   C721    1.401   .     A
C715   C719    1.389   .     A
C716   C718    1.383   .     A
C716   H762    1.061   .     S
C716   C724    1.398   .     A
C717   C719    1.383   .     A
C717   H763    1.061   .     S
C717   C726    1.398   .     A
C718   H839    1.084   .     S
C719   H916    1.084   1_455 S
C720   H754    1.076   .     S
C720   C722    1.411   .     A
C721   C723    1.411   .     A
C721   H743    1.075   .     S
C722   C724    1.410   .     A
C722   C727    1.417   .     A
C723   C728    1.417   .     A
C723   C726    1.410   .     A
C724   C32     1.403   1_556 S
C725   C728    1.402   .     A
C725   H764    1.077   .     S
C725   C734    1.390   .     A
C727   C733    1.402   .     A
C727   C26     1.424   1_556 S
C729   O780    1.412   .     S
C729   H747    1.109   .     S
C729   H748    1.111   .     S
C729   H749    1.114   .     S
C730   O770    1.412   .     S
C730   H752    1.109   .     S
C730   H751    1.114   .     S
C730   H750    1.111   .     S
C731   H756    1.109   .     S
C731   O771    1.413   .     S
C731   H755    1.115   .     S
C731   H753    1.110   .     S
C732   H759    1.109   .     S
C732   O772    1.412   .     S
C732   H758    1.115   .     S
C732   H757    1.110   .     S
C733   C735    1.389   .     A
C733   H765    1.077   .     S
C734   O780    1.378   .     S
C735   O770    1.378   .     S
C735   C24     1.403   1_556 S
C736   H766    1.084   .     S
C736   C784    1.400   .     S
C736   C1206   1.384   1_545 S
C737   H744    1.083   .     S
C737   C938    1.383   .     S
C737   C861    1.400   1_455 S
C738   F741    1.358   .     S
C738   C970    1.384   .     S
Cu739  O776    1.958   .     S
Cu739  N767    2.043   .     S
Cu739  O775    1.963   .     S
Cu739  O779    1.969   .     S
Cu739  O769    1.965   .     S
Cu739  Cu896   2.718   1_455 S
Cu740  O774    1.963   .     S
Cu740  O778    1.969   .     S
Cu740  N768    2.043   .     S
Cu740  O777    1.958   .     S
Cu740  O773    1.965   .     S
Cu740  Cu817   2.718   .     S
H760   C797    1.084   .     S
H761   C874    1.084   1_455 S
O769   C859    1.302   1_455 S
O773   C792    1.302   .     S
O776   C867    1.307   1_455 S
O777   C790    1.307   .     S
C781   O852    1.305   .     A
C781   C862    1.452   .     S
C781   O925    1.302   .     S
C782   C784    1.405   .     A
C782   F820    1.358   .     S
C782   C1283   1.383   1_545 S
C783   C816    1.405   .     A
C783   C870    1.451   .     S
C783   C893    1.400   .     S
C785   O849    1.387   .     S
C785   C787    1.440   .     A
C785   N846    1.375   .     A
C786   N845    1.375   .     A
C786   C788    1.440   .     A
C786   O850    1.387   .     S
C787   H823    1.081   .     S
C787   N845    1.368   .     A
C788   N846    1.368   .     A
C788   H824    1.081   .     S
C789   O856    1.303   .     A
C789   C791    1.459   .     S
C789   O932    1.307   .     S
C790   O857    1.303   .     A
C790   C793    1.459   .     S
C791   C798    1.401   .     A
C791   C796    1.389   .     A
C792   O853    1.305   .     A
C793   C799    1.401   .     A
C793   C797    1.389   .     A
C794   C796    1.383   .     A
C794   H840    1.061   .     S
C794   C802    1.398   .     A
C795   C797    1.383   .     A
C795   H841    1.061   .     S
C795   C804    1.398   .     A
C796   H917    1.084   .     S
C798   H832    1.076   .     S
C798   C800    1.411   .     A
C799   C801    1.411   .     A
C799   H821    1.075   .     S
C800   C802    1.410   .     A
C800   C805    1.417   .     A
C801   C806    1.417   .     A
C801   C804    1.410   .     A
C802   C110    1.403   1_556 S
C803   C806    1.402   .     A
C803   H842    1.077   .     S
C803   C812    1.390   .     A
C805   C811    1.402   .     A
C805   C104    1.424   1_556 S
C807   O858    1.412   .     S
C807   H825    1.109   .     S
C807   H826    1.111   .     S
C807   H827    1.114   .     S
C808   O848    1.412   .     S
C808   H830    1.109   .     S
C808   H829    1.114   .     S
C808   H828    1.111   .     S
C809   H834    1.109   .     S
C809   O849    1.413   .     S
C809   H833    1.115   .     S
C809   H831    1.110   .     S
C810   H837    1.109   .     S
C810   O850    1.412   .     S
C810   H836    1.115   .     S
C810   H835    1.110   .     S
C811   C813    1.389   .     A
C811   H843    1.077   .     S
C812   O858    1.378   .     S
C813   O848    1.378   .     S
C813   C102    1.403   1_556 S
C814   H844    1.084   .     S
C814   C862    1.400   .     S
C814   C1284   1.384   1_545 S
C815   H822    1.083   .     S
C815   C1016   1.383   .     S
C816   F819    1.358   .     S
C816   C1048   1.384   .     S
Cu817  O854    1.958   .     S
Cu817  N845    2.043   .     S
Cu817  O853    1.963   .     S
Cu817  O857    1.969   .     S
Cu817  O847    1.965   .     S
Cu818  O852    1.963   .     S
Cu818  O856    1.969   .     S
Cu818  N846    2.043   .     S
Cu818  O855    1.958   .     S
Cu818  O851    1.965   .     S
Cu818  Cu895   2.718   .     S
H838   C875    1.084   .     S
O851   C870    1.302   .     S
O855   C868    1.307   .     S
C859   O930    1.305   .     A
C859   C706    1.452   1_655 S
C859   O769    1.302   1_655 S
C860   C862    1.405   .     A
C860   F898    1.358   .     S
C860   C1361   1.383   1_545 S
C861   C894    1.405   .     A
C861   C714    1.451   1_655 S
C861   C737    1.400   1_655 S
C863   O927    1.387   .     S
C863   C865    1.440   .     A
C863   N924    1.375   .     A
C864   N923    1.375   .     A
C864   C866    1.440   .     A
C864   O928    1.387   .     S
C865   H901    1.081   .     S
C865   N923    1.368   .     A
C866   N924    1.368   .     A
C866   H902    1.081   .     S
C867   O934    1.303   .     A
C867   C869    1.459   .     S
C867   O776    1.307   1_655 S
C868   O935    1.303   .     A
C868   C871    1.459   .     S
C869   C876    1.401   .     A
C869   C874    1.389   .     A
C870   O931    1.305   .     A
C871   C877    1.401   .     A
C871   C875    1.389   .     A
C872   C874    1.383   .     A
C872   H918    1.061   .     S
C872   C880    1.398   .     A
C873   C875    1.383   .     A
C873   H919    1.061   .     S
C873   C882    1.398   .     A
C874   H761    1.084   1_655 S
C876   H910    1.076   .     S
C876   C878    1.411   .     A
C877   C879    1.411   .     A
C877   H899    1.075   .     S
C878   C880    1.410   .     A
C878   C883    1.417   .     A
C879   C884    1.417   .     A
C879   C882    1.410   .     A
C880   C188    1.403   1_556 S
C881   C884    1.402   .     A
C881   H920    1.077   .     S
C881   C890    1.390   .     A
C883   C889    1.402   .     A
C883   C182    1.424   1_556 S
C885   O936    1.412   .     S
C885   H903    1.109   .     S
C885   H904    1.111   .     S
C885   H905    1.114   .     S
C886   O926    1.412   .     S
C886   H908    1.109   .     S
C886   H907    1.114   .     S
C886   H906    1.111   .     S
C887   H912    1.109   .     S
C887   O927    1.413   .     S
C887   H911    1.115   .     S
C887   H909    1.110   .     S
C888   H915    1.109   .     S
C888   O928    1.412   .     S
C888   H914    1.115   .     S
C888   H913    1.110   .     S
C889   C891    1.389   .     A
C889   H921    1.077   .     S
C890   O936    1.378   .     S
C891   O926    1.378   .     S
C891   C180    1.403   1_556 S
C892   H922    1.084   .     S
C892   C706    1.400   1_655 S
C892   C1362   1.384   1_545 S
C893   H900    1.083   .     S
C893   C1094   1.383   .     S
C894   F897    1.358   .     S
C894   C1126   1.384   .     S
Cu895  O932    1.958   .     S
Cu895  N923    2.043   .     S
Cu895  O931    1.963   .     S
Cu895  O935    1.969   .     S
Cu895  O925    1.965   .     S
Cu896  O930    1.963   .     S
Cu896  O934    1.969   .     S
Cu896  N924    2.043   .     S
Cu896  O933    1.958   .     S
Cu896  O929    1.965   .     S
Cu896  Cu739   2.718   1_655 S
H916   C719    1.084   1_655 S
O929   C714    1.302   1_655 S
O933   C712    1.307   1_655 S
C937   O1008   1.305   .     A
C937   C1018   1.452   .     S
C937   O1081   1.302   .     S
C938   C940    1.405   .     A
C938   F976    1.358   .     S
C939   C972    1.405   .     A
C939   C1026   1.451   .     S
C939   C1049   1.400   .     S
C940   C1093   1.452   1_455 S
C940   C1126   1.400   1_455 S
C941   O1005   1.387   .     S
C941   C943    1.440   .     A
C941   N1002   1.375   .     A
C942   N1001   1.375   .     A
C942   C944    1.440   .     A
C942   O1006   1.387   .     S
C943   H979    1.081   .     S
C943   N1001   1.368   .     A
C944   N1002   1.368   .     A
C944   H980    1.081   .     S
C945   O1012   1.303   .     A
C945   C947    1.459   .     S
C945   O1088   1.307   .     S
C946   O1013   1.303   .     A
C946   C949    1.459   .     S
C946   O1167   1.307   1_455 S
C947   C954    1.401   .     A
C947   C952    1.389   .     A
C948   O1009   1.305   .     A
C948   C1095   1.451   1_455 S
C948   O1163   1.302   1_455 S
C949   C955    1.401   .     A
C949   C953    1.389   .     A
C950   C952    1.383   .     A
C950   H996    1.061   .     S
C950   C958    1.398   .     A
C951   C953    1.383   .     A
C951   H997    1.061   .     S
C951   C960    1.398   .     A
C952   H1073   1.084   .     S
C953   H1150   1.084   1_455 S
C954   H988    1.076   .     S
C954   C956    1.411   .     A
C955   C957    1.411   .     A
C955   H977    1.075   .     S
C956   C958    1.410   .     A
C956   C961    1.417   .     A
C957   C962    1.417   .     A
C957   C960    1.410   .     A
C958   C266    1.403   1_556 S
C959   C962    1.402   .     A
C959   H998    1.077   .     S
C959   C968    1.390   .     A
C961   C967    1.402   .     A
C961   C260    1.424   1_556 S
C963   O1014   1.412   .     S
C963   H981    1.109   .     S
C963   H982    1.111   .     S
C963   H983    1.114   .     S
C964   O1004   1.412   .     S
C964   H986    1.109   .     S
C964   H985    1.114   .     S
C964   H984    1.111   .     S
C965   H990    1.109   .     S
C965   O1005   1.413   .     S
C965   H989    1.115   .     S
C965   H987    1.110   .     S
C966   H993    1.109   .     S
C966   O1006   1.412   .     S
C966   H992    1.115   .     S
C966   H991    1.110   .     S
C967   C969    1.389   .     A
C967   H999    1.077   .     S
C968   O1014   1.378   .     S
C969   O1004   1.378   .     S
C969   C258    1.403   1_556 S
C970   H1000   1.084   .     S
C970   C1018   1.400   .     S
C971   H978    1.083   .     S
C971   C1172   1.383   .     S
C971   C1095   1.400   1_455 S
C972   F975    1.358   .     S
C972   C1204   1.384   .     S
Cu973  O1010   1.958   .     S
Cu973  N1001   2.043   .     S
Cu973  O1009   1.963   .     S
Cu973  O1013   1.969   .     S
Cu973  O1003   1.965   .     S
Cu973  Cu1130  2.718   1_455 S
Cu974  O1008   1.963   .     S
Cu974  O1012   1.969   .     S
Cu974  N1002   2.043   .     S
Cu974  O1011   1.958   .     S
Cu974  O1007   1.965   .     S
Cu974  Cu1051  2.718   .     S
H994   C1031   1.084   .     S
H995   C1108   1.084   1_455 S
O1003  C1093   1.302   1_455 S
O1007  C1026   1.302   .     S
O1010  C1101   1.307   1_455 S
O1011  C1024   1.307   .     S
C1015  O1086   1.305   .     A
C1015  C1096   1.452   .     S
C1015  O1159   1.302   .     S
C1016  C1018   1.405   .     A
C1016  F1054   1.358   .     S
C1017  C1050   1.405   .     A
C1017  C1104   1.451   .     S
C1017  C1127   1.400   .     S
C1019  O1083   1.387   .     S
C1019  C1021   1.440   .     A
C1019  N1080   1.375   .     A
C1020  N1079   1.375   .     A
C1020  C1022   1.440   .     A
C1020  O1084   1.387   .     S
C1021  H1057   1.081   .     S
C1021  N1079   1.368   .     A
C1022  N1080   1.368   .     A
C1022  H1058   1.081   .     S
C1023  O1090   1.303   .     A
C1023  C1025   1.459   .     S
C1023  O1166   1.307   .     S
C1024  O1091   1.303   .     A
C1024  C1027   1.459   .     S
C1025  C1032   1.401   .     A
C1025  C1030   1.389   .     A
C1026  O1087   1.305   .     A
C1027  C1033   1.401   .     A
C1027  C1031   1.389   .     A
C1028  C1030   1.383   .     A
C1028  H1074   1.061   .     S
C1028  C1036   1.398   .     A
C1029  C1031   1.383   .     A
C1029  H1075   1.061   .     S
C1029  C1038   1.398   .     A
C1030  H1151   1.084   .     S
C1032  H1066   1.076   .     S
C1032  C1034   1.411   .     A
C1033  C1035   1.411   .     A
C1033  H1055   1.075   .     S
C1034  C1036   1.410   .     A
C1034  C1039   1.417   .     A
C1035  C1040   1.417   .     A
C1035  C1038   1.410   .     A
C1036  C344    1.403   1_556 S
C1037  C1040   1.402   .     A
C1037  H1076   1.077   .     S
C1037  C1046   1.390   .     A
C1039  C1045   1.402   .     A
C1039  C338    1.424   1_556 S
C1041  O1092   1.412   .     S
C1041  H1059   1.109   .     S
C1041  H1060   1.111   .     S
C1041  H1061   1.114   .     S
C1042  O1082   1.412   .     S
C1042  H1064   1.109   .     S
C1042  H1063   1.114   .     S
C1042  H1062   1.111   .     S
C1043  H1068   1.109   .     S
C1043  O1083   1.413   .     S
C1043  H1067   1.115   .     S
C1043  H1065   1.110   .     S
C1044  H1071   1.109   .     S
C1044  O1084   1.412   .     S
C1044  H1070   1.115   .     S
C1044  H1069   1.110   .     S
C1045  C1047   1.389   .     A
C1045  H1077   1.077   .     S
C1046  O1092   1.378   .     S
C1047  O1082   1.378   .     S
C1047  C336    1.403   1_556 S
C1048  H1078   1.084   .     S
C1048  C1096   1.400   .     S
C1049  H1056   1.083   .     S
C1049  C1250   1.383   .     S
C1050  F1053   1.358   .     S
C1050  C1282   1.384   .     S
Cu1051 O1088   1.958   .     S
Cu1051 N1079   2.043   .     S
Cu1051 O1087   1.963   .     S
Cu1051 O1091   1.969   .     S
Cu1051 O1081   1.965   .     S
Cu1052 O1086   1.963   .     S
Cu1052 O1090   1.969   .     S
Cu1052 N1080   2.043   .     S
Cu1052 O1089   1.958   .     S
Cu1052 O1085   1.965   .     S
Cu1052 Cu1129  2.718   .     S
H1072  C1109   1.084   .     S
O1085  C1104   1.302   .     S
O1089  C1102   1.307   .     S
C1093  O1164   1.305   .     A
C1093  C940    1.452   1_655 S
C1093  O1003   1.302   1_655 S
C1094  C1096   1.405   .     A
C1094  F1132   1.358   .     S
C1095  C1128   1.405   .     A
C1095  C948    1.451   1_655 S
C1095  C971    1.400   1_655 S
C1097  O1161   1.387   .     S
C1097  C1099   1.440   .     A
C1097  N1158   1.375   .     A
C1098  N1157   1.375   .     A
C1098  C1100   1.440   .     A
C1098  O1162   1.387   .     S
C1099  H1135   1.081   .     S
C1099  N1157   1.368   .     A
C1100  N1158   1.368   .     A
C1100  H1136   1.081   .     S
C1101  O1168   1.303   .     A
C1101  C1103   1.459   .     S
C1101  O1010   1.307   1_655 S
C1102  O1169   1.303   .     A
C1102  C1105   1.459   .     S
C1103  C1110   1.401   .     A
C1103  C1108   1.389   .     A
C1104  O1165   1.305   .     A
C1105  C1111   1.401   .     A
C1105  C1109   1.389   .     A
C1106  C1108   1.383   .     A
C1106  H1152   1.061   .     S
C1106  C1114   1.398   .     A
C1107  C1109   1.383   .     A
C1107  H1153   1.061   .     S
C1107  C1116   1.398   .     A
C1108  H995    1.084   1_655 S
C1110  H1144   1.076   .     S
C1110  C1112   1.411   .     A
C1111  C1113   1.411   .     A
C1111  H1133   1.075   .     S
C1112  C1114   1.410   .     A
C1112  C1117   1.417   .     A
C1113  C1118   1.417   .     A
C1113  C1116   1.410   .     A
C1114  C422    1.403   1_556 S
C1115  C1118   1.402   .     A
C1115  H1154   1.077   .     S
C1115  C1124   1.390   .     A
C1117  C1123   1.402   .     A
C1117  C416    1.424   1_556 S
C1119  O1170   1.412   .     S
C1119  H1137   1.109   .     S
C1119  H1138   1.111   .     S
C1119  H1139   1.114   .     S
C1120  O1160   1.412   .     S
C1120  H1142   1.109   .     S
C1120  H1141   1.114   .     S
C1120  H1140   1.111   .     S
C1121  H1146   1.109   .     S
C1121  O1161   1.413   .     S
C1121  H1145   1.115   .     S
C1121  H1143   1.110   .     S
C1122  H1149   1.109   .     S
C1122  O1162   1.412   .     S
C1122  H1148   1.115   .     S
C1122  H1147   1.110   .     S
C1123  C1125   1.389   .     A
C1123  H1155   1.077   .     S
C1124  O1170   1.378   .     S
C1125  O1160   1.378   .     S
C1125  C414    1.403   1_556 S
C1126  H1156   1.084   .     S
C1126  C940    1.400   1_655 S
C1127  H1134   1.083   .     S
C1127  C1328   1.383   .     S
C1128  F1131   1.358   .     S
C1128  C1360   1.384   .     S
Cu1129 O1166   1.958   .     S
Cu1129 N1157   2.043   .     S
Cu1129 O1165   1.963   .     S
Cu1129 O1169   1.969   .     S
Cu1129 O1159   1.965   .     S
Cu1130 O1164   1.963   .     S
Cu1130 O1168   1.969   .     S
Cu1130 N1158   2.043   .     S
Cu1130 O1167   1.958   .     S
Cu1130 O1163   1.965   .     S
Cu1130 Cu973   2.718   1_655 S
H1150  C953    1.084   1_655 S
O1163  C948    1.302   1_655 S
O1167  C946    1.307   1_655 S
C1171  O1242   1.305   .     A
C1171  C1252   1.452   .     S
C1171  O1315   1.302   .     S
C1172  C1174   1.405   .     A
C1172  F1210   1.358   .     S
C1173  C1206   1.405   .     A
C1173  C1260   1.451   .     S
C1173  C1283   1.400   .     S
C1174  C1327   1.452   1_455 S
C1174  C1360   1.400   1_455 S
C1175  O1239   1.387   .     S
C1175  C1177   1.440   .     A
C1175  N1236   1.375   .     A
C1176  N1235   1.375   .     A
C1176  C1178   1.440   .     A
C1176  O1240   1.387   .     S
C1177  H1213   1.081   .     S
C1177  N1235   1.368   .     A
C1178  N1236   1.368   .     A
C1178  H1214   1.081   .     S
C1179  O1246   1.303   .     A
C1179  C1181   1.459   .     S
C1179  O1322   1.307   .     S
C1180  O1247   1.303   .     A
C1180  C1183   1.459   .     S
C1180  O1401   1.307   1_455 S
C1181  C1188   1.401   .     A
C1181  C1186   1.389   .     A
C1182  O1243   1.305   .     A
C1182  C1329   1.451   1_455 S
C1182  O1397   1.302   1_455 S
C1183  C1189   1.401   .     A
C1183  C1187   1.389   .     A
C1184  C1186   1.383   .     A
C1184  H1230   1.061   .     S
C1184  C1192   1.398   .     A
C1185  C1187   1.383   .     A
C1185  H1231   1.061   .     S
C1185  C1194   1.398   .     A
C1186  H1307   1.084   .     S
C1187  H1384   1.084   1_455 S
C1188  H1222   1.076   .     S
C1188  C1190   1.411   .     A
C1189  C1191   1.411   .     A
C1189  H1211   1.075   .     S
C1190  C1192   1.410   .     A
C1190  C1195   1.417   .     A
C1191  C1196   1.417   .     A
C1191  C1194   1.410   .     A
C1192  C500    1.403   1_556 S
C1193  C1196   1.402   .     A
C1193  H1232   1.077   .     S
C1193  C1202   1.390   .     A
C1195  C1201   1.402   .     A
C1195  C494    1.424   1_556 S
C1197  O1248   1.412   .     S
C1197  H1215   1.109   .     S
C1197  H1216   1.111   .     S
C1197  H1217   1.114   .     S
C1198  O1238   1.412   .     S
C1198  H1220   1.109   .     S
C1198  H1219   1.114   .     S
C1198  H1218   1.111   .     S
C1199  H1224   1.109   .     S
C1199  O1239   1.413   .     S
C1199  H1223   1.115   .     S
C1199  H1221   1.110   .     S
C1200  H1227   1.109   .     S
C1200  O1240   1.412   .     S
C1200  H1226   1.115   .     S
C1200  H1225   1.110   .     S
C1201  C1203   1.389   .     A
C1201  H1233   1.077   .     S
C1202  O1248   1.378   .     S
C1203  O1238   1.378   .     S
C1203  C492    1.403   1_556 S
C1204  H1234   1.084   .     S
C1204  C1252   1.400   .     S
C1205  H1212   1.083   .     S
C1205  C704    1.383   1_565 S
C1205  C1329   1.400   1_455 S
C1206  F1209   1.358   .     S
C1206  C736    1.384   1_565 S
Cu1207 O1244   1.958   .     S
Cu1207 N1235   2.043   .     S
Cu1207 O1243   1.963   .     S
Cu1207 O1247   1.969   .     S
Cu1207 O1237   1.965   .     S
Cu1207 Cu1364  2.718   1_455 S
Cu1208 O1242   1.963   .     S
Cu1208 O1246   1.969   .     S
Cu1208 N1236   2.043   .     S
Cu1208 O1245   1.958   .     S
Cu1208 O1241   1.965   .     S
Cu1208 Cu1285  2.718   .     S
H1228  C1265   1.084   .     S
H1229  C1342   1.084   1_455 S
O1237  C1327   1.302   1_455 S
O1241  C1260   1.302   .     S
O1244  C1335   1.307   1_455 S
O1245  C1258   1.307   .     S
C1249  O1320   1.305   .     A
C1249  C1330   1.452   .     S
C1249  O1393   1.302   .     S
C1250  C1252   1.405   .     A
C1250  F1288   1.358   .     S
C1251  C1284   1.405   .     A
C1251  C1338   1.451   .     S
C1251  C1361   1.400   .     S
C1253  O1317   1.387   .     S
C1253  C1255   1.440   .     A
C1253  N1314   1.375   .     A
C1254  N1313   1.375   .     A
C1254  C1256   1.440   .     A
C1254  O1318   1.387   .     S
C1255  H1291   1.081   .     S
C1255  N1313   1.368   .     A
C1256  N1314   1.368   .     A
C1256  H1292   1.081   .     S
C1257  O1324   1.303   .     A
C1257  C1259   1.459   .     S
C1257  O1400   1.307   .     S
C1258  O1325   1.303   .     A
C1258  C1261   1.459   .     S
C1259  C1266   1.401   .     A
C1259  C1264   1.389   .     A
C1260  O1321   1.305   .     A
C1261  C1267   1.401   .     A
C1261  C1265   1.389   .     A
C1262  C1264   1.383   .     A
C1262  H1308   1.061   .     S
C1262  C1270   1.398   .     A
C1263  C1265   1.383   .     A
C1263  H1309   1.061   .     S
C1263  C1272   1.398   .     A
C1264  H1385   1.084   .     S
C1266  H1300   1.076   .     S
C1266  C1268   1.411   .     A
C1267  C1269   1.411   .     A
C1267  H1289   1.075   .     S
C1268  C1270   1.410   .     A
C1268  C1273   1.417   .     A
C1269  C1274   1.417   .     A
C1269  C1272   1.410   .     A
C1270  C578    1.403   1_556 S
C1271  C1274   1.402   .     A
C1271  H1310   1.077   .     S
C1271  C1280   1.390   .     A
C1273  C1279   1.402   .     A
C1273  C572    1.424   1_556 S
C1275  O1326   1.412   .     S
C1275  H1293   1.109   .     S
C1275  H1294   1.111   .     S
C1275  H1295   1.114   .     S
C1276  O1316   1.412   .     S
C1276  H1298   1.109   .     S
C1276  H1297   1.114   .     S
C1276  H1296   1.111   .     S
C1277  H1302   1.109   .     S
C1277  O1317   1.413   .     S
C1277  H1301   1.115   .     S
C1277  H1299   1.110   .     S
C1278  H1305   1.109   .     S
C1278  O1318   1.412   .     S
C1278  H1304   1.115   .     S
C1278  H1303   1.110   .     S
C1279  C1281   1.389   .     A
C1279  H1311   1.077   .     S
C1280  O1326   1.378   .     S
C1281  O1316   1.378   .     S
C1281  C570    1.403   1_556 S
C1282  H1312   1.084   .     S
C1282  C1330   1.400   .     S
C1283  H1290   1.083   .     S
C1283  C782    1.383   1_565 S
C1284  F1287   1.358   .     S
C1284  C814    1.384   1_565 S
Cu1285 O1322   1.958   .     S
Cu1285 N1313   2.043   .     S
Cu1285 O1321   1.963   .     S
Cu1285 O1325   1.969   .     S
Cu1285 O1315   1.965   .     S
Cu1286 O1320   1.963   .     S
Cu1286 O1324   1.969   .     S
Cu1286 N1314   2.043   .     S
Cu1286 O1323   1.958   .     S
Cu1286 O1319   1.965   .     S
Cu1286 Cu1363  2.718   .     S
H1306  C1343   1.084   .     S
O1319  C1338   1.302   .     S
O1323  C1336   1.307   .     S
C1327  O1398   1.305   .     A
C1327  C1174   1.452   1_655 S
C1327  O1237   1.302   1_655 S
C1328  C1330   1.405   .     A
C1328  F1366   1.358   .     S
C1329  C1362   1.405   .     A
C1329  C1182   1.451   1_655 S
C1329  C1205   1.400   1_655 S
C1331  O1395   1.387   .     S
C1331  C1333   1.440   .     A
C1331  N1392   1.375   .     A
C1332  N1391   1.375   .     A
C1332  C1334   1.440   .     A
C1332  O1396   1.387   .     S
C1333  H1369   1.081   .     S
C1333  N1391   1.368   .     A
C1334  N1392   1.368   .     A
C1334  H1370   1.081   .     S
C1335  O1402   1.303   .     A
C1335  C1337   1.459   .     S
C1335  O1244   1.307   1_655 S
C1336  O1403   1.303   .     A
C1336  C1339   1.459   .     S
C1337  C1344   1.401   .     A
C1337  C1342   1.389   .     A
C1338  O1399   1.305   .     A
C1339  C1345   1.401   .     A
C1339  C1343   1.389   .     A
C1340  C1342   1.383   .     A
C1340  H1386   1.061   .     S
C1340  C1348   1.398   .     A
C1341  C1343   1.383   .     A
C1341  H1387   1.061   .     S
C1341  C1350   1.398   .     A
C1342  H1229   1.084   1_655 S
C1344  H1378   1.076   .     S
C1344  C1346   1.411   .     A
C1345  C1347   1.411   .     A
C1345  H1367   1.075   .     S
C1346  C1348   1.410   .     A
C1346  C1351   1.417   .     A
C1347  C1352   1.417   .     A
C1347  C1350   1.410   .     A
C1348  C656    1.403   1_556 S
C1349  C1352   1.402   .     A
C1349  H1388   1.077   .     S
C1349  C1358   1.390   .     A
C1351  C1357   1.402   .     A
C1351  C650    1.424   1_556 S
C1353  O1404   1.412   .     S
C1353  H1371   1.109   .     S
C1353  H1372   1.111   .     S
C1353  H1373   1.114   .     S
C1354  O1394   1.412   .     S
C1354  H1376   1.109   .     S
C1354  H1375   1.114   .     S
C1354  H1374   1.111   .     S
C1355  H1380   1.109   .     S
C1355  O1395   1.413   .     S
C1355  H1379   1.115   .     S
C1355  H1377   1.110   .     S
C1356  H1383   1.109   .     S
C1356  O1396   1.412   .     S
C1356  H1382   1.115   .     S
C1356  H1381   1.110   .     S
C1357  C1359   1.389   .     A
C1357  H1389   1.077   .     S
C1358  O1404   1.378   .     S
C1359  O1394   1.378   .     S
C1359  C648    1.403   1_556 S
C1360  H1390   1.084   .     S
C1360  C1174   1.400   1_655 S
C1361  H1368   1.083   .     S
C1361  C860    1.383   1_565 S
C1362  F1365   1.358   .     S
C1362  C892    1.384   1_565 S
Cu1363 O1400   1.958   .     S
Cu1363 N1391   2.043   .     S
Cu1363 O1399   1.963   .     S
Cu1363 O1403   1.969   .     S
Cu1363 O1393   1.965   .     S
Cu1364 O1398   1.963   .     S
Cu1364 O1402   1.969   .     S
Cu1364 N1392   2.043   .     S
Cu1364 O1401   1.958   .     S
Cu1364 O1397   1.965   .     S
Cu1364 Cu1207  2.718   1_655 S
H1384  C1187   1.084   1_655 S
O1397  C1182   1.302   1_655 S
O1401  C1180   1.307   1_655 S
