data_str_m2_o1_o16_pcu_sym.7
_audit_creation_date              2020-01-03
_audit_creation_method            'Materials Studio'
_symmetry_space_group_name_H-M    'P1'
_symmetry_Int_Tables_number       1
_symmetry_cell_setting            triclinic
loop_
_symmetry_equiv_pos_as_xyz
  x,y,z
_cell_length_a                    28.8415
_cell_length_b                    32.4275
_cell_length_c                    27.0170
_cell_angle_alpha                 91.7808
_cell_angle_beta                  73.3732
_cell_angle_gamma                 91.9867
loop_
_atom_site_label
_atom_site_type_symbol
_atom_site_fract_x
_atom_site_fract_y
_atom_site_fract_z
_atom_site_U_iso_or_equiv
_atom_site_adp_type
_atom_site_occupancy
C1     C     0.16732   0.24581   0.24997   0.00000  Uiso   1.00
C2     C     0.12793   0.15291   0.40498   0.00000  Uiso   1.00
C3     C     0.19843   0.31354   0.27255   0.00000  Uiso   1.00
C4     C     0.14124   0.16231   0.34926   0.00000  Uiso   1.00
C5     C     0.19709   0.02298   0.27341   0.00000  Uiso   1.00
C6     C     0.16611   0.04260   0.25037   0.00000  Uiso   1.00
C7     C     0.13742   0.01911   0.22571   0.00000  Uiso   1.00
C8     C     0.13806   0.30988   0.22561   0.00000  Uiso   1.00
C9     C     0.16838   0.29034   0.24917   0.00000  Uiso   1.00
C10    C     0.30339   0.19750   0.27448   0.00000  Uiso   1.00
C11    C     0.01964   0.19786   0.27375   0.00000  Uiso   1.00
C12    C     0.14822   0.15224   0.48724   0.00000  Uiso   1.00
C13    C     0.02793   0.13464   0.22694   0.00000  Uiso   1.00
C14    C     0.31295   0.13667   0.22489   0.00000  Uiso   1.00
C15    C     0.16620   0.08739   0.25002   0.00000  Uiso   1.00
C16    C     0.19250   0.16773   0.15036   0.00000  Uiso   1.00
C17    C     0.26872   0.16846   0.01180   0.00000  Uiso   1.00
C18    C     0.20711   0.16803   0.09383   0.00000  Uiso   1.00
C19    C     0.07885   0.14726   0.43185   0.00000  Uiso   1.00
C20    C     0.06486   0.14175   0.48490   0.00000  Uiso   1.00
C21    C     0.09844   0.14639   0.01266   0.00000  Uiso   1.00
C22    C     0.04953   0.09297   0.20875   0.00000  Uiso   1.00
C23    C     0.16336   0.15016   0.43247   0.00000  Uiso   1.00
C24    C     0.08681   0.09321   0.15565   0.00000  Uiso   1.00
C25    C     0.18369   0.15864   0.01426   0.00000  Uiso   1.00
C26    C     0.23344   0.15998   0.48639   0.00000  Uiso   1.00
C27    C     0.24765   0.15124   0.43371   0.00000  Uiso   1.00
C28    C     0.21317   0.14445   0.40765   0.00000  Uiso   1.00
C29    C     0.17141   0.16444   0.06802   0.00000  Uiso   1.00
C30    C     0.25591   0.17127   0.06542   0.00000  Uiso   1.00
Cu31   Cu    0.11978   0.16666   0.25000   0.00000  Uiso   1.00
Cu32   Cu    0.21355   0.16667   0.25000   0.00000  Uiso   1.00
H33    H     0.28406   0.17590   0.08450   0.00000  Uiso   1.00
H34    H     0.13427   0.16644   0.09063   0.00000  Uiso   1.00
H35    H     0.05124   0.14650   0.41180   0.00000  Uiso   1.00
H36    H     0.08434   0.14368   0.05378   0.00000  Uiso   1.00
H37    H     0.02764   0.13453   0.00527   0.00000  Uiso   1.00
H38    H     0.22680   0.13276   0.36862   0.00000  Uiso   1.00
H39    H     0.22200   0.29865   0.29096   0.00000  Uiso   1.00
H40    H     0.07848   0.11744   0.13189   0.00000  Uiso   1.00
H41    H     0.12407   0.09734   0.15855   0.00000  Uiso   1.00
H42    H     0.08541   0.06309   0.13530   0.00000  Uiso   1.00
H43    H     0.05975   0.07788   0.23971   0.00000  Uiso   1.00
H44    H     0.21998   0.04070   0.29228   0.00000  Uiso   1.00
H45    H     0.02083   0.07053   0.20423   0.00000  Uiso   1.00
H46    H     0.11566   0.03314   0.20507   0.00000  Uiso   1.00
H47    H     0.11542   0.29223   0.20636   0.00000  Uiso   1.00
H48    H     0.28065   0.22218   0.29452   0.00000  Uiso   1.00
H49    H     0.03369   0.22284   0.29320   0.00000  Uiso   1.00
H50    H     0.29731   0.11289   0.20511   0.00000  Uiso   1.00
H51    H     0.28563   0.14867   0.41270   0.00000  Uiso   1.00
H52    H     0.30615   0.17256   0.48982   0.00000  Uiso   1.00
N53    N     0.04931   0.16666   0.24998   0.00000  Uiso   1.00
N54    N     0.28402   0.16669   0.24999   0.00000  Uiso   1.00
O55    O     0.12708   0.22678   0.25000   0.00000  Uiso   1.00
O56    O     0.20627   0.22679   0.25000   0.00000  Uiso   1.00
O57    O     0.10775   0.16665   0.32549   0.00000  Uiso   1.00
O58    O     0.18694   0.16666   0.32549   0.00000  Uiso   1.00
O59    O     0.12706   0.10654   0.24999   0.00000  Uiso   1.00
O60    O     0.20625   0.10655   0.24999   0.00000  Uiso   1.00
O61    O     0.14640   0.16667   0.17451   0.00000  Uiso   1.00
O62    O     0.22559   0.16668   0.17451   0.00000  Uiso   1.00
C63    C     0.50065   0.24581   0.24997   0.00000  Uiso   1.00
C64    C     0.46127   0.15291   0.40498   0.00000  Uiso   1.00
C65    C     0.53176   0.31354   0.27255   0.00000  Uiso   1.00
C66    C     0.47457   0.16231   0.34926   0.00000  Uiso   1.00
C67    C     0.53042   0.02298   0.27341   0.00000  Uiso   1.00
C68    C     0.49945   0.04260   0.25037   0.00000  Uiso   1.00
C69    C     0.47075   0.01911   0.22571   0.00000  Uiso   1.00
C70    C     0.47139   0.30988   0.22561   0.00000  Uiso   1.00
C71    C     0.50172   0.29034   0.24917   0.00000  Uiso   1.00
C72    C     0.63672   0.19750   0.27448   0.00000  Uiso   1.00
C73    C     0.35297   0.19786   0.27375   0.00000  Uiso   1.00
C74    C     0.48155   0.15224   0.48724   0.00000  Uiso   1.00
C75    C     0.36127   0.13464   0.22694   0.00000  Uiso   1.00
C76    C     0.64628   0.13667   0.22489   0.00000  Uiso   1.00
C77    C     0.49953   0.08739   0.25002   0.00000  Uiso   1.00
C78    C     0.52583   0.16773   0.15036   0.00000  Uiso   1.00
C79    C     0.60206   0.16846   0.01180   0.00000  Uiso   1.00
C80    C     0.54044   0.16803   0.09383   0.00000  Uiso   1.00
C81    C     0.41219   0.14726   0.43185   0.00000  Uiso   1.00
C82    C     0.39820   0.14175   0.48490   0.00000  Uiso   1.00
C83    C     0.43177   0.14639   0.01266   0.00000  Uiso   1.00
C84    C     0.38286   0.09297   0.20875   0.00000  Uiso   1.00
C85    C     0.49669   0.15016   0.43247   0.00000  Uiso   1.00
C86    C     0.42014   0.09321   0.15565   0.00000  Uiso   1.00
C87    C     0.51702   0.15864   0.01426   0.00000  Uiso   1.00
C88    C     0.56677   0.15998   0.48639   0.00000  Uiso   1.00
C89    C     0.58099   0.15124   0.43371   0.00000  Uiso   1.00
C90    C     0.54650   0.14445   0.40765   0.00000  Uiso   1.00
C91    C     0.50475   0.16444   0.06802   0.00000  Uiso   1.00
C92    C     0.58925   0.17127   0.06542   0.00000  Uiso   1.00
Cu93   Cu    0.45311   0.16666   0.25000   0.00000  Uiso   1.00
Cu94   Cu    0.54689   0.16667   0.25000   0.00000  Uiso   1.00
H95    H     0.61739   0.17590   0.08450   0.00000  Uiso   1.00
H96    H     0.46760   0.16644   0.09063   0.00000  Uiso   1.00
H97    H     0.38457   0.14650   0.41180   0.00000  Uiso   1.00
H98    H     0.41767   0.14368   0.05378   0.00000  Uiso   1.00
H99    H     0.36098   0.13453   0.00527   0.00000  Uiso   1.00
H100   H     0.56013   0.13276   0.36862   0.00000  Uiso   1.00
H101   H     0.55534   0.29865   0.29096   0.00000  Uiso   1.00
H102   H     0.41181   0.11744   0.13189   0.00000  Uiso   1.00
H103   H     0.45740   0.09734   0.15855   0.00000  Uiso   1.00
H104   H     0.41874   0.06309   0.13530   0.00000  Uiso   1.00
H105   H     0.39308   0.07788   0.23971   0.00000  Uiso   1.00
H106   H     0.55331   0.04070   0.29228   0.00000  Uiso   1.00
H107   H     0.35416   0.07053   0.20423   0.00000  Uiso   1.00
H108   H     0.44900   0.03314   0.20507   0.00000  Uiso   1.00
H109   H     0.44875   0.29223   0.20636   0.00000  Uiso   1.00
H110   H     0.61399   0.22218   0.29452   0.00000  Uiso   1.00
H111   H     0.36702   0.22284   0.29320   0.00000  Uiso   1.00
H112   H     0.63064   0.11289   0.20511   0.00000  Uiso   1.00
H113   H     0.61897   0.14867   0.41270   0.00000  Uiso   1.00
H114   H     0.63948   0.17256   0.48982   0.00000  Uiso   1.00
N115   N     0.38265   0.16666   0.24998   0.00000  Uiso   1.00
N116   N     0.61735   0.16669   0.24999   0.00000  Uiso   1.00
O117   O     0.46042   0.22678   0.25000   0.00000  Uiso   1.00
O118   O     0.53961   0.22679   0.25000   0.00000  Uiso   1.00
O119   O     0.44108   0.16665   0.32549   0.00000  Uiso   1.00
O120   O     0.52027   0.16666   0.32549   0.00000  Uiso   1.00
O121   O     0.46039   0.10654   0.24999   0.00000  Uiso   1.00
O122   O     0.53958   0.10655   0.24999   0.00000  Uiso   1.00
O123   O     0.47973   0.16667   0.17451   0.00000  Uiso   1.00
O124   O     0.55892   0.16668   0.17451   0.00000  Uiso   1.00
C125   C     0.83399   0.24581   0.24997   0.00000  Uiso   1.00
C126   C     0.79460   0.15291   0.40498   0.00000  Uiso   1.00
C127   C     0.86510   0.31354   0.27255   0.00000  Uiso   1.00
C128   C     0.80791   0.16231   0.34926   0.00000  Uiso   1.00
C129   C     0.86375   0.02298   0.27341   0.00000  Uiso   1.00
C130   C     0.83278   0.04260   0.25037   0.00000  Uiso   1.00
C131   C     0.80409   0.01911   0.22571   0.00000  Uiso   1.00
C132   C     0.80473   0.30988   0.22561   0.00000  Uiso   1.00
C133   C     0.83505   0.29034   0.24917   0.00000  Uiso   1.00
C134   C     0.97006   0.19750   0.27448   0.00000  Uiso   1.00
C135   C     0.68631   0.19786   0.27375   0.00000  Uiso   1.00
C136   C     0.81488   0.15224   0.48724   0.00000  Uiso   1.00
C137   C     0.69460   0.13464   0.22694   0.00000  Uiso   1.00
C138   C     0.97961   0.13667   0.22489   0.00000  Uiso   1.00
C139   C     0.83286   0.08739   0.25002   0.00000  Uiso   1.00
C140   C     0.85916   0.16773   0.15036   0.00000  Uiso   1.00
C141   C     0.93539   0.16846   0.01180   0.00000  Uiso   1.00
C142   C     0.87377   0.16803   0.09383   0.00000  Uiso   1.00
C143   C     0.74552   0.14726   0.43185   0.00000  Uiso   1.00
C144   C     0.73153   0.14175   0.48490   0.00000  Uiso   1.00
C145   C     0.76511   0.14639   0.01266   0.00000  Uiso   1.00
C146   C     0.71619   0.09297   0.20875   0.00000  Uiso   1.00
C147   C     0.83003   0.15016   0.43247   0.00000  Uiso   1.00
C148   C     0.75348   0.09321   0.15565   0.00000  Uiso   1.00
C149   C     0.85036   0.15864   0.01426   0.00000  Uiso   1.00
C150   C     0.90010   0.15998   0.48639   0.00000  Uiso   1.00
C151   C     0.91432   0.15124   0.43371   0.00000  Uiso   1.00
C152   C     0.87983   0.14445   0.40765   0.00000  Uiso   1.00
C153   C     0.83808   0.16444   0.06802   0.00000  Uiso   1.00
C154   C     0.92258   0.17127   0.06542   0.00000  Uiso   1.00
Cu155  Cu    0.78645   0.16666   0.25000   0.00000  Uiso   1.00
Cu156  Cu    0.88022   0.16667   0.25000   0.00000  Uiso   1.00
H157   H     0.95072   0.17590   0.08450   0.00000  Uiso   1.00
H158   H     0.80094   0.16644   0.09063   0.00000  Uiso   1.00
H159   H     0.71790   0.14650   0.41180   0.00000  Uiso   1.00
H160   H     0.75100   0.14368   0.05378   0.00000  Uiso   1.00
H161   H     0.69431   0.13453   0.00527   0.00000  Uiso   1.00
H162   H     0.89347   0.13276   0.36862   0.00000  Uiso   1.00
H163   H     0.88867   0.29865   0.29096   0.00000  Uiso   1.00
H164   H     0.74515   0.11744   0.13189   0.00000  Uiso   1.00
H165   H     0.79074   0.09734   0.15855   0.00000  Uiso   1.00
H166   H     0.75208   0.06309   0.13530   0.00000  Uiso   1.00
H167   H     0.72642   0.07788   0.23971   0.00000  Uiso   1.00
H168   H     0.88664   0.04070   0.29228   0.00000  Uiso   1.00
H169   H     0.68749   0.07053   0.20423   0.00000  Uiso   1.00
H170   H     0.78233   0.03314   0.20507   0.00000  Uiso   1.00
H171   H     0.78208   0.29223   0.20636   0.00000  Uiso   1.00
H172   H     0.94732   0.22218   0.29452   0.00000  Uiso   1.00
H173   H     0.70035   0.22284   0.29320   0.00000  Uiso   1.00
H174   H     0.96397   0.11289   0.20511   0.00000  Uiso   1.00
H175   H     0.95230   0.14867   0.41270   0.00000  Uiso   1.00
H176   H     0.97281   0.17256   0.48982   0.00000  Uiso   1.00
N177   N     0.71598   0.16666   0.24998   0.00000  Uiso   1.00
N178   N     0.95069   0.16669   0.24999   0.00000  Uiso   1.00
O179   O     0.79375   0.22678   0.25000   0.00000  Uiso   1.00
O180   O     0.87294   0.22679   0.25000   0.00000  Uiso   1.00
O181   O     0.77441   0.16665   0.32549   0.00000  Uiso   1.00
O182   O     0.85360   0.16666   0.32549   0.00000  Uiso   1.00
O183   O     0.79373   0.10654   0.24999   0.00000  Uiso   1.00
O184   O     0.87292   0.10655   0.24999   0.00000  Uiso   1.00
O185   O     0.81306   0.16667   0.17451   0.00000  Uiso   1.00
O186   O     0.89225   0.16668   0.17451   0.00000  Uiso   1.00
C187   C     0.16732   0.57914   0.24997   0.00000  Uiso   1.00
C188   C     0.12793   0.48624   0.40498   0.00000  Uiso   1.00
C189   C     0.19843   0.64687   0.27255   0.00000  Uiso   1.00
C190   C     0.14124   0.49565   0.34926   0.00000  Uiso   1.00
C191   C     0.19709   0.35632   0.27341   0.00000  Uiso   1.00
C192   C     0.16611   0.37594   0.25037   0.00000  Uiso   1.00
C193   C     0.13742   0.35244   0.22571   0.00000  Uiso   1.00
C194   C     0.13806   0.64322   0.22561   0.00000  Uiso   1.00
C195   C     0.16838   0.62367   0.24917   0.00000  Uiso   1.00
C196   C     0.30339   0.53084   0.27448   0.00000  Uiso   1.00
C197   C     0.01964   0.53120   0.27375   0.00000  Uiso   1.00
C198   C     0.14822   0.48558   0.48724   0.00000  Uiso   1.00
C199   C     0.02793   0.46798   0.22694   0.00000  Uiso   1.00
C200   C     0.31295   0.47000   0.22489   0.00000  Uiso   1.00
C201   C     0.16620   0.42072   0.25002   0.00000  Uiso   1.00
C202   C     0.19250   0.50107   0.15036   0.00000  Uiso   1.00
C203   C     0.26872   0.50180   0.01180   0.00000  Uiso   1.00
C204   C     0.20711   0.50136   0.09383   0.00000  Uiso   1.00
C205   C     0.07885   0.48059   0.43185   0.00000  Uiso   1.00
C206   C     0.06486   0.47508   0.48490   0.00000  Uiso   1.00
C207   C     0.09844   0.47972   0.01266   0.00000  Uiso   1.00
C208   C     0.04953   0.42630   0.20875   0.00000  Uiso   1.00
C209   C     0.16336   0.48349   0.43247   0.00000  Uiso   1.00
C210   C     0.08681   0.42654   0.15565   0.00000  Uiso   1.00
C211   C     0.18369   0.49197   0.01426   0.00000  Uiso   1.00
C212   C     0.23344   0.49331   0.48639   0.00000  Uiso   1.00
C213   C     0.24765   0.48458   0.43371   0.00000  Uiso   1.00
C214   C     0.21317   0.47779   0.40765   0.00000  Uiso   1.00
C215   C     0.17141   0.49778   0.06802   0.00000  Uiso   1.00
C216   C     0.25591   0.50460   0.06542   0.00000  Uiso   1.00
Cu217  Cu    0.11978   0.49999   0.25000   0.00000  Uiso   1.00
Cu218  Cu    0.21355   0.50001   0.25000   0.00000  Uiso   1.00
H219   H     0.28406   0.50923   0.08450   0.00000  Uiso   1.00
H220   H     0.13427   0.49977   0.09063   0.00000  Uiso   1.00
H221   H     0.05124   0.47983   0.41180   0.00000  Uiso   1.00
H222   H     0.08434   0.47701   0.05378   0.00000  Uiso   1.00
H223   H     0.02764   0.46786   0.00527   0.00000  Uiso   1.00
H224   H     0.22680   0.46609   0.36862   0.00000  Uiso   1.00
H225   H     0.22200   0.63198   0.29096   0.00000  Uiso   1.00
H226   H     0.07848   0.45077   0.13189   0.00000  Uiso   1.00
H227   H     0.12407   0.43067   0.15855   0.00000  Uiso   1.00
H228   H     0.08541   0.39642   0.13530   0.00000  Uiso   1.00
H229   H     0.05975   0.41122   0.23971   0.00000  Uiso   1.00
H230   H     0.21998   0.37403   0.29228   0.00000  Uiso   1.00
H231   H     0.02083   0.40386   0.20423   0.00000  Uiso   1.00
H232   H     0.11566   0.36647   0.20507   0.00000  Uiso   1.00
H233   H     0.11542   0.62556   0.20636   0.00000  Uiso   1.00
H234   H     0.28065   0.55552   0.29452   0.00000  Uiso   1.00
H235   H     0.03369   0.55617   0.29320   0.00000  Uiso   1.00
H236   H     0.29731   0.44623   0.20511   0.00000  Uiso   1.00
H237   H     0.28563   0.48200   0.41270   0.00000  Uiso   1.00
H238   H     0.30615   0.50590   0.48982   0.00000  Uiso   1.00
N239   N     0.04931   0.49999   0.24998   0.00000  Uiso   1.00
N240   N     0.28402   0.50002   0.24999   0.00000  Uiso   1.00
O241   O     0.12708   0.56011   0.25000   0.00000  Uiso   1.00
O242   O     0.20627   0.56012   0.25000   0.00000  Uiso   1.00
O243   O     0.10775   0.49998   0.32549   0.00000  Uiso   1.00
O244   O     0.18694   0.49999   0.32549   0.00000  Uiso   1.00
O245   O     0.12706   0.43988   0.24999   0.00000  Uiso   1.00
O246   O     0.20625   0.43989   0.24999   0.00000  Uiso   1.00
O247   O     0.14640   0.50001   0.17451   0.00000  Uiso   1.00
O248   O     0.22559   0.50002   0.17451   0.00000  Uiso   1.00
C249   C     0.50065   0.57914   0.24997   0.00000  Uiso   1.00
C250   C     0.46127   0.48624   0.40498   0.00000  Uiso   1.00
C251   C     0.53176   0.64687   0.27255   0.00000  Uiso   1.00
C252   C     0.47457   0.49565   0.34926   0.00000  Uiso   1.00
C253   C     0.53042   0.35632   0.27341   0.00000  Uiso   1.00
C254   C     0.49945   0.37594   0.25037   0.00000  Uiso   1.00
C255   C     0.47075   0.35244   0.22571   0.00000  Uiso   1.00
C256   C     0.47139   0.64322   0.22561   0.00000  Uiso   1.00
C257   C     0.50172   0.62367   0.24917   0.00000  Uiso   1.00
C258   C     0.63672   0.53084   0.27448   0.00000  Uiso   1.00
C259   C     0.35297   0.53120   0.27375   0.00000  Uiso   1.00
C260   C     0.48155   0.48558   0.48724   0.00000  Uiso   1.00
C261   C     0.36127   0.46798   0.22694   0.00000  Uiso   1.00
C262   C     0.64628   0.47000   0.22489   0.00000  Uiso   1.00
C263   C     0.49953   0.42072   0.25002   0.00000  Uiso   1.00
C264   C     0.52583   0.50107   0.15036   0.00000  Uiso   1.00
C265   C     0.60206   0.50180   0.01180   0.00000  Uiso   1.00
C266   C     0.54044   0.50136   0.09383   0.00000  Uiso   1.00
C267   C     0.41219   0.48059   0.43185   0.00000  Uiso   1.00
C268   C     0.39820   0.47508   0.48490   0.00000  Uiso   1.00
C269   C     0.43177   0.47972   0.01266   0.00000  Uiso   1.00
C270   C     0.38286   0.42630   0.20875   0.00000  Uiso   1.00
C271   C     0.49669   0.48349   0.43247   0.00000  Uiso   1.00
C272   C     0.42014   0.42654   0.15565   0.00000  Uiso   1.00
C273   C     0.51702   0.49197   0.01426   0.00000  Uiso   1.00
C274   C     0.56677   0.49331   0.48639   0.00000  Uiso   1.00
C275   C     0.58099   0.48458   0.43371   0.00000  Uiso   1.00
C276   C     0.54650   0.47779   0.40765   0.00000  Uiso   1.00
C277   C     0.50475   0.49778   0.06802   0.00000  Uiso   1.00
C278   C     0.58925   0.50460   0.06542   0.00000  Uiso   1.00
Cu279  Cu    0.45311   0.49999   0.25000   0.00000  Uiso   1.00
Cu280  Cu    0.54689   0.50001   0.25000   0.00000  Uiso   1.00
H281   H     0.61739   0.50923   0.08450   0.00000  Uiso   1.00
H282   H     0.46760   0.49977   0.09063   0.00000  Uiso   1.00
H283   H     0.38457   0.47983   0.41180   0.00000  Uiso   1.00
H284   H     0.41767   0.47701   0.05378   0.00000  Uiso   1.00
H285   H     0.36098   0.46786   0.00527   0.00000  Uiso   1.00
H286   H     0.56013   0.46609   0.36862   0.00000  Uiso   1.00
H287   H     0.55534   0.63198   0.29096   0.00000  Uiso   1.00
H288   H     0.41181   0.45077   0.13189   0.00000  Uiso   1.00
H289   H     0.45740   0.43067   0.15855   0.00000  Uiso   1.00
H290   H     0.41874   0.39642   0.13530   0.00000  Uiso   1.00
H291   H     0.39308   0.41122   0.23971   0.00000  Uiso   1.00
H292   H     0.55331   0.37403   0.29228   0.00000  Uiso   1.00
H293   H     0.35416   0.40386   0.20423   0.00000  Uiso   1.00
H294   H     0.44900   0.36647   0.20507   0.00000  Uiso   1.00
H295   H     0.44875   0.62556   0.20636   0.00000  Uiso   1.00
H296   H     0.61399   0.55552   0.29452   0.00000  Uiso   1.00
H297   H     0.36702   0.55617   0.29320   0.00000  Uiso   1.00
H298   H     0.63064   0.44623   0.20511   0.00000  Uiso   1.00
H299   H     0.61897   0.48200   0.41270   0.00000  Uiso   1.00
H300   H     0.63948   0.50590   0.48982   0.00000  Uiso   1.00
N301   N     0.38265   0.49999   0.24998   0.00000  Uiso   1.00
N302   N     0.61735   0.50002   0.24999   0.00000  Uiso   1.00
O303   O     0.46042   0.56011   0.25000   0.00000  Uiso   1.00
O304   O     0.53961   0.56012   0.25000   0.00000  Uiso   1.00
O305   O     0.44108   0.49998   0.32549   0.00000  Uiso   1.00
O306   O     0.52027   0.49999   0.32549   0.00000  Uiso   1.00
O307   O     0.46039   0.43988   0.24999   0.00000  Uiso   1.00
O308   O     0.53958   0.43989   0.24999   0.00000  Uiso   1.00
O309   O     0.47973   0.50001   0.17451   0.00000  Uiso   1.00
O310   O     0.55892   0.50002   0.17451   0.00000  Uiso   1.00
C311   C     0.83399   0.57914   0.24997   0.00000  Uiso   1.00
C312   C     0.79460   0.48624   0.40498   0.00000  Uiso   1.00
C313   C     0.86510   0.64687   0.27255   0.00000  Uiso   1.00
C314   C     0.80791   0.49565   0.34926   0.00000  Uiso   1.00
C315   C     0.86375   0.35632   0.27341   0.00000  Uiso   1.00
C316   C     0.83278   0.37594   0.25037   0.00000  Uiso   1.00
C317   C     0.80409   0.35244   0.22571   0.00000  Uiso   1.00
C318   C     0.80473   0.64322   0.22561   0.00000  Uiso   1.00
C319   C     0.83505   0.62367   0.24917   0.00000  Uiso   1.00
C320   C     0.97006   0.53084   0.27448   0.00000  Uiso   1.00
C321   C     0.68631   0.53120   0.27375   0.00000  Uiso   1.00
C322   C     0.81488   0.48558   0.48724   0.00000  Uiso   1.00
C323   C     0.69460   0.46798   0.22694   0.00000  Uiso   1.00
C324   C     0.97961   0.47000   0.22489   0.00000  Uiso   1.00
C325   C     0.83286   0.42072   0.25002   0.00000  Uiso   1.00
C326   C     0.85916   0.50107   0.15036   0.00000  Uiso   1.00
C327   C     0.93539   0.50180   0.01180   0.00000  Uiso   1.00
C328   C     0.87377   0.50136   0.09383   0.00000  Uiso   1.00
C329   C     0.74552   0.48059   0.43185   0.00000  Uiso   1.00
C330   C     0.73153   0.47508   0.48490   0.00000  Uiso   1.00
C331   C     0.76511   0.47972   0.01266   0.00000  Uiso   1.00
C332   C     0.71619   0.42630   0.20875   0.00000  Uiso   1.00
C333   C     0.83003   0.48349   0.43247   0.00000  Uiso   1.00
C334   C     0.75348   0.42654   0.15565   0.00000  Uiso   1.00
C335   C     0.85036   0.49197   0.01426   0.00000  Uiso   1.00
C336   C     0.90010   0.49331   0.48639   0.00000  Uiso   1.00
C337   C     0.91432   0.48458   0.43371   0.00000  Uiso   1.00
C338   C     0.87983   0.47779   0.40765   0.00000  Uiso   1.00
C339   C     0.83808   0.49778   0.06802   0.00000  Uiso   1.00
C340   C     0.92258   0.50460   0.06542   0.00000  Uiso   1.00
Cu341  Cu    0.78645   0.49999   0.25000   0.00000  Uiso   1.00
Cu342  Cu    0.88022   0.50001   0.25000   0.00000  Uiso   1.00
H343   H     0.95072   0.50923   0.08450   0.00000  Uiso   1.00
H344   H     0.80094   0.49977   0.09063   0.00000  Uiso   1.00
H345   H     0.71790   0.47983   0.41180   0.00000  Uiso   1.00
H346   H     0.75100   0.47701   0.05378   0.00000  Uiso   1.00
H347   H     0.69431   0.46786   0.00527   0.00000  Uiso   1.00
H348   H     0.89347   0.46609   0.36862   0.00000  Uiso   1.00
H349   H     0.88867   0.63198   0.29096   0.00000  Uiso   1.00
H350   H     0.74515   0.45077   0.13189   0.00000  Uiso   1.00
H351   H     0.79074   0.43067   0.15855   0.00000  Uiso   1.00
H352   H     0.75208   0.39642   0.13530   0.00000  Uiso   1.00
H353   H     0.72642   0.41122   0.23971   0.00000  Uiso   1.00
H354   H     0.88664   0.37403   0.29228   0.00000  Uiso   1.00
H355   H     0.68749   0.40386   0.20423   0.00000  Uiso   1.00
H356   H     0.78233   0.36647   0.20507   0.00000  Uiso   1.00
H357   H     0.78208   0.62556   0.20636   0.00000  Uiso   1.00
H358   H     0.94732   0.55552   0.29452   0.00000  Uiso   1.00
H359   H     0.70035   0.55617   0.29320   0.00000  Uiso   1.00
H360   H     0.96397   0.44623   0.20511   0.00000  Uiso   1.00
H361   H     0.95230   0.48200   0.41270   0.00000  Uiso   1.00
H362   H     0.97281   0.50590   0.48982   0.00000  Uiso   1.00
N363   N     0.71598   0.49999   0.24998   0.00000  Uiso   1.00
N364   N     0.95069   0.50002   0.24999   0.00000  Uiso   1.00
O365   O     0.79375   0.56011   0.25000   0.00000  Uiso   1.00
O366   O     0.87294   0.56012   0.25000   0.00000  Uiso   1.00
O367   O     0.77441   0.49998   0.32549   0.00000  Uiso   1.00
O368   O     0.85360   0.49999   0.32549   0.00000  Uiso   1.00
O369   O     0.79373   0.43988   0.24999   0.00000  Uiso   1.00
O370   O     0.87292   0.43989   0.24999   0.00000  Uiso   1.00
O371   O     0.81306   0.50001   0.17451   0.00000  Uiso   1.00
O372   O     0.89225   0.50002   0.17451   0.00000  Uiso   1.00
C373   C     0.16732   0.91248   0.24997   0.00000  Uiso   1.00
C374   C     0.12793   0.81957   0.40498   0.00000  Uiso   1.00
C375   C     0.19843   0.98021   0.27255   0.00000  Uiso   1.00
C376   C     0.14124   0.82898   0.34926   0.00000  Uiso   1.00
C377   C     0.19709   0.68965   0.27341   0.00000  Uiso   1.00
C378   C     0.16611   0.70927   0.25037   0.00000  Uiso   1.00
C379   C     0.13742   0.68578   0.22571   0.00000  Uiso   1.00
C380   C     0.13806   0.97655   0.22561   0.00000  Uiso   1.00
C381   C     0.16838   0.95701   0.24917   0.00000  Uiso   1.00
C382   C     0.30339   0.86417   0.27448   0.00000  Uiso   1.00
C383   C     0.01964   0.86453   0.27375   0.00000  Uiso   1.00
C384   C     0.14822   0.81891   0.48724   0.00000  Uiso   1.00
C385   C     0.02793   0.80131   0.22694   0.00000  Uiso   1.00
C386   C     0.31295   0.80333   0.22489   0.00000  Uiso   1.00
C387   C     0.16620   0.75405   0.25002   0.00000  Uiso   1.00
C388   C     0.19250   0.83440   0.15036   0.00000  Uiso   1.00
C389   C     0.26872   0.83513   0.01180   0.00000  Uiso   1.00
C390   C     0.20711   0.83470   0.09383   0.00000  Uiso   1.00
C391   C     0.07885   0.81393   0.43185   0.00000  Uiso   1.00
C392   C     0.06486   0.80841   0.48490   0.00000  Uiso   1.00
C393   C     0.09844   0.81305   0.01266   0.00000  Uiso   1.00
C394   C     0.04953   0.75964   0.20875   0.00000  Uiso   1.00
C395   C     0.16336   0.81682   0.43247   0.00000  Uiso   1.00
C396   C     0.08681   0.75988   0.15565   0.00000  Uiso   1.00
C397   C     0.18369   0.82531   0.01426   0.00000  Uiso   1.00
C398   C     0.23344   0.82665   0.48639   0.00000  Uiso   1.00
C399   C     0.24765   0.81791   0.43371   0.00000  Uiso   1.00
C400   C     0.21317   0.81112   0.40765   0.00000  Uiso   1.00
C401   C     0.17141   0.83111   0.06802   0.00000  Uiso   1.00
C402   C     0.25591   0.83794   0.06542   0.00000  Uiso   1.00
Cu403  Cu    0.11978   0.83333   0.25000   0.00000  Uiso   1.00
Cu404  Cu    0.21355   0.83334   0.25000   0.00000  Uiso   1.00
H405   H     0.28406   0.84256   0.08450   0.00000  Uiso   1.00
H406   H     0.13427   0.83310   0.09063   0.00000  Uiso   1.00
H407   H     0.05124   0.81316   0.41180   0.00000  Uiso   1.00
H408   H     0.08434   0.81034   0.05378   0.00000  Uiso   1.00
H409   H     0.02764   0.80119   0.00527   0.00000  Uiso   1.00
H410   H     0.22680   0.79942   0.36862   0.00000  Uiso   1.00
H411   H     0.22200   0.96532   0.29096   0.00000  Uiso   1.00
H412   H     0.07848   0.78410   0.13189   0.00000  Uiso   1.00
H413   H     0.12407   0.76400   0.15855   0.00000  Uiso   1.00
H414   H     0.08541   0.72975   0.13530   0.00000  Uiso   1.00
H415   H     0.05975   0.74455   0.23971   0.00000  Uiso   1.00
H416   H     0.21998   0.70737   0.29228   0.00000  Uiso   1.00
H417   H     0.02083   0.73720   0.20423   0.00000  Uiso   1.00
H418   H     0.11566   0.69981   0.20507   0.00000  Uiso   1.00
H419   H     0.11542   0.95890   0.20636   0.00000  Uiso   1.00
H420   H     0.28065   0.88885   0.29452   0.00000  Uiso   1.00
H421   H     0.03369   0.88951   0.29320   0.00000  Uiso   1.00
H422   H     0.29731   0.77956   0.20511   0.00000  Uiso   1.00
H423   H     0.28563   0.81534   0.41270   0.00000  Uiso   1.00
H424   H     0.30615   0.83923   0.48982   0.00000  Uiso   1.00
N425   N     0.04931   0.83332   0.24998   0.00000  Uiso   1.00
N426   N     0.28402   0.83335   0.24999   0.00000  Uiso   1.00
O427   O     0.12708   0.89345   0.25000   0.00000  Uiso   1.00
O428   O     0.20627   0.89346   0.25000   0.00000  Uiso   1.00
O429   O     0.10775   0.83332   0.32549   0.00000  Uiso   1.00
O430   O     0.18694   0.83333   0.32549   0.00000  Uiso   1.00
O431   O     0.12706   0.77321   0.24999   0.00000  Uiso   1.00
O432   O     0.20625   0.77322   0.24999   0.00000  Uiso   1.00
O433   O     0.14640   0.83334   0.17451   0.00000  Uiso   1.00
O434   O     0.22559   0.83335   0.17451   0.00000  Uiso   1.00
C435   C     0.50065   0.91248   0.24997   0.00000  Uiso   1.00
C436   C     0.46127   0.81957   0.40498   0.00000  Uiso   1.00
C437   C     0.53176   0.98021   0.27255   0.00000  Uiso   1.00
C438   C     0.47457   0.82898   0.34926   0.00000  Uiso   1.00
C439   C     0.53042   0.68965   0.27341   0.00000  Uiso   1.00
C440   C     0.49945   0.70927   0.25037   0.00000  Uiso   1.00
C441   C     0.47075   0.68578   0.22571   0.00000  Uiso   1.00
C442   C     0.47139   0.97655   0.22561   0.00000  Uiso   1.00
C443   C     0.50172   0.95701   0.24917   0.00000  Uiso   1.00
C444   C     0.63672   0.86417   0.27448   0.00000  Uiso   1.00
C445   C     0.35297   0.86453   0.27375   0.00000  Uiso   1.00
C446   C     0.48155   0.81891   0.48724   0.00000  Uiso   1.00
C447   C     0.36127   0.80131   0.22694   0.00000  Uiso   1.00
C448   C     0.64628   0.80333   0.22489   0.00000  Uiso   1.00
C449   C     0.49953   0.75405   0.25002   0.00000  Uiso   1.00
C450   C     0.52583   0.83440   0.15036   0.00000  Uiso   1.00
C451   C     0.60206   0.83513   0.01180   0.00000  Uiso   1.00
C452   C     0.54044   0.83470   0.09383   0.00000  Uiso   1.00
C453   C     0.41219   0.81393   0.43185   0.00000  Uiso   1.00
C454   C     0.39820   0.80841   0.48490   0.00000  Uiso   1.00
C455   C     0.43177   0.81305   0.01266   0.00000  Uiso   1.00
C456   C     0.38286   0.75964   0.20875   0.00000  Uiso   1.00
C457   C     0.49669   0.81682   0.43247   0.00000  Uiso   1.00
C458   C     0.42014   0.75988   0.15565   0.00000  Uiso   1.00
C459   C     0.51702   0.82531   0.01426   0.00000  Uiso   1.00
C460   C     0.56677   0.82665   0.48639   0.00000  Uiso   1.00
C461   C     0.58099   0.81791   0.43371   0.00000  Uiso   1.00
C462   C     0.54650   0.81112   0.40765   0.00000  Uiso   1.00
C463   C     0.50475   0.83111   0.06802   0.00000  Uiso   1.00
C464   C     0.58925   0.83794   0.06542   0.00000  Uiso   1.00
Cu465  Cu    0.45311   0.83333   0.25000   0.00000  Uiso   1.00
Cu466  Cu    0.54689   0.83334   0.25000   0.00000  Uiso   1.00
H467   H     0.61739   0.84256   0.08450   0.00000  Uiso   1.00
H468   H     0.46760   0.83310   0.09063   0.00000  Uiso   1.00
H469   H     0.38457   0.81316   0.41180   0.00000  Uiso   1.00
H470   H     0.41767   0.81034   0.05378   0.00000  Uiso   1.00
H471   H     0.36098   0.80119   0.00527   0.00000  Uiso   1.00
H472   H     0.56013   0.79942   0.36862   0.00000  Uiso   1.00
H473   H     0.55534   0.96532   0.29096   0.00000  Uiso   1.00
H474   H     0.41181   0.78410   0.13189   0.00000  Uiso   1.00
H475   H     0.45740   0.76400   0.15855   0.00000  Uiso   1.00
H476   H     0.41874   0.72975   0.13530   0.00000  Uiso   1.00
H477   H     0.39308   0.74455   0.23971   0.00000  Uiso   1.00
H478   H     0.55331   0.70737   0.29228   0.00000  Uiso   1.00
H479   H     0.35416   0.73720   0.20423   0.00000  Uiso   1.00
H480   H     0.44900   0.69981   0.20507   0.00000  Uiso   1.00
H481   H     0.44875   0.95890   0.20636   0.00000  Uiso   1.00
H482   H     0.61399   0.88885   0.29452   0.00000  Uiso   1.00
H483   H     0.36702   0.88951   0.29320   0.00000  Uiso   1.00
H484   H     0.63064   0.77956   0.20511   0.00000  Uiso   1.00
H485   H     0.61897   0.81534   0.41270   0.00000  Uiso   1.00
H486   H     0.63948   0.83923   0.48982   0.00000  Uiso   1.00
N487   N     0.38265   0.83332   0.24998   0.00000  Uiso   1.00
N488   N     0.61735   0.83335   0.24999   0.00000  Uiso   1.00
O489   O     0.46042   0.89345   0.25000   0.00000  Uiso   1.00
O490   O     0.53961   0.89346   0.25000   0.00000  Uiso   1.00
O491   O     0.44108   0.83332   0.32549   0.00000  Uiso   1.00
O492   O     0.52027   0.83333   0.32549   0.00000  Uiso   1.00
O493   O     0.46039   0.77321   0.24999   0.00000  Uiso   1.00
O494   O     0.53958   0.77322   0.24999   0.00000  Uiso   1.00
O495   O     0.47973   0.83334   0.17451   0.00000  Uiso   1.00
O496   O     0.55892   0.83335   0.17451   0.00000  Uiso   1.00
C497   C     0.83399   0.91248   0.24997   0.00000  Uiso   1.00
C498   C     0.79460   0.81957   0.40498   0.00000  Uiso   1.00
C499   C     0.86510   0.98021   0.27255   0.00000  Uiso   1.00
C500   C     0.80791   0.82898   0.34926   0.00000  Uiso   1.00
C501   C     0.86375   0.68965   0.27341   0.00000  Uiso   1.00
C502   C     0.83278   0.70927   0.25037   0.00000  Uiso   1.00
C503   C     0.80409   0.68578   0.22571   0.00000  Uiso   1.00
C504   C     0.80473   0.97655   0.22561   0.00000  Uiso   1.00
C505   C     0.83505   0.95701   0.24917   0.00000  Uiso   1.00
C506   C     0.97006   0.86417   0.27448   0.00000  Uiso   1.00
C507   C     0.68631   0.86453   0.27375   0.00000  Uiso   1.00
C508   C     0.81488   0.81891   0.48724   0.00000  Uiso   1.00
C509   C     0.69460   0.80131   0.22694   0.00000  Uiso   1.00
C510   C     0.97961   0.80333   0.22489   0.00000  Uiso   1.00
C511   C     0.83286   0.75405   0.25002   0.00000  Uiso   1.00
C512   C     0.85916   0.83440   0.15036   0.00000  Uiso   1.00
C513   C     0.93539   0.83513   0.01180   0.00000  Uiso   1.00
C514   C     0.87377   0.83470   0.09383   0.00000  Uiso   1.00
C515   C     0.74552   0.81393   0.43185   0.00000  Uiso   1.00
C516   C     0.73153   0.80841   0.48490   0.00000  Uiso   1.00
C517   C     0.76511   0.81305   0.01266   0.00000  Uiso   1.00
C518   C     0.71619   0.75964   0.20875   0.00000  Uiso   1.00
C519   C     0.83003   0.81682   0.43247   0.00000  Uiso   1.00
C520   C     0.75348   0.75988   0.15565   0.00000  Uiso   1.00
C521   C     0.85036   0.82531   0.01426   0.00000  Uiso   1.00
C522   C     0.90010   0.82665   0.48639   0.00000  Uiso   1.00
C523   C     0.91432   0.81791   0.43371   0.00000  Uiso   1.00
C524   C     0.87983   0.81112   0.40765   0.00000  Uiso   1.00
C525   C     0.83808   0.83111   0.06802   0.00000  Uiso   1.00
C526   C     0.92258   0.83794   0.06542   0.00000  Uiso   1.00
Cu527  Cu    0.78645   0.83333   0.25000   0.00000  Uiso   1.00
Cu528  Cu    0.88022   0.83334   0.25000   0.00000  Uiso   1.00
H529   H     0.95072   0.84256   0.08450   0.00000  Uiso   1.00
H530   H     0.80094   0.83310   0.09063   0.00000  Uiso   1.00
H531   H     0.71790   0.81316   0.41180   0.00000  Uiso   1.00
H532   H     0.75100   0.81034   0.05378   0.00000  Uiso   1.00
H533   H     0.69431   0.80119   0.00527   0.00000  Uiso   1.00
H534   H     0.89347   0.79942   0.36862   0.00000  Uiso   1.00
H535   H     0.88867   0.96532   0.29096   0.00000  Uiso   1.00
H536   H     0.74515   0.78410   0.13189   0.00000  Uiso   1.00
H537   H     0.79074   0.76400   0.15855   0.00000  Uiso   1.00
H538   H     0.75208   0.72975   0.13530   0.00000  Uiso   1.00
H539   H     0.72642   0.74455   0.23971   0.00000  Uiso   1.00
H540   H     0.88664   0.70737   0.29228   0.00000  Uiso   1.00
H541   H     0.68749   0.73720   0.20423   0.00000  Uiso   1.00
H542   H     0.78233   0.69981   0.20507   0.00000  Uiso   1.00
H543   H     0.78208   0.95890   0.20636   0.00000  Uiso   1.00
H544   H     0.94732   0.88885   0.29452   0.00000  Uiso   1.00
H545   H     0.70035   0.88951   0.29320   0.00000  Uiso   1.00
H546   H     0.96397   0.77956   0.20511   0.00000  Uiso   1.00
H547   H     0.95230   0.81534   0.41270   0.00000  Uiso   1.00
H548   H     0.97281   0.83923   0.48982   0.00000  Uiso   1.00
N549   N     0.71598   0.83332   0.24998   0.00000  Uiso   1.00
N550   N     0.95069   0.83335   0.24999   0.00000  Uiso   1.00
O551   O     0.79375   0.89345   0.25000   0.00000  Uiso   1.00
O552   O     0.87294   0.89346   0.25000   0.00000  Uiso   1.00
O553   O     0.77441   0.83332   0.32549   0.00000  Uiso   1.00
O554   O     0.85360   0.83333   0.32549   0.00000  Uiso   1.00
O555   O     0.79373   0.77321   0.24999   0.00000  Uiso   1.00
O556   O     0.87292   0.77322   0.24999   0.00000  Uiso   1.00
O557   O     0.81306   0.83334   0.17451   0.00000  Uiso   1.00
O558   O     0.89225   0.83335   0.17451   0.00000  Uiso   1.00
C559   C     0.16732   0.24581   0.74997   0.00000  Uiso   1.00
C560   C     0.12793   0.15291   0.90498   0.00000  Uiso   1.00
C561   C     0.19843   0.31354   0.77255   0.00000  Uiso   1.00
C562   C     0.14124   0.16231   0.84926   0.00000  Uiso   1.00
C563   C     0.19709   0.02298   0.77341   0.00000  Uiso   1.00
C564   C     0.16611   0.04260   0.75037   0.00000  Uiso   1.00
C565   C     0.13742   0.01911   0.72571   0.00000  Uiso   1.00
C566   C     0.13806   0.30988   0.72561   0.00000  Uiso   1.00
C567   C     0.16838   0.29034   0.74917   0.00000  Uiso   1.00
C568   C     0.30339   0.19750   0.77448   0.00000  Uiso   1.00
C569   C     0.01964   0.19786   0.77375   0.00000  Uiso   1.00
C570   C     0.14822   0.15224   0.98724   0.00000  Uiso   1.00
C571   C     0.02793   0.13464   0.72694   0.00000  Uiso   1.00
C572   C     0.31295   0.13667   0.72489   0.00000  Uiso   1.00
C573   C     0.16620   0.08739   0.75002   0.00000  Uiso   1.00
C574   C     0.19250   0.16773   0.65036   0.00000  Uiso   1.00
C575   C     0.26872   0.16846   0.51180   0.00000  Uiso   1.00
C576   C     0.20711   0.16803   0.59383   0.00000  Uiso   1.00
C577   C     0.07885   0.14726   0.93185   0.00000  Uiso   1.00
C578   C     0.06486   0.14175   0.98490   0.00000  Uiso   1.00
C579   C     0.09844   0.14639   0.51266   0.00000  Uiso   1.00
C580   C     0.04953   0.09297   0.70875   0.00000  Uiso   1.00
C581   C     0.16336   0.15016   0.93247   0.00000  Uiso   1.00
C582   C     0.08681   0.09321   0.65565   0.00000  Uiso   1.00
C583   C     0.18369   0.15864   0.51426   0.00000  Uiso   1.00
C584   C     0.23344   0.15998   0.98639   0.00000  Uiso   1.00
C585   C     0.24765   0.15124   0.93371   0.00000  Uiso   1.00
C586   C     0.21317   0.14445   0.90765   0.00000  Uiso   1.00
C587   C     0.17141   0.16444   0.56802   0.00000  Uiso   1.00
C588   C     0.25591   0.17127   0.56542   0.00000  Uiso   1.00
Cu589  Cu    0.11978   0.16666   0.75000   0.00000  Uiso   1.00
Cu590  Cu    0.21355   0.16667   0.75000   0.00000  Uiso   1.00
H591   H     0.28406   0.17590   0.58450   0.00000  Uiso   1.00
H592   H     0.13427   0.16644   0.59063   0.00000  Uiso   1.00
H593   H     0.05124   0.14650   0.91180   0.00000  Uiso   1.00
H594   H     0.08434   0.14368   0.55378   0.00000  Uiso   1.00
H595   H     0.02764   0.13453   0.50527   0.00000  Uiso   1.00
H596   H     0.22680   0.13276   0.86862   0.00000  Uiso   1.00
H597   H     0.22200   0.29865   0.79096   0.00000  Uiso   1.00
H598   H     0.07848   0.11744   0.63189   0.00000  Uiso   1.00
H599   H     0.12407   0.09734   0.65855   0.00000  Uiso   1.00
H600   H     0.08541   0.06309   0.63530   0.00000  Uiso   1.00
H601   H     0.05975   0.07788   0.73971   0.00000  Uiso   1.00
H602   H     0.21998   0.04070   0.79228   0.00000  Uiso   1.00
H603   H     0.02083   0.07053   0.70423   0.00000  Uiso   1.00
H604   H     0.11566   0.03314   0.70507   0.00000  Uiso   1.00
H605   H     0.11542   0.29223   0.70636   0.00000  Uiso   1.00
H606   H     0.28065   0.22218   0.79452   0.00000  Uiso   1.00
H607   H     0.03369   0.22284   0.79320   0.00000  Uiso   1.00
H608   H     0.29731   0.11289   0.70511   0.00000  Uiso   1.00
H609   H     0.28563   0.14867   0.91270   0.00000  Uiso   1.00
H610   H     0.30615   0.17256   0.98982   0.00000  Uiso   1.00
N611   N     0.04931   0.16666   0.74998   0.00000  Uiso   1.00
N612   N     0.28402   0.16669   0.74999   0.00000  Uiso   1.00
O613   O     0.12708   0.22678   0.75000   0.00000  Uiso   1.00
O614   O     0.20627   0.22679   0.75000   0.00000  Uiso   1.00
O615   O     0.10775   0.16665   0.82549   0.00000  Uiso   1.00
O616   O     0.18694   0.16666   0.82549   0.00000  Uiso   1.00
O617   O     0.12706   0.10654   0.74999   0.00000  Uiso   1.00
O618   O     0.20625   0.10655   0.74999   0.00000  Uiso   1.00
O619   O     0.14640   0.16667   0.67451   0.00000  Uiso   1.00
O620   O     0.22559   0.16668   0.67451   0.00000  Uiso   1.00
C621   C     0.50065   0.24581   0.74997   0.00000  Uiso   1.00
C622   C     0.46127   0.15291   0.90498   0.00000  Uiso   1.00
C623   C     0.53176   0.31354   0.77255   0.00000  Uiso   1.00
C624   C     0.47457   0.16231   0.84926   0.00000  Uiso   1.00
C625   C     0.53042   0.02298   0.77341   0.00000  Uiso   1.00
C626   C     0.49945   0.04260   0.75037   0.00000  Uiso   1.00
C627   C     0.47075   0.01911   0.72571   0.00000  Uiso   1.00
C628   C     0.47139   0.30988   0.72561   0.00000  Uiso   1.00
C629   C     0.50172   0.29034   0.74917   0.00000  Uiso   1.00
C630   C     0.63672   0.19750   0.77448   0.00000  Uiso   1.00
C631   C     0.35297   0.19786   0.77375   0.00000  Uiso   1.00
C632   C     0.48155   0.15224   0.98724   0.00000  Uiso   1.00
C633   C     0.36127   0.13464   0.72694   0.00000  Uiso   1.00
C634   C     0.64628   0.13667   0.72489   0.00000  Uiso   1.00
C635   C     0.49953   0.08739   0.75002   0.00000  Uiso   1.00
C636   C     0.52583   0.16773   0.65036   0.00000  Uiso   1.00
C637   C     0.60206   0.16846   0.51180   0.00000  Uiso   1.00
C638   C     0.54044   0.16803   0.59383   0.00000  Uiso   1.00
C639   C     0.41219   0.14726   0.93185   0.00000  Uiso   1.00
C640   C     0.39820   0.14175   0.98490   0.00000  Uiso   1.00
C641   C     0.43177   0.14639   0.51266   0.00000  Uiso   1.00
C642   C     0.38286   0.09297   0.70875   0.00000  Uiso   1.00
C643   C     0.49669   0.15016   0.93247   0.00000  Uiso   1.00
C644   C     0.42014   0.09321   0.65565   0.00000  Uiso   1.00
C645   C     0.51702   0.15864   0.51426   0.00000  Uiso   1.00
C646   C     0.56677   0.15998   0.98639   0.00000  Uiso   1.00
C647   C     0.58099   0.15124   0.93371   0.00000  Uiso   1.00
C648   C     0.54650   0.14445   0.90765   0.00000  Uiso   1.00
C649   C     0.50475   0.16444   0.56802   0.00000  Uiso   1.00
C650   C     0.58925   0.17127   0.56542   0.00000  Uiso   1.00
Cu651  Cu    0.45311   0.16666   0.75000   0.00000  Uiso   1.00
Cu652  Cu    0.54689   0.16667   0.75000   0.00000  Uiso   1.00
H653   H     0.61739   0.17590   0.58450   0.00000  Uiso   1.00
H654   H     0.46760   0.16644   0.59063   0.00000  Uiso   1.00
H655   H     0.38457   0.14650   0.91180   0.00000  Uiso   1.00
H656   H     0.41767   0.14368   0.55378   0.00000  Uiso   1.00
H657   H     0.36098   0.13453   0.50527   0.00000  Uiso   1.00
H658   H     0.56013   0.13276   0.86862   0.00000  Uiso   1.00
H659   H     0.55534   0.29865   0.79096   0.00000  Uiso   1.00
H660   H     0.41181   0.11744   0.63189   0.00000  Uiso   1.00
H661   H     0.45740   0.09734   0.65855   0.00000  Uiso   1.00
H662   H     0.41874   0.06309   0.63530   0.00000  Uiso   1.00
H663   H     0.39308   0.07788   0.73971   0.00000  Uiso   1.00
H664   H     0.55331   0.04070   0.79228   0.00000  Uiso   1.00
H665   H     0.35416   0.07053   0.70423   0.00000  Uiso   1.00
H666   H     0.44900   0.03314   0.70507   0.00000  Uiso   1.00
H667   H     0.44875   0.29223   0.70636   0.00000  Uiso   1.00
H668   H     0.61399   0.22218   0.79452   0.00000  Uiso   1.00
H669   H     0.36702   0.22284   0.79320   0.00000  Uiso   1.00
H670   H     0.63064   0.11289   0.70511   0.00000  Uiso   1.00
H671   H     0.61897   0.14867   0.91270   0.00000  Uiso   1.00
H672   H     0.63948   0.17256   0.98982   0.00000  Uiso   1.00
N673   N     0.38265   0.16666   0.74998   0.00000  Uiso   1.00
N674   N     0.61735   0.16669   0.74999   0.00000  Uiso   1.00
O675   O     0.46042   0.22678   0.75000   0.00000  Uiso   1.00
O676   O     0.53961   0.22679   0.75000   0.00000  Uiso   1.00
O677   O     0.44108   0.16665   0.82549   0.00000  Uiso   1.00
O678   O     0.52027   0.16666   0.82549   0.00000  Uiso   1.00
O679   O     0.46039   0.10654   0.74999   0.00000  Uiso   1.00
O680   O     0.53958   0.10655   0.74999   0.00000  Uiso   1.00
O681   O     0.47973   0.16667   0.67451   0.00000  Uiso   1.00
O682   O     0.55892   0.16668   0.67451   0.00000  Uiso   1.00
C683   C     0.83399   0.24581   0.74997   0.00000  Uiso   1.00
C684   C     0.79460   0.15291   0.90498   0.00000  Uiso   1.00
C685   C     0.86510   0.31354   0.77255   0.00000  Uiso   1.00
C686   C     0.80791   0.16231   0.84926   0.00000  Uiso   1.00
C687   C     0.86375   0.02298   0.77341   0.00000  Uiso   1.00
C688   C     0.83278   0.04260   0.75037   0.00000  Uiso   1.00
C689   C     0.80409   0.01911   0.72571   0.00000  Uiso   1.00
C690   C     0.80473   0.30988   0.72561   0.00000  Uiso   1.00
C691   C     0.83505   0.29034   0.74917   0.00000  Uiso   1.00
C692   C     0.97006   0.19750   0.77448   0.00000  Uiso   1.00
C693   C     0.68631   0.19786   0.77375   0.00000  Uiso   1.00
C694   C     0.81488   0.15224   0.98724   0.00000  Uiso   1.00
C695   C     0.69460   0.13464   0.72694   0.00000  Uiso   1.00
C696   C     0.97961   0.13667   0.72489   0.00000  Uiso   1.00
C697   C     0.83286   0.08739   0.75002   0.00000  Uiso   1.00
C698   C     0.85916   0.16773   0.65036   0.00000  Uiso   1.00
C699   C     0.93539   0.16846   0.51180   0.00000  Uiso   1.00
C700   C     0.87377   0.16803   0.59383   0.00000  Uiso   1.00
C701   C     0.74552   0.14726   0.93185   0.00000  Uiso   1.00
C702   C     0.73153   0.14175   0.98490   0.00000  Uiso   1.00
C703   C     0.76511   0.14639   0.51266   0.00000  Uiso   1.00
C704   C     0.71619   0.09297   0.70875   0.00000  Uiso   1.00
C705   C     0.83003   0.15016   0.93247   0.00000  Uiso   1.00
C706   C     0.75348   0.09321   0.65565   0.00000  Uiso   1.00
C707   C     0.85036   0.15864   0.51426   0.00000  Uiso   1.00
C708   C     0.90010   0.15998   0.98639   0.00000  Uiso   1.00
C709   C     0.91432   0.15124   0.93371   0.00000  Uiso   1.00
C710   C     0.87983   0.14445   0.90765   0.00000  Uiso   1.00
C711   C     0.83808   0.16444   0.56802   0.00000  Uiso   1.00
C712   C     0.92258   0.17127   0.56542   0.00000  Uiso   1.00
Cu713  Cu    0.78645   0.16666   0.75000   0.00000  Uiso   1.00
Cu714  Cu    0.88022   0.16667   0.75000   0.00000  Uiso   1.00
H715   H     0.95072   0.17590   0.58450   0.00000  Uiso   1.00
H716   H     0.80094   0.16644   0.59063   0.00000  Uiso   1.00
H717   H     0.71790   0.14650   0.91180   0.00000  Uiso   1.00
H718   H     0.75100   0.14368   0.55378   0.00000  Uiso   1.00
H719   H     0.69431   0.13453   0.50527   0.00000  Uiso   1.00
H720   H     0.89347   0.13276   0.86862   0.00000  Uiso   1.00
H721   H     0.88867   0.29865   0.79096   0.00000  Uiso   1.00
H722   H     0.74515   0.11744   0.63189   0.00000  Uiso   1.00
H723   H     0.79074   0.09734   0.65855   0.00000  Uiso   1.00
H724   H     0.75208   0.06309   0.63530   0.00000  Uiso   1.00
H725   H     0.72642   0.07788   0.73971   0.00000  Uiso   1.00
H726   H     0.88664   0.04070   0.79228   0.00000  Uiso   1.00
H727   H     0.68749   0.07053   0.70423   0.00000  Uiso   1.00
H728   H     0.78233   0.03314   0.70507   0.00000  Uiso   1.00
H729   H     0.78208   0.29223   0.70636   0.00000  Uiso   1.00
H730   H     0.94732   0.22218   0.79452   0.00000  Uiso   1.00
H731   H     0.70035   0.22284   0.79320   0.00000  Uiso   1.00
H732   H     0.96397   0.11289   0.70511   0.00000  Uiso   1.00
H733   H     0.95230   0.14867   0.91270   0.00000  Uiso   1.00
H734   H     0.97281   0.17256   0.98982   0.00000  Uiso   1.00
N735   N     0.71598   0.16666   0.74998   0.00000  Uiso   1.00
N736   N     0.95069   0.16669   0.74999   0.00000  Uiso   1.00
O737   O     0.79375   0.22678   0.75000   0.00000  Uiso   1.00
O738   O     0.87294   0.22679   0.75000   0.00000  Uiso   1.00
O739   O     0.77441   0.16665   0.82549   0.00000  Uiso   1.00
O740   O     0.85360   0.16666   0.82549   0.00000  Uiso   1.00
O741   O     0.79373   0.10654   0.74999   0.00000  Uiso   1.00
O742   O     0.87292   0.10655   0.74999   0.00000  Uiso   1.00
O743   O     0.81306   0.16667   0.67451   0.00000  Uiso   1.00
O744   O     0.89225   0.16668   0.67451   0.00000  Uiso   1.00
C745   C     0.16732   0.57914   0.74997   0.00000  Uiso   1.00
C746   C     0.12793   0.48624   0.90498   0.00000  Uiso   1.00
C747   C     0.19843   0.64687   0.77255   0.00000  Uiso   1.00
C748   C     0.14124   0.49565   0.84926   0.00000  Uiso   1.00
C749   C     0.19709   0.35632   0.77341   0.00000  Uiso   1.00
C750   C     0.16611   0.37594   0.75037   0.00000  Uiso   1.00
C751   C     0.13742   0.35244   0.72571   0.00000  Uiso   1.00
C752   C     0.13806   0.64322   0.72561   0.00000  Uiso   1.00
C753   C     0.16838   0.62367   0.74917   0.00000  Uiso   1.00
C754   C     0.30339   0.53084   0.77448   0.00000  Uiso   1.00
C755   C     0.01964   0.53120   0.77375   0.00000  Uiso   1.00
C756   C     0.14822   0.48558   0.98724   0.00000  Uiso   1.00
C757   C     0.02793   0.46798   0.72694   0.00000  Uiso   1.00
C758   C     0.31295   0.47000   0.72489   0.00000  Uiso   1.00
C759   C     0.16620   0.42072   0.75002   0.00000  Uiso   1.00
C760   C     0.19250   0.50107   0.65036   0.00000  Uiso   1.00
C761   C     0.26872   0.50180   0.51180   0.00000  Uiso   1.00
C762   C     0.20711   0.50136   0.59383   0.00000  Uiso   1.00
C763   C     0.07885   0.48059   0.93185   0.00000  Uiso   1.00
C764   C     0.06486   0.47508   0.98490   0.00000  Uiso   1.00
C765   C     0.09844   0.47972   0.51266   0.00000  Uiso   1.00
C766   C     0.04953   0.42630   0.70875   0.00000  Uiso   1.00
C767   C     0.16336   0.48349   0.93247   0.00000  Uiso   1.00
C768   C     0.08681   0.42654   0.65565   0.00000  Uiso   1.00
C769   C     0.18369   0.49197   0.51426   0.00000  Uiso   1.00
C770   C     0.23344   0.49331   0.98639   0.00000  Uiso   1.00
C771   C     0.24765   0.48458   0.93371   0.00000  Uiso   1.00
C772   C     0.21317   0.47779   0.90765   0.00000  Uiso   1.00
C773   C     0.17141   0.49778   0.56802   0.00000  Uiso   1.00
C774   C     0.25591   0.50460   0.56542   0.00000  Uiso   1.00
Cu775  Cu    0.11978   0.49999   0.75000   0.00000  Uiso   1.00
Cu776  Cu    0.21355   0.50001   0.75000   0.00000  Uiso   1.00
H777   H     0.28406   0.50923   0.58450   0.00000  Uiso   1.00
H778   H     0.13427   0.49977   0.59063   0.00000  Uiso   1.00
H779   H     0.05124   0.47983   0.91180   0.00000  Uiso   1.00
H780   H     0.08434   0.47701   0.55378   0.00000  Uiso   1.00
H781   H     0.02764   0.46786   0.50527   0.00000  Uiso   1.00
H782   H     0.22680   0.46609   0.86862   0.00000  Uiso   1.00
H783   H     0.22200   0.63198   0.79096   0.00000  Uiso   1.00
H784   H     0.07848   0.45077   0.63189   0.00000  Uiso   1.00
H785   H     0.12407   0.43067   0.65855   0.00000  Uiso   1.00
H786   H     0.08541   0.39642   0.63530   0.00000  Uiso   1.00
H787   H     0.05975   0.41122   0.73971   0.00000  Uiso   1.00
H788   H     0.21998   0.37403   0.79228   0.00000  Uiso   1.00
H789   H     0.02083   0.40386   0.70423   0.00000  Uiso   1.00
H790   H     0.11566   0.36647   0.70507   0.00000  Uiso   1.00
H791   H     0.11542   0.62556   0.70636   0.00000  Uiso   1.00
H792   H     0.28065   0.55552   0.79452   0.00000  Uiso   1.00
H793   H     0.03369   0.55617   0.79320   0.00000  Uiso   1.00
H794   H     0.29731   0.44623   0.70511   0.00000  Uiso   1.00
H795   H     0.28563   0.48200   0.91270   0.00000  Uiso   1.00
H796   H     0.30615   0.50590   0.98982   0.00000  Uiso   1.00
N797   N     0.04931   0.49999   0.74998   0.00000  Uiso   1.00
N798   N     0.28402   0.50002   0.74999   0.00000  Uiso   1.00
O799   O     0.12708   0.56011   0.75000   0.00000  Uiso   1.00
O800   O     0.20627   0.56012   0.75000   0.00000  Uiso   1.00
O801   O     0.10775   0.49998   0.82549   0.00000  Uiso   1.00
O802   O     0.18694   0.49999   0.82549   0.00000  Uiso   1.00
O803   O     0.12706   0.43988   0.74999   0.00000  Uiso   1.00
O804   O     0.20625   0.43989   0.74999   0.00000  Uiso   1.00
O805   O     0.14640   0.50001   0.67451   0.00000  Uiso   1.00
O806   O     0.22559   0.50002   0.67451   0.00000  Uiso   1.00
C807   C     0.50065   0.57914   0.74997   0.00000  Uiso   1.00
C808   C     0.46127   0.48624   0.90498   0.00000  Uiso   1.00
C809   C     0.53176   0.64687   0.77255   0.00000  Uiso   1.00
C810   C     0.47457   0.49565   0.84926   0.00000  Uiso   1.00
C811   C     0.53042   0.35632   0.77341   0.00000  Uiso   1.00
C812   C     0.49945   0.37594   0.75037   0.00000  Uiso   1.00
C813   C     0.47075   0.35244   0.72571   0.00000  Uiso   1.00
C814   C     0.47139   0.64322   0.72561   0.00000  Uiso   1.00
C815   C     0.50172   0.62367   0.74917   0.00000  Uiso   1.00
C816   C     0.63672   0.53084   0.77448   0.00000  Uiso   1.00
C817   C     0.35297   0.53120   0.77375   0.00000  Uiso   1.00
C818   C     0.48155   0.48558   0.98724   0.00000  Uiso   1.00
C819   C     0.36127   0.46798   0.72694   0.00000  Uiso   1.00
C820   C     0.64628   0.47000   0.72489   0.00000  Uiso   1.00
C821   C     0.49953   0.42072   0.75002   0.00000  Uiso   1.00
C822   C     0.52583   0.50107   0.65036   0.00000  Uiso   1.00
C823   C     0.60206   0.50180   0.51180   0.00000  Uiso   1.00
C824   C     0.54044   0.50136   0.59383   0.00000  Uiso   1.00
C825   C     0.41219   0.48059   0.93185   0.00000  Uiso   1.00
C826   C     0.39820   0.47508   0.98490   0.00000  Uiso   1.00
C827   C     0.43177   0.47972   0.51266   0.00000  Uiso   1.00
C828   C     0.38286   0.42630   0.70875   0.00000  Uiso   1.00
C829   C     0.49669   0.48349   0.93247   0.00000  Uiso   1.00
C830   C     0.42014   0.42654   0.65565   0.00000  Uiso   1.00
C831   C     0.51702   0.49197   0.51426   0.00000  Uiso   1.00
C832   C     0.56677   0.49331   0.98639   0.00000  Uiso   1.00
C833   C     0.58099   0.48458   0.93371   0.00000  Uiso   1.00
C834   C     0.54650   0.47779   0.90765   0.00000  Uiso   1.00
C835   C     0.50475   0.49778   0.56802   0.00000  Uiso   1.00
C836   C     0.58925   0.50460   0.56542   0.00000  Uiso   1.00
Cu837  Cu    0.45311   0.49999   0.75000   0.00000  Uiso   1.00
Cu838  Cu    0.54689   0.50001   0.75000   0.00000  Uiso   1.00
H839   H     0.61739   0.50923   0.58450   0.00000  Uiso   1.00
H840   H     0.46760   0.49977   0.59063   0.00000  Uiso   1.00
H841   H     0.38457   0.47983   0.91180   0.00000  Uiso   1.00
H842   H     0.41767   0.47701   0.55378   0.00000  Uiso   1.00
H843   H     0.36098   0.46786   0.50527   0.00000  Uiso   1.00
H844   H     0.56013   0.46609   0.86862   0.00000  Uiso   1.00
H845   H     0.55534   0.63198   0.79096   0.00000  Uiso   1.00
H846   H     0.41181   0.45077   0.63189   0.00000  Uiso   1.00
H847   H     0.45740   0.43067   0.65855   0.00000  Uiso   1.00
H848   H     0.41874   0.39642   0.63530   0.00000  Uiso   1.00
H849   H     0.39308   0.41122   0.73971   0.00000  Uiso   1.00
H850   H     0.55331   0.37403   0.79228   0.00000  Uiso   1.00
H851   H     0.35416   0.40386   0.70423   0.00000  Uiso   1.00
H852   H     0.44900   0.36647   0.70507   0.00000  Uiso   1.00
H853   H     0.44875   0.62556   0.70636   0.00000  Uiso   1.00
H854   H     0.61399   0.55552   0.79452   0.00000  Uiso   1.00
H855   H     0.36702   0.55617   0.79320   0.00000  Uiso   1.00
H856   H     0.63064   0.44623   0.70511   0.00000  Uiso   1.00
H857   H     0.61897   0.48200   0.91270   0.00000  Uiso   1.00
H858   H     0.63948   0.50590   0.98982   0.00000  Uiso   1.00
N859   N     0.38265   0.49999   0.74998   0.00000  Uiso   1.00
N860   N     0.61735   0.50002   0.74999   0.00000  Uiso   1.00
O861   O     0.46042   0.56011   0.75000   0.00000  Uiso   1.00
O862   O     0.53961   0.56012   0.75000   0.00000  Uiso   1.00
O863   O     0.44108   0.49998   0.82549   0.00000  Uiso   1.00
O864   O     0.52027   0.49999   0.82549   0.00000  Uiso   1.00
O865   O     0.46039   0.43988   0.74999   0.00000  Uiso   1.00
O866   O     0.53958   0.43989   0.74999   0.00000  Uiso   1.00
O867   O     0.47973   0.50001   0.67451   0.00000  Uiso   1.00
O868   O     0.55892   0.50002   0.67451   0.00000  Uiso   1.00
C869   C     0.83399   0.57914   0.74997   0.00000  Uiso   1.00
C870   C     0.79460   0.48624   0.90498   0.00000  Uiso   1.00
C871   C     0.86510   0.64687   0.77255   0.00000  Uiso   1.00
C872   C     0.80791   0.49565   0.84926   0.00000  Uiso   1.00
C873   C     0.86375   0.35632   0.77341   0.00000  Uiso   1.00
C874   C     0.83278   0.37594   0.75037   0.00000  Uiso   1.00
C875   C     0.80409   0.35244   0.72571   0.00000  Uiso   1.00
C876   C     0.80473   0.64322   0.72561   0.00000  Uiso   1.00
C877   C     0.83505   0.62367   0.74917   0.00000  Uiso   1.00
C878   C     0.97006   0.53084   0.77448   0.00000  Uiso   1.00
C879   C     0.68631   0.53120   0.77375   0.00000  Uiso   1.00
C880   C     0.81488   0.48558   0.98724   0.00000  Uiso   1.00
C881   C     0.69460   0.46798   0.72694   0.00000  Uiso   1.00
C882   C     0.97961   0.47000   0.72489   0.00000  Uiso   1.00
C883   C     0.83286   0.42072   0.75002   0.00000  Uiso   1.00
C884   C     0.85916   0.50107   0.65036   0.00000  Uiso   1.00
C885   C     0.93539   0.50180   0.51180   0.00000  Uiso   1.00
C886   C     0.87377   0.50136   0.59383   0.00000  Uiso   1.00
C887   C     0.74552   0.48059   0.93185   0.00000  Uiso   1.00
C888   C     0.73153   0.47508   0.98490   0.00000  Uiso   1.00
C889   C     0.76511   0.47972   0.51266   0.00000  Uiso   1.00
C890   C     0.71619   0.42630   0.70875   0.00000  Uiso   1.00
C891   C     0.83003   0.48349   0.93247   0.00000  Uiso   1.00
C892   C     0.75348   0.42654   0.65565   0.00000  Uiso   1.00
C893   C     0.85036   0.49197   0.51426   0.00000  Uiso   1.00
C894   C     0.90010   0.49331   0.98639   0.00000  Uiso   1.00
C895   C     0.91432   0.48458   0.93371   0.00000  Uiso   1.00
C896   C     0.87983   0.47779   0.90765   0.00000  Uiso   1.00
C897   C     0.83808   0.49778   0.56802   0.00000  Uiso   1.00
C898   C     0.92258   0.50460   0.56542   0.00000  Uiso   1.00
Cu899  Cu    0.78645   0.49999   0.75000   0.00000  Uiso   1.00
Cu900  Cu    0.88022   0.50001   0.75000   0.00000  Uiso   1.00
H901   H     0.95072   0.50923   0.58450   0.00000  Uiso   1.00
H902   H     0.80094   0.49977   0.59063   0.00000  Uiso   1.00
H903   H     0.71790   0.47983   0.91180   0.00000  Uiso   1.00
H904   H     0.75100   0.47701   0.55378   0.00000  Uiso   1.00
H905   H     0.69431   0.46786   0.50527   0.00000  Uiso   1.00
H906   H     0.89347   0.46609   0.86862   0.00000  Uiso   1.00
H907   H     0.88867   0.63198   0.79096   0.00000  Uiso   1.00
H908   H     0.74515   0.45077   0.63189   0.00000  Uiso   1.00
H909   H     0.79074   0.43067   0.65855   0.00000  Uiso   1.00
H910   H     0.75208   0.39642   0.63530   0.00000  Uiso   1.00
H911   H     0.72642   0.41122   0.73971   0.00000  Uiso   1.00
H912   H     0.88664   0.37403   0.79228   0.00000  Uiso   1.00
H913   H     0.68749   0.40386   0.70423   0.00000  Uiso   1.00
H914   H     0.78233   0.36647   0.70507   0.00000  Uiso   1.00
H915   H     0.78208   0.62556   0.70636   0.00000  Uiso   1.00
H916   H     0.94732   0.55552   0.79452   0.00000  Uiso   1.00
H917   H     0.70035   0.55617   0.79320   0.00000  Uiso   1.00
H918   H     0.96397   0.44623   0.70511   0.00000  Uiso   1.00
H919   H     0.95230   0.48200   0.91270   0.00000  Uiso   1.00
H920   H     0.97281   0.50590   0.98982   0.00000  Uiso   1.00
N921   N     0.71598   0.49999   0.74998   0.00000  Uiso   1.00
N922   N     0.95069   0.50002   0.74999   0.00000  Uiso   1.00
O923   O     0.79375   0.56011   0.75000   0.00000  Uiso   1.00
O924   O     0.87294   0.56012   0.75000   0.00000  Uiso   1.00
O925   O     0.77441   0.49998   0.82549   0.00000  Uiso   1.00
O926   O     0.85360   0.49999   0.82549   0.00000  Uiso   1.00
O927   O     0.79373   0.43988   0.74999   0.00000  Uiso   1.00
O928   O     0.87292   0.43989   0.74999   0.00000  Uiso   1.00
O929   O     0.81306   0.50001   0.67451   0.00000  Uiso   1.00
O930   O     0.89225   0.50002   0.67451   0.00000  Uiso   1.00
C931   C     0.16732   0.91248   0.74997   0.00000  Uiso   1.00
C932   C     0.12793   0.81957   0.90498   0.00000  Uiso   1.00
C933   C     0.19843   0.98021   0.77255   0.00000  Uiso   1.00
C934   C     0.14124   0.82898   0.84926   0.00000  Uiso   1.00
C935   C     0.19709   0.68965   0.77341   0.00000  Uiso   1.00
C936   C     0.16611   0.70927   0.75037   0.00000  Uiso   1.00
C937   C     0.13742   0.68578   0.72571   0.00000  Uiso   1.00
C938   C     0.13806   0.97655   0.72561   0.00000  Uiso   1.00
C939   C     0.16838   0.95701   0.74917   0.00000  Uiso   1.00
C940   C     0.30339   0.86417   0.77448   0.00000  Uiso   1.00
C941   C     0.01964   0.86453   0.77375   0.00000  Uiso   1.00
C942   C     0.14822   0.81891   0.98724   0.00000  Uiso   1.00
C943   C     0.02793   0.80131   0.72694   0.00000  Uiso   1.00
C944   C     0.31295   0.80333   0.72489   0.00000  Uiso   1.00
C945   C     0.16620   0.75405   0.75002   0.00000  Uiso   1.00
C946   C     0.19250   0.83440   0.65036   0.00000  Uiso   1.00
C947   C     0.26872   0.83513   0.51180   0.00000  Uiso   1.00
C948   C     0.20711   0.83470   0.59383   0.00000  Uiso   1.00
C949   C     0.07885   0.81393   0.93185   0.00000  Uiso   1.00
C950   C     0.06486   0.80841   0.98490   0.00000  Uiso   1.00
C951   C     0.09844   0.81305   0.51266   0.00000  Uiso   1.00
C952   C     0.04953   0.75964   0.70875   0.00000  Uiso   1.00
C953   C     0.16336   0.81682   0.93247   0.00000  Uiso   1.00
C954   C     0.08681   0.75988   0.65565   0.00000  Uiso   1.00
C955   C     0.18369   0.82531   0.51426   0.00000  Uiso   1.00
C956   C     0.23344   0.82665   0.98639   0.00000  Uiso   1.00
C957   C     0.24765   0.81791   0.93371   0.00000  Uiso   1.00
C958   C     0.21317   0.81112   0.90765   0.00000  Uiso   1.00
C959   C     0.17141   0.83111   0.56802   0.00000  Uiso   1.00
C960   C     0.25591   0.83794   0.56542   0.00000  Uiso   1.00
Cu961  Cu    0.11978   0.83333   0.75000   0.00000  Uiso   1.00
Cu962  Cu    0.21355   0.83334   0.75000   0.00000  Uiso   1.00
H963   H     0.28406   0.84256   0.58450   0.00000  Uiso   1.00
H964   H     0.13427   0.83310   0.59063   0.00000  Uiso   1.00
H965   H     0.05124   0.81316   0.91180   0.00000  Uiso   1.00
H966   H     0.08434   0.81034   0.55378   0.00000  Uiso   1.00
H967   H     0.02764   0.80119   0.50527   0.00000  Uiso   1.00
H968   H     0.22680   0.79942   0.86862   0.00000  Uiso   1.00
H969   H     0.22200   0.96532   0.79096   0.00000  Uiso   1.00
H970   H     0.07848   0.78410   0.63189   0.00000  Uiso   1.00
H971   H     0.12407   0.76400   0.65855   0.00000  Uiso   1.00
H972   H     0.08541   0.72975   0.63530   0.00000  Uiso   1.00
H973   H     0.05975   0.74455   0.73971   0.00000  Uiso   1.00
H974   H     0.21998   0.70737   0.79228   0.00000  Uiso   1.00
H975   H     0.02083   0.73720   0.70423   0.00000  Uiso   1.00
H976   H     0.11566   0.69981   0.70507   0.00000  Uiso   1.00
H977   H     0.11542   0.95890   0.70636   0.00000  Uiso   1.00
H978   H     0.28065   0.88885   0.79452   0.00000  Uiso   1.00
H979   H     0.03369   0.88951   0.79320   0.00000  Uiso   1.00
H980   H     0.29731   0.77956   0.70511   0.00000  Uiso   1.00
H981   H     0.28563   0.81534   0.91270   0.00000  Uiso   1.00
H982   H     0.30615   0.83923   0.98982   0.00000  Uiso   1.00
N983   N     0.04931   0.83332   0.74998   0.00000  Uiso   1.00
N984   N     0.28402   0.83335   0.74999   0.00000  Uiso   1.00
O985   O     0.12708   0.89345   0.75000   0.00000  Uiso   1.00
O986   O     0.20627   0.89346   0.75000   0.00000  Uiso   1.00
O987   O     0.10775   0.83332   0.82549   0.00000  Uiso   1.00
O988   O     0.18694   0.83333   0.82549   0.00000  Uiso   1.00
O989   O     0.12706   0.77321   0.74999   0.00000  Uiso   1.00
O990   O     0.20625   0.77322   0.74999   0.00000  Uiso   1.00
O991   O     0.14640   0.83334   0.67451   0.00000  Uiso   1.00
O992   O     0.22559   0.83335   0.67451   0.00000  Uiso   1.00
C993   C     0.50065   0.91248   0.74997   0.00000  Uiso   1.00
C994   C     0.46127   0.81957   0.90498   0.00000  Uiso   1.00
C995   C     0.53176   0.98021   0.77255   0.00000  Uiso   1.00
C996   C     0.47457   0.82898   0.84926   0.00000  Uiso   1.00
C997   C     0.53042   0.68965   0.77341   0.00000  Uiso   1.00
C998   C     0.49945   0.70927   0.75037   0.00000  Uiso   1.00
C999   C     0.47075   0.68578   0.72571   0.00000  Uiso   1.00
C1000  C     0.47139   0.97655   0.72561   0.00000  Uiso   1.00
C1001  C     0.50172   0.95701   0.74917   0.00000  Uiso   1.00
C1002  C     0.63672   0.86417   0.77448   0.00000  Uiso   1.00
C1003  C     0.35297   0.86453   0.77375   0.00000  Uiso   1.00
C1004  C     0.48155   0.81891   0.98724   0.00000  Uiso   1.00
C1005  C     0.36127   0.80131   0.72694   0.00000  Uiso   1.00
C1006  C     0.64628   0.80333   0.72489   0.00000  Uiso   1.00
C1007  C     0.49953   0.75405   0.75002   0.00000  Uiso   1.00
C1008  C     0.52583   0.83440   0.65036   0.00000  Uiso   1.00
C1009  C     0.60206   0.83513   0.51180   0.00000  Uiso   1.00
C1010  C     0.54044   0.83470   0.59383   0.00000  Uiso   1.00
C1011  C     0.41219   0.81393   0.93185   0.00000  Uiso   1.00
C1012  C     0.39820   0.80841   0.98490   0.00000  Uiso   1.00
C1013  C     0.43177   0.81305   0.51266   0.00000  Uiso   1.00
C1014  C     0.38286   0.75964   0.70875   0.00000  Uiso   1.00
C1015  C     0.49669   0.81682   0.93247   0.00000  Uiso   1.00
C1016  C     0.42014   0.75988   0.65565   0.00000  Uiso   1.00
C1017  C     0.51702   0.82531   0.51426   0.00000  Uiso   1.00
C1018  C     0.56677   0.82665   0.98639   0.00000  Uiso   1.00
C1019  C     0.58099   0.81791   0.93371   0.00000  Uiso   1.00
C1020  C     0.54650   0.81112   0.90765   0.00000  Uiso   1.00
C1021  C     0.50475   0.83111   0.56802   0.00000  Uiso   1.00
C1022  C     0.58925   0.83794   0.56542   0.00000  Uiso   1.00
Cu1023 Cu    0.45311   0.83333   0.75000   0.00000  Uiso   1.00
Cu1024 Cu    0.54689   0.83334   0.75000   0.00000  Uiso   1.00
H1025  H     0.61739   0.84256   0.58450   0.00000  Uiso   1.00
H1026  H     0.46760   0.83310   0.59063   0.00000  Uiso   1.00
H1027  H     0.38457   0.81316   0.91180   0.00000  Uiso   1.00
H1028  H     0.41767   0.81034   0.55378   0.00000  Uiso   1.00
H1029  H     0.36098   0.80119   0.50527   0.00000  Uiso   1.00
H1030  H     0.56013   0.79942   0.86862   0.00000  Uiso   1.00
H1031  H     0.55534   0.96532   0.79096   0.00000  Uiso   1.00
H1032  H     0.41181   0.78410   0.63189   0.00000  Uiso   1.00
H1033  H     0.45740   0.76400   0.65855   0.00000  Uiso   1.00
H1034  H     0.41874   0.72975   0.63530   0.00000  Uiso   1.00
H1035  H     0.39308   0.74455   0.73971   0.00000  Uiso   1.00
H1036  H     0.55331   0.70737   0.79228   0.00000  Uiso   1.00
H1037  H     0.35416   0.73720   0.70423   0.00000  Uiso   1.00
H1038  H     0.44900   0.69981   0.70507   0.00000  Uiso   1.00
H1039  H     0.44875   0.95890   0.70636   0.00000  Uiso   1.00
H1040  H     0.61399   0.88885   0.79452   0.00000  Uiso   1.00
H1041  H     0.36702   0.88951   0.79320   0.00000  Uiso   1.00
H1042  H     0.63064   0.77956   0.70511   0.00000  Uiso   1.00
H1043  H     0.61897   0.81534   0.91270   0.00000  Uiso   1.00
H1044  H     0.63948   0.83923   0.98982   0.00000  Uiso   1.00
N1045  N     0.38265   0.83332   0.74998   0.00000  Uiso   1.00
N1046  N     0.61735   0.83335   0.74999   0.00000  Uiso   1.00
O1047  O     0.46042   0.89345   0.75000   0.00000  Uiso   1.00
O1048  O     0.53961   0.89346   0.75000   0.00000  Uiso   1.00
O1049  O     0.44108   0.83332   0.82549   0.00000  Uiso   1.00
O1050  O     0.52027   0.83333   0.82549   0.00000  Uiso   1.00
O1051  O     0.46039   0.77321   0.74999   0.00000  Uiso   1.00
O1052  O     0.53958   0.77322   0.74999   0.00000  Uiso   1.00
O1053  O     0.47973   0.83334   0.67451   0.00000  Uiso   1.00
O1054  O     0.55892   0.83335   0.67451   0.00000  Uiso   1.00
C1055  C     0.83399   0.91248   0.74997   0.00000  Uiso   1.00
C1056  C     0.79460   0.81957   0.90498   0.00000  Uiso   1.00
C1057  C     0.86510   0.98021   0.77255   0.00000  Uiso   1.00
C1058  C     0.80791   0.82898   0.84926   0.00000  Uiso   1.00
C1059  C     0.86375   0.68965   0.77341   0.00000  Uiso   1.00
C1060  C     0.83278   0.70927   0.75037   0.00000  Uiso   1.00
C1061  C     0.80409   0.68578   0.72571   0.00000  Uiso   1.00
C1062  C     0.80473   0.97655   0.72561   0.00000  Uiso   1.00
C1063  C     0.83505   0.95701   0.74917   0.00000  Uiso   1.00
C1064  C     0.97006   0.86417   0.77448   0.00000  Uiso   1.00
C1065  C     0.68631   0.86453   0.77375   0.00000  Uiso   1.00
C1066  C     0.81488   0.81891   0.98724   0.00000  Uiso   1.00
C1067  C     0.69460   0.80131   0.72694   0.00000  Uiso   1.00
C1068  C     0.97961   0.80333   0.72489   0.00000  Uiso   1.00
C1069  C     0.83286   0.75405   0.75002   0.00000  Uiso   1.00
C1070  C     0.85916   0.83440   0.65036   0.00000  Uiso   1.00
C1071  C     0.93539   0.83513   0.51180   0.00000  Uiso   1.00
C1072  C     0.87377   0.83470   0.59383   0.00000  Uiso   1.00
C1073  C     0.74552   0.81393   0.93185   0.00000  Uiso   1.00
C1074  C     0.73153   0.80841   0.98490   0.00000  Uiso   1.00
C1075  C     0.76511   0.81305   0.51266   0.00000  Uiso   1.00
C1076  C     0.71619   0.75964   0.70875   0.00000  Uiso   1.00
C1077  C     0.83003   0.81682   0.93247   0.00000  Uiso   1.00
C1078  C     0.75348   0.75988   0.65565   0.00000  Uiso   1.00
C1079  C     0.85036   0.82531   0.51426   0.00000  Uiso   1.00
C1080  C     0.90010   0.82665   0.98639   0.00000  Uiso   1.00
C1081  C     0.91432   0.81791   0.93371   0.00000  Uiso   1.00
C1082  C     0.87983   0.81112   0.90765   0.00000  Uiso   1.00
C1083  C     0.83808   0.83111   0.56802   0.00000  Uiso   1.00
C1084  C     0.92258   0.83794   0.56542   0.00000  Uiso   1.00
Cu1085 Cu    0.78645   0.83333   0.75000   0.00000  Uiso   1.00
Cu1086 Cu    0.88022   0.83334   0.75000   0.00000  Uiso   1.00
H1087  H     0.95072   0.84256   0.58450   0.00000  Uiso   1.00
H1088  H     0.80094   0.83310   0.59063   0.00000  Uiso   1.00
H1089  H     0.71790   0.81316   0.91180   0.00000  Uiso   1.00
H1090  H     0.75100   0.81034   0.55378   0.00000  Uiso   1.00
H1091  H     0.69431   0.80119   0.50527   0.00000  Uiso   1.00
H1092  H     0.89347   0.79942   0.86862   0.00000  Uiso   1.00
H1093  H     0.88867   0.96532   0.79096   0.00000  Uiso   1.00
H1094  H     0.74515   0.78410   0.63189   0.00000  Uiso   1.00
H1095  H     0.79074   0.76400   0.65855   0.00000  Uiso   1.00
H1096  H     0.75208   0.72975   0.63530   0.00000  Uiso   1.00
H1097  H     0.72642   0.74455   0.73971   0.00000  Uiso   1.00
H1098  H     0.88664   0.70737   0.79228   0.00000  Uiso   1.00
H1099  H     0.68749   0.73720   0.70423   0.00000  Uiso   1.00
H1100  H     0.78233   0.69981   0.70507   0.00000  Uiso   1.00
H1101  H     0.78208   0.95890   0.70636   0.00000  Uiso   1.00
H1102  H     0.94732   0.88885   0.79452   0.00000  Uiso   1.00
H1103  H     0.70035   0.88951   0.79320   0.00000  Uiso   1.00
H1104  H     0.96397   0.77956   0.70511   0.00000  Uiso   1.00
H1105  H     0.95230   0.81534   0.91270   0.00000  Uiso   1.00
H1106  H     0.97281   0.83923   0.98982   0.00000  Uiso   1.00
N1107  N     0.71598   0.83332   0.74998   0.00000  Uiso   1.00
N1108  N     0.95069   0.83335   0.74999   0.00000  Uiso   1.00
O1109  O     0.79375   0.89345   0.75000   0.00000  Uiso   1.00
O1110  O     0.87294   0.89346   0.75000   0.00000  Uiso   1.00
O1111  O     0.77441   0.83332   0.82549   0.00000  Uiso   1.00
O1112  O     0.85360   0.83333   0.82549   0.00000  Uiso   1.00
O1113  O     0.79373   0.77321   0.74999   0.00000  Uiso   1.00
O1114  O     0.87292   0.77322   0.74999   0.00000  Uiso   1.00
O1115  O     0.81306   0.83334   0.67451   0.00000  Uiso   1.00
O1116  O     0.89225   0.83335   0.67451   0.00000  Uiso   1.00
loop_
_geom_bond_atom_site_label_1
_geom_bond_atom_site_label_2
_geom_bond_distance
_geom_bond_site_symmetry_2
_ccdc_geom_bond_type
C1     O56     1.301   .     A
C1     O55     1.295   .     A
C1     C9      1.444   .     S
C2     C4      1.482   .     S
C2     C23     1.431   .     A
C2     C19     1.402   .     A
C3     C9      1.398   .     A
C3     H39     1.083   .     S
C3     C191    1.388   .     S
C4     O57     1.317   .     A
C4     O58     1.295   .     A
C5     H44     1.084   .     S
C5     C6      1.404   .     A
C5     C375    1.388   1_545 S
C6     C7      1.396   .     A
C6     C15     1.453   .     S
C7     H46     1.071   .     S
C7     C380    1.381   1_545 S
C8     H47     1.084   .     S
C8     C9      1.398   .     A
C8     C193    1.381   .     S
C10    H48     1.082   .     S
C10    N54     1.371   .     A
C10    C73     1.424   .     S
C11    N53     1.369   .     A
C11    H49     1.081   .     S
C11    C134    1.424   1_455 S
C12    C23     1.418   .     A
C12    C579    1.412   .     S
C12    C583    1.423   .     S
C13    C22     1.516   .     S
C13    N53     1.407   .     A
C13    C138    1.414   1_455 S
C14    H50     1.082   .     S
C14    N54     1.340   .     A
C14    C75     1.414   .     S
C15    O60     1.293   .     A
C15    O59     1.307   .     A
C16    C18     1.464   .     S
C16    O61     1.302   .     A
C16    O62     1.303   .     A
C17    C30     1.390   .     A
C17    C584    1.397   1_554 S
C17    H610    1.079   1_554 S
C18    C29     1.399   .     A
C18    C30     1.399   .     A
C19    C20     1.389   .     A
C19    H35     1.083   .     S
C20    C579    1.386   .     S
C20    H595    1.078   .     S
C21    H36     1.073   .     S
C21    C570    1.412   1_554 S
C21    C578    1.386   1_554 S
C22    H43     1.097   .     S
C22    C24     1.527   .     S
C22    H45     1.114   .     S
C23    C28     1.417   .     A
C24    H41     1.103   .     S
C24    H42     1.111   .     S
C24    H40     1.104   .     S
C25    C29     1.401   .     A
C25    C570    1.423   1_554 S
C25    C584    1.417   1_554 S
C26    C27     1.387   .     A
C26    C575    1.397   .     S
C26    C583    1.417   .     S
C27    H51     1.085   .     S
C27    C28     1.382   .     A
C28    H38     1.076   .     S
C29    H34     1.074   .     S
C30    H33     1.083   .     S
Cu31   O61     1.963   .     S
Cu31   O55     1.954   .     S
Cu31   O57     1.969   .     S
Cu31   N53     2.032   .     S
Cu31   O59     1.968   .     S
Cu31   Cu32    2.705   .     S
Cu32   O58     1.963   .     S
Cu32   O62     1.969   .     S
Cu32   N54     2.032   .     S
Cu32   O60     1.954   .     S
Cu32   O56     1.968   .     S
H37    C578    1.078   1_554 S
H52    C575    1.079   .     S
C63    O118    1.301   .     A
C63    O117    1.295   .     A
C63    C71     1.444   .     S
C64    C66     1.482   .     S
C64    C85     1.431   .     A
C64    C81     1.402   .     A
C65    C71     1.398   .     A
C65    H101    1.083   .     S
C65    C253    1.388   .     S
C66    O119    1.317   .     A
C66    O120    1.295   .     A
C67    H106    1.084   .     S
C67    C68     1.404   .     A
C67    C437    1.388   1_545 S
C68    C69     1.396   .     A
C68    C77     1.453   .     S
C69    H108    1.071   .     S
C69    C442    1.381   1_545 S
C70    H109    1.084   .     S
C70    C71     1.398   .     A
C70    C255    1.381   .     S
C72    H110    1.082   .     S
C72    N116    1.371   .     A
C72    C135    1.424   .     S
C73    N115    1.369   .     A
C73    H111    1.081   .     S
C74    C85     1.418   .     A
C74    C641    1.412   .     S
C74    C645    1.423   .     S
C75    C84     1.516   .     S
C75    N115    1.407   .     A
C76    H112    1.082   .     S
C76    N116    1.340   .     A
C76    C137    1.414   .     S
C77    O122    1.293   .     A
C77    O121    1.307   .     A
C78    C80     1.464   .     S
C78    O123    1.302   .     A
C78    O124    1.303   .     A
C79    C92     1.390   .     A
C79    C646    1.397   1_554 S
C79    H672    1.079   1_554 S
C80    C91     1.399   .     A
C80    C92     1.399   .     A
C81    C82     1.389   .     A
C81    H97     1.083   .     S
C82    C641    1.386   .     S
C82    H657    1.078   .     S
C83    H98     1.073   .     S
C83    C632    1.412   1_554 S
C83    C640    1.386   1_554 S
C84    H105    1.097   .     S
C84    C86     1.527   .     S
C84    H107    1.114   .     S
C85    C90     1.417   .     A
C86    H103    1.103   .     S
C86    H104    1.111   .     S
C86    H102    1.104   .     S
C87    C91     1.401   .     A
C87    C632    1.423   1_554 S
C87    C646    1.417   1_554 S
C88    C89     1.387   .     A
C88    C637    1.397   .     S
C88    C645    1.417   .     S
C89    H113    1.085   .     S
C89    C90     1.382   .     A
C90    H100    1.076   .     S
C91    H96     1.074   .     S
C92    H95     1.083   .     S
Cu93   O123    1.963   .     S
Cu93   O117    1.954   .     S
Cu93   O119    1.969   .     S
Cu93   N115    2.032   .     S
Cu93   O121    1.968   .     S
Cu93   Cu94    2.705   .     S
Cu94   O120    1.963   .     S
Cu94   O124    1.969   .     S
Cu94   N116    2.032   .     S
Cu94   O122    1.954   .     S
Cu94   O118    1.968   .     S
H99    C640    1.078   1_554 S
H114   C637    1.079   .     S
C125   O180    1.301   .     A
C125   O179    1.295   .     A
C125   C133    1.444   .     S
C126   C128    1.482   .     S
C126   C147    1.431   .     A
C126   C143    1.402   .     A
C127   C133    1.398   .     A
C127   H163    1.083   .     S
C127   C315    1.388   .     S
C128   O181    1.317   .     A
C128   O182    1.295   .     A
C129   H168    1.084   .     S
C129   C130    1.404   .     A
C129   C499    1.388   1_545 S
C130   C131    1.396   .     A
C130   C139    1.453   .     S
C131   H170    1.071   .     S
C131   C504    1.381   1_545 S
C132   H171    1.084   .     S
C132   C133    1.398   .     A
C132   C317    1.381   .     S
C134   H172    1.082   .     S
C134   N178    1.371   .     A
C134   C11     1.424   1_655 S
C135   N177    1.369   .     A
C135   H173    1.081   .     S
C136   C147    1.418   .     A
C136   C703    1.412   .     S
C136   C707    1.423   .     S
C137   C146    1.516   .     S
C137   N177    1.407   .     A
C138   H174    1.082   .     S
C138   N178    1.340   .     A
C138   C13     1.414   1_655 S
C139   O184    1.293   .     A
C139   O183    1.307   .     A
C140   C142    1.464   .     S
C140   O185    1.302   .     A
C140   O186    1.303   .     A
C141   C154    1.390   .     A
C141   C708    1.397   1_554 S
C141   H734    1.079   1_554 S
C142   C153    1.399   .     A
C142   C154    1.399   .     A
C143   C144    1.389   .     A
C143   H159    1.083   .     S
C144   C703    1.386   .     S
C144   H719    1.078   .     S
C145   H160    1.073   .     S
C145   C694    1.412   1_554 S
C145   C702    1.386   1_554 S
C146   H167    1.097   .     S
C146   C148    1.527   .     S
C146   H169    1.114   .     S
C147   C152    1.417   .     A
C148   H165    1.103   .     S
C148   H166    1.111   .     S
C148   H164    1.104   .     S
C149   C153    1.401   .     A
C149   C694    1.423   1_554 S
C149   C708    1.417   1_554 S
C150   C151    1.387   .     A
C150   C699    1.397   .     S
C150   C707    1.417   .     S
C151   H175    1.085   .     S
C151   C152    1.382   .     A
C152   H162    1.076   .     S
C153   H158    1.074   .     S
C154   H157    1.083   .     S
Cu155  O185    1.963   .     S
Cu155  O179    1.954   .     S
Cu155  O181    1.969   .     S
Cu155  N177    2.032   .     S
Cu155  O183    1.968   .     S
Cu155  Cu156   2.705   .     S
Cu156  O182    1.963   .     S
Cu156  O186    1.969   .     S
Cu156  N178    2.032   .     S
Cu156  O184    1.954   .     S
Cu156  O180    1.968   .     S
H161   C702    1.078   1_554 S
H176   C699    1.079   .     S
C187   O242    1.301   .     A
C187   O241    1.295   .     A
C187   C195    1.444   .     S
C188   C190    1.482   .     S
C188   C209    1.431   .     A
C188   C205    1.402   .     A
C189   C195    1.398   .     A
C189   H225    1.083   .     S
C189   C377    1.388   .     S
C190   O243    1.317   .     A
C190   O244    1.295   .     A
C191   H230    1.084   .     S
C191   C192    1.404   .     A
C192   C193    1.396   .     A
C192   C201    1.453   .     S
C193   H232    1.071   .     S
C194   H233    1.084   .     S
C194   C195    1.398   .     A
C194   C379    1.381   .     S
C196   H234    1.082   .     S
C196   N240    1.371   .     A
C196   C259    1.424   .     S
C197   N239    1.369   .     A
C197   H235    1.081   .     S
C197   C320    1.424   1_455 S
C198   C209    1.418   .     A
C198   C765    1.412   .     S
C198   C769    1.423   .     S
C199   C208    1.516   .     S
C199   N239    1.407   .     A
C199   C324    1.414   1_455 S
C200   H236    1.082   .     S
C200   N240    1.340   .     A
C200   C261    1.414   .     S
C201   O246    1.293   .     A
C201   O245    1.307   .     A
C202   C204    1.464   .     S
C202   O247    1.302   .     A
C202   O248    1.303   .     A
C203   C216    1.390   .     A
C203   C770    1.397   1_554 S
C203   H796    1.079   1_554 S
C204   C215    1.399   .     A
C204   C216    1.399   .     A
C205   C206    1.389   .     A
C205   H221    1.083   .     S
C206   C765    1.386   .     S
C206   H781    1.078   .     S
C207   H222    1.073   .     S
C207   C756    1.412   1_554 S
C207   C764    1.386   1_554 S
C208   H229    1.097   .     S
C208   C210    1.527   .     S
C208   H231    1.114   .     S
C209   C214    1.417   .     A
C210   H227    1.103   .     S
C210   H228    1.111   .     S
C210   H226    1.104   .     S
C211   C215    1.401   .     A
C211   C756    1.423   1_554 S
C211   C770    1.417   1_554 S
C212   C213    1.387   .     A
C212   C761    1.397   .     S
C212   C769    1.417   .     S
C213   H237    1.085   .     S
C213   C214    1.382   .     A
C214   H224    1.076   .     S
C215   H220    1.074   .     S
C216   H219    1.083   .     S
Cu217  O247    1.963   .     S
Cu217  O241    1.954   .     S
Cu217  O243    1.969   .     S
Cu217  N239    2.032   .     S
Cu217  O245    1.968   .     S
Cu217  Cu218   2.705   .     S
Cu218  O244    1.963   .     S
Cu218  O248    1.969   .     S
Cu218  N240    2.032   .     S
Cu218  O246    1.954   .     S
Cu218  O242    1.968   .     S
H223   C764    1.078   1_554 S
H238   C761    1.079   .     S
C249   O304    1.301   .     A
C249   O303    1.295   .     A
C249   C257    1.444   .     S
C250   C252    1.482   .     S
C250   C271    1.431   .     A
C250   C267    1.402   .     A
C251   C257    1.398   .     A
C251   H287    1.083   .     S
C251   C439    1.388   .     S
C252   O305    1.317   .     A
C252   O306    1.295   .     A
C253   H292    1.084   .     S
C253   C254    1.404   .     A
C254   C255    1.396   .     A
C254   C263    1.453   .     S
C255   H294    1.071   .     S
C256   H295    1.084   .     S
C256   C257    1.398   .     A
C256   C441    1.381   .     S
C258   H296    1.082   .     S
C258   N302    1.371   .     A
C258   C321    1.424   .     S
C259   N301    1.369   .     A
C259   H297    1.081   .     S
C260   C271    1.418   .     A
C260   C827    1.412   .     S
C260   C831    1.423   .     S
C261   C270    1.516   .     S
C261   N301    1.407   .     A
C262   H298    1.082   .     S
C262   N302    1.340   .     A
C262   C323    1.414   .     S
C263   O308    1.293   .     A
C263   O307    1.307   .     A
C264   C266    1.464   .     S
C264   O309    1.302   .     A
C264   O310    1.303   .     A
C265   C278    1.390   .     A
C265   C832    1.397   1_554 S
C265   H858    1.079   1_554 S
C266   C277    1.399   .     A
C266   C278    1.399   .     A
C267   C268    1.389   .     A
C267   H283    1.083   .     S
C268   C827    1.386   .     S
C268   H843    1.078   .     S
C269   H284    1.073   .     S
C269   C818    1.412   1_554 S
C269   C826    1.386   1_554 S
C270   H291    1.097   .     S
C270   C272    1.527   .     S
C270   H293    1.114   .     S
C271   C276    1.417   .     A
C272   H289    1.103   .     S
C272   H290    1.111   .     S
C272   H288    1.104   .     S
C273   C277    1.401   .     A
C273   C818    1.423   1_554 S
C273   C832    1.417   1_554 S
C274   C275    1.387   .     A
C274   C823    1.397   .     S
C274   C831    1.417   .     S
C275   H299    1.085   .     S
C275   C276    1.382   .     A
C276   H286    1.076   .     S
C277   H282    1.074   .     S
C278   H281    1.083   .     S
Cu279  O309    1.963   .     S
Cu279  O303    1.954   .     S
Cu279  O305    1.969   .     S
Cu279  N301    2.032   .     S
Cu279  O307    1.968   .     S
Cu279  Cu280   2.705   .     S
Cu280  O306    1.963   .     S
Cu280  O310    1.969   .     S
Cu280  N302    2.032   .     S
Cu280  O308    1.954   .     S
Cu280  O304    1.968   .     S
H285   C826    1.078   1_554 S
H300   C823    1.079   .     S
C311   O366    1.301   .     A
C311   O365    1.295   .     A
C311   C319    1.444   .     S
C312   C314    1.482   .     S
C312   C333    1.431   .     A
C312   C329    1.402   .     A
C313   C319    1.398   .     A
C313   H349    1.083   .     S
C313   C501    1.388   .     S
C314   O367    1.317   .     A
C314   O368    1.295   .     A
C315   H354    1.084   .     S
C315   C316    1.404   .     A
C316   C317    1.396   .     A
C316   C325    1.453   .     S
C317   H356    1.071   .     S
C318   H357    1.084   .     S
C318   C319    1.398   .     A
C318   C503    1.381   .     S
C320   H358    1.082   .     S
C320   N364    1.371   .     A
C320   C197    1.424   1_655 S
C321   N363    1.369   .     A
C321   H359    1.081   .     S
C322   C333    1.418   .     A
C322   C889    1.412   .     S
C322   C893    1.423   .     S
C323   C332    1.516   .     S
C323   N363    1.407   .     A
C324   H360    1.082   .     S
C324   N364    1.340   .     A
C324   C199    1.414   1_655 S
C325   O370    1.293   .     A
C325   O369    1.307   .     A
C326   C328    1.464   .     S
C326   O371    1.302   .     A
C326   O372    1.303   .     A
C327   C340    1.390   .     A
C327   C894    1.397   1_554 S
C327   H920    1.079   1_554 S
C328   C339    1.399   .     A
C328   C340    1.399   .     A
C329   C330    1.389   .     A
C329   H345    1.083   .     S
C330   C889    1.386   .     S
C330   H905    1.078   .     S
C331   H346    1.073   .     S
C331   C880    1.412   1_554 S
C331   C888    1.386   1_554 S
C332   H353    1.097   .     S
C332   C334    1.527   .     S
C332   H355    1.114   .     S
C333   C338    1.417   .     A
C334   H351    1.103   .     S
C334   H352    1.111   .     S
C334   H350    1.104   .     S
C335   C339    1.401   .     A
C335   C880    1.423   1_554 S
C335   C894    1.417   1_554 S
C336   C337    1.387   .     A
C336   C885    1.397   .     S
C336   C893    1.417   .     S
C337   H361    1.085   .     S
C337   C338    1.382   .     A
C338   H348    1.076   .     S
C339   H344    1.074   .     S
C340   H343    1.083   .     S
Cu341  O371    1.963   .     S
Cu341  O365    1.954   .     S
Cu341  O367    1.969   .     S
Cu341  N363    2.032   .     S
Cu341  O369    1.968   .     S
Cu341  Cu342   2.705   .     S
Cu342  O368    1.963   .     S
Cu342  O372    1.969   .     S
Cu342  N364    2.032   .     S
Cu342  O370    1.954   .     S
Cu342  O366    1.968   .     S
H347   C888    1.078   1_554 S
H362   C885    1.079   .     S
C373   O428    1.301   .     A
C373   O427    1.295   .     A
C373   C381    1.444   .     S
C374   C376    1.482   .     S
C374   C395    1.431   .     A
C374   C391    1.402   .     A
C375   C381    1.398   .     A
C375   H411    1.083   .     S
C375   C5      1.388   1_565 S
C376   O429    1.317   .     A
C376   O430    1.295   .     A
C377   H416    1.084   .     S
C377   C378    1.404   .     A
C378   C379    1.396   .     A
C378   C387    1.453   .     S
C379   H418    1.071   .     S
C380   H419    1.084   .     S
C380   C381    1.398   .     A
C380   C7      1.381   1_565 S
C382   H420    1.082   .     S
C382   N426    1.371   .     A
C382   C445    1.424   .     S
C383   N425    1.369   .     A
C383   H421    1.081   .     S
C383   C506    1.424   1_455 S
C384   C395    1.418   .     A
C384   C951    1.412   .     S
C384   C955    1.423   .     S
C385   C394    1.516   .     S
C385   N425    1.407   .     A
C385   C510    1.414   1_455 S
C386   H422    1.082   .     S
C386   N426    1.340   .     A
C386   C447    1.414   .     S
C387   O432    1.293   .     A
C387   O431    1.307   .     A
C388   C390    1.464   .     S
C388   O433    1.302   .     A
C388   O434    1.303   .     A
C389   C402    1.390   .     A
C389   C956    1.397   1_554 S
C389   H982    1.079   1_554 S
C390   C401    1.399   .     A
C390   C402    1.399   .     A
C391   C392    1.389   .     A
C391   H407    1.083   .     S
C392   C951    1.386   .     S
C392   H967    1.078   .     S
C393   H408    1.073   .     S
C393   C942    1.412   1_554 S
C393   C950    1.386   1_554 S
C394   H415    1.097   .     S
C394   C396    1.527   .     S
C394   H417    1.114   .     S
C395   C400    1.417   .     A
C396   H413    1.103   .     S
C396   H414    1.111   .     S
C396   H412    1.104   .     S
C397   C401    1.401   .     A
C397   C942    1.423   1_554 S
C397   C956    1.417   1_554 S
C398   C399    1.387   .     A
C398   C947    1.397   .     S
C398   C955    1.417   .     S
C399   H423    1.085   .     S
C399   C400    1.382   .     A
C400   H410    1.076   .     S
C401   H406    1.074   .     S
C402   H405    1.083   .     S
Cu403  O433    1.963   .     S
Cu403  O427    1.954   .     S
Cu403  O429    1.969   .     S
Cu403  N425    2.032   .     S
Cu403  O431    1.968   .     S
Cu403  Cu404   2.705   .     S
Cu404  O430    1.963   .     S
Cu404  O434    1.969   .     S
Cu404  N426    2.032   .     S
Cu404  O432    1.954   .     S
Cu404  O428    1.968   .     S
H409   C950    1.078   1_554 S
H424   C947    1.079   .     S
C435   O490    1.301   .     A
C435   O489    1.295   .     A
C435   C443    1.444   .     S
C436   C438    1.482   .     S
C436   C457    1.431   .     A
C436   C453    1.402   .     A
C437   C443    1.398   .     A
C437   H473    1.083   .     S
C437   C67     1.388   1_565 S
C438   O491    1.317   .     A
C438   O492    1.295   .     A
C439   H478    1.084   .     S
C439   C440    1.404   .     A
C440   C441    1.396   .     A
C440   C449    1.453   .     S
C441   H480    1.071   .     S
C442   H481    1.084   .     S
C442   C443    1.398   .     A
C442   C69     1.381   1_565 S
C444   H482    1.082   .     S
C444   N488    1.371   .     A
C444   C507    1.424   .     S
C445   N487    1.369   .     A
C445   H483    1.081   .     S
C446   C457    1.418   .     A
C446   C1013   1.412   .     S
C446   C1017   1.423   .     S
C447   C456    1.516   .     S
C447   N487    1.407   .     A
C448   H484    1.082   .     S
C448   N488    1.340   .     A
C448   C509    1.414   .     S
C449   O494    1.293   .     A
C449   O493    1.307   .     A
C450   C452    1.464   .     S
C450   O495    1.302   .     A
C450   O496    1.303   .     A
C451   C464    1.390   .     A
C451   C1018   1.397   1_554 S
C451   H1044   1.079   1_554 S
C452   C463    1.399   .     A
C452   C464    1.399   .     A
C453   C454    1.389   .     A
C453   H469    1.083   .     S
C454   C1013   1.386   .     S
C454   H1029   1.078   .     S
C455   H470    1.073   .     S
C455   C1004   1.412   1_554 S
C455   C1012   1.386   1_554 S
C456   H477    1.097   .     S
C456   C458    1.527   .     S
C456   H479    1.114   .     S
C457   C462    1.417   .     A
C458   H475    1.103   .     S
C458   H476    1.111   .     S
C458   H474    1.104   .     S
C459   C463    1.401   .     A
C459   C1004   1.423   1_554 S
C459   C1018   1.417   1_554 S
C460   C461    1.387   .     A
C460   C1009   1.397   .     S
C460   C1017   1.417   .     S
C461   H485    1.085   .     S
C461   C462    1.382   .     A
C462   H472    1.076   .     S
C463   H468    1.074   .     S
C464   H467    1.083   .     S
Cu465  O495    1.963   .     S
Cu465  O489    1.954   .     S
Cu465  O491    1.969   .     S
Cu465  N487    2.032   .     S
Cu465  O493    1.968   .     S
Cu465  Cu466   2.705   .     S
Cu466  O492    1.963   .     S
Cu466  O496    1.969   .     S
Cu466  N488    2.032   .     S
Cu466  O494    1.954   .     S
Cu466  O490    1.968   .     S
H471   C1012   1.078   1_554 S
H486   C1009   1.079   .     S
C497   O552    1.301   .     A
C497   O551    1.295   .     A
C497   C505    1.444   .     S
C498   C500    1.482   .     S
C498   C519    1.431   .     A
C498   C515    1.402   .     A
C499   C505    1.398   .     A
C499   H535    1.083   .     S
C499   C129    1.388   1_565 S
C500   O553    1.317   .     A
C500   O554    1.295   .     A
C501   H540    1.084   .     S
C501   C502    1.404   .     A
C502   C503    1.396   .     A
C502   C511    1.453   .     S
C503   H542    1.071   .     S
C504   H543    1.084   .     S
C504   C505    1.398   .     A
C504   C131    1.381   1_565 S
C506   H544    1.082   .     S
C506   N550    1.371   .     A
C506   C383    1.424   1_655 S
C507   N549    1.369   .     A
C507   H545    1.081   .     S
C508   C519    1.418   .     A
C508   C1075   1.412   .     S
C508   C1079   1.423   .     S
C509   C518    1.516   .     S
C509   N549    1.407   .     A
C510   H546    1.082   .     S
C510   N550    1.340   .     A
C510   C385    1.414   1_655 S
C511   O556    1.293   .     A
C511   O555    1.307   .     A
C512   C514    1.464   .     S
C512   O557    1.302   .     A
C512   O558    1.303   .     A
C513   C526    1.390   .     A
C513   C1080   1.397   1_554 S
C513   H1106   1.079   1_554 S
C514   C525    1.399   .     A
C514   C526    1.399   .     A
C515   C516    1.389   .     A
C515   H531    1.083   .     S
C516   C1075   1.386   .     S
C516   H1091   1.078   .     S
C517   H532    1.073   .     S
C517   C1066   1.412   1_554 S
C517   C1074   1.386   1_554 S
C518   H539    1.097   .     S
C518   C520    1.527   .     S
C518   H541    1.114   .     S
C519   C524    1.417   .     A
C520   H537    1.103   .     S
C520   H538    1.111   .     S
C520   H536    1.104   .     S
C521   C525    1.401   .     A
C521   C1066   1.423   1_554 S
C521   C1080   1.417   1_554 S
C522   C523    1.387   .     A
C522   C1071   1.397   .     S
C522   C1079   1.417   .     S
C523   H547    1.085   .     S
C523   C524    1.382   .     A
C524   H534    1.076   .     S
C525   H530    1.074   .     S
C526   H529    1.083   .     S
Cu527  O557    1.963   .     S
Cu527  O551    1.954   .     S
Cu527  O553    1.969   .     S
Cu527  N549    2.032   .     S
Cu527  O555    1.968   .     S
Cu527  Cu528   2.705   .     S
Cu528  O554    1.963   .     S
Cu528  O558    1.969   .     S
Cu528  N550    2.032   .     S
Cu528  O556    1.954   .     S
Cu528  O552    1.968   .     S
H533   C1074   1.078   1_554 S
H548   C1071   1.079   .     S
C559   O614    1.301   .     A
C559   O613    1.295   .     A
C559   C567    1.444   .     S
C560   C562    1.482   .     S
C560   C581    1.431   .     A
C560   C577    1.402   .     A
C561   C567    1.398   .     A
C561   H597    1.083   .     S
C561   C749    1.388   .     S
C562   O615    1.317   .     A
C562   O616    1.295   .     A
C563   H602    1.084   .     S
C563   C564    1.404   .     A
C563   C933    1.388   1_545 S
C564   C565    1.396   .     A
C564   C573    1.453   .     S
C565   H604    1.071   .     S
C565   C938    1.381   1_545 S
C566   H605    1.084   .     S
C566   C567    1.398   .     A
C566   C751    1.381   .     S
C568   H606    1.082   .     S
C568   N612    1.371   .     A
C568   C631    1.424   .     S
C569   N611    1.369   .     A
C569   H607    1.081   .     S
C569   C692    1.424   1_455 S
C570   C581    1.418   .     A
C570   C21     1.412   1_556 S
C570   C25     1.423   1_556 S
C571   C580    1.516   .     S
C571   N611    1.407   .     A
C571   C696    1.414   1_455 S
C572   H608    1.082   .     S
C572   N612    1.340   .     A
C572   C633    1.414   .     S
C573   O618    1.293   .     A
C573   O617    1.307   .     A
C574   C576    1.464   .     S
C574   O619    1.302   .     A
C574   O620    1.303   .     A
C575   C588    1.390   .     A
C576   C587    1.399   .     A
C576   C588    1.399   .     A
C577   C578    1.389   .     A
C577   H593    1.083   .     S
C578   C21     1.386   1_556 S
C578   H37     1.078   1_556 S
C579   H594    1.073   .     S
C580   H601    1.097   .     S
C580   C582    1.527   .     S
C580   H603    1.114   .     S
C581   C586    1.417   .     A
C582   H599    1.103   .     S
C582   H600    1.111   .     S
C582   H598    1.104   .     S
C583   C587    1.401   .     A
C584   C585    1.387   .     A
C584   C17     1.397   1_556 S
C584   C25     1.417   1_556 S
C585   H609    1.085   .     S
C585   C586    1.382   .     A
C586   H596    1.076   .     S
C587   H592    1.074   .     S
C588   H591    1.083   .     S
Cu589  O619    1.963   .     S
Cu589  O613    1.954   .     S
Cu589  O615    1.969   .     S
Cu589  N611    2.032   .     S
Cu589  O617    1.968   .     S
Cu589  Cu590   2.705   .     S
Cu590  O616    1.963   .     S
Cu590  O620    1.969   .     S
Cu590  N612    2.032   .     S
Cu590  O618    1.954   .     S
Cu590  O614    1.968   .     S
H610   C17     1.079   1_556 S
C621   O676    1.301   .     A
C621   O675    1.295   .     A
C621   C629    1.444   .     S
C622   C624    1.482   .     S
C622   C643    1.431   .     A
C622   C639    1.402   .     A
C623   C629    1.398   .     A
C623   H659    1.083   .     S
C623   C811    1.388   .     S
C624   O677    1.317   .     A
C624   O678    1.295   .     A
C625   H664    1.084   .     S
C625   C626    1.404   .     A
C625   C995    1.388   1_545 S
C626   C627    1.396   .     A
C626   C635    1.453   .     S
C627   H666    1.071   .     S
C627   C1000   1.381   1_545 S
C628   H667    1.084   .     S
C628   C629    1.398   .     A
C628   C813    1.381   .     S
C630   H668    1.082   .     S
C630   N674    1.371   .     A
C630   C693    1.424   .     S
C631   N673    1.369   .     A
C631   H669    1.081   .     S
C632   C643    1.418   .     A
C632   C83     1.412   1_556 S
C632   C87     1.423   1_556 S
C633   C642    1.516   .     S
C633   N673    1.407   .     A
C634   H670    1.082   .     S
C634   N674    1.340   .     A
C634   C695    1.414   .     S
C635   O680    1.293   .     A
C635   O679    1.307   .     A
C636   C638    1.464   .     S
C636   O681    1.302   .     A
C636   O682    1.303   .     A
C637   C650    1.390   .     A
C638   C649    1.399   .     A
C638   C650    1.399   .     A
C639   C640    1.389   .     A
C639   H655    1.083   .     S
C640   C83     1.386   1_556 S
C640   H99     1.078   1_556 S
C641   H656    1.073   .     S
C642   H663    1.097   .     S
C642   C644    1.527   .     S
C642   H665    1.114   .     S
C643   C648    1.417   .     A
C644   H661    1.103   .     S
C644   H662    1.111   .     S
C644   H660    1.104   .     S
C645   C649    1.401   .     A
C646   C647    1.387   .     A
C646   C79     1.397   1_556 S
C646   C87     1.417   1_556 S
C647   H671    1.085   .     S
C647   C648    1.382   .     A
C648   H658    1.076   .     S
C649   H654    1.074   .     S
C650   H653    1.083   .     S
Cu651  O681    1.963   .     S
Cu651  O675    1.954   .     S
Cu651  O677    1.969   .     S
Cu651  N673    2.032   .     S
Cu651  O679    1.968   .     S
Cu651  Cu652   2.705   .     S
Cu652  O678    1.963   .     S
Cu652  O682    1.969   .     S
Cu652  N674    2.032   .     S
Cu652  O680    1.954   .     S
Cu652  O676    1.968   .     S
H672   C79     1.079   1_556 S
C683   O738    1.301   .     A
C683   O737    1.295   .     A
C683   C691    1.444   .     S
C684   C686    1.482   .     S
C684   C705    1.431   .     A
C684   C701    1.402   .     A
C685   C691    1.398   .     A
C685   H721    1.083   .     S
C685   C873    1.388   .     S
C686   O739    1.317   .     A
C686   O740    1.295   .     A
C687   H726    1.084   .     S
C687   C688    1.404   .     A
C687   C1057   1.388   1_545 S
C688   C689    1.396   .     A
C688   C697    1.453   .     S
C689   H728    1.071   .     S
C689   C1062   1.381   1_545 S
C690   H729    1.084   .     S
C690   C691    1.398   .     A
C690   C875    1.381   .     S
C692   H730    1.082   .     S
C692   N736    1.371   .     A
C692   C569    1.424   1_655 S
C693   N735    1.369   .     A
C693   H731    1.081   .     S
C694   C705    1.418   .     A
C694   C145    1.412   1_556 S
C694   C149    1.423   1_556 S
C695   C704    1.516   .     S
C695   N735    1.407   .     A
C696   H732    1.082   .     S
C696   N736    1.340   .     A
C696   C571    1.414   1_655 S
C697   O742    1.293   .     A
C697   O741    1.307   .     A
C698   C700    1.464   .     S
C698   O743    1.302   .     A
C698   O744    1.303   .     A
C699   C712    1.390   .     A
C700   C711    1.399   .     A
C700   C712    1.399   .     A
C701   C702    1.389   .     A
C701   H717    1.083   .     S
C702   C145    1.386   1_556 S
C702   H161    1.078   1_556 S
C703   H718    1.073   .     S
C704   H725    1.097   .     S
C704   C706    1.527   .     S
C704   H727    1.114   .     S
C705   C710    1.417   .     A
C706   H723    1.103   .     S
C706   H724    1.111   .     S
C706   H722    1.104   .     S
C707   C711    1.401   .     A
C708   C709    1.387   .     A
C708   C141    1.397   1_556 S
C708   C149    1.417   1_556 S
C709   H733    1.085   .     S
C709   C710    1.382   .     A
C710   H720    1.076   .     S
C711   H716    1.074   .     S
C712   H715    1.083   .     S
Cu713  O743    1.963   .     S
Cu713  O737    1.954   .     S
Cu713  O739    1.969   .     S
Cu713  N735    2.032   .     S
Cu713  O741    1.968   .     S
Cu713  Cu714   2.705   .     S
Cu714  O740    1.963   .     S
Cu714  O744    1.969   .     S
Cu714  N736    2.032   .     S
Cu714  O742    1.954   .     S
Cu714  O738    1.968   .     S
H734   C141    1.079   1_556 S
C745   O800    1.301   .     A
C745   O799    1.295   .     A
C745   C753    1.444   .     S
C746   C748    1.482   .     S
C746   C767    1.431   .     A
C746   C763    1.402   .     A
C747   C753    1.398   .     A
C747   H783    1.083   .     S
C747   C935    1.388   .     S
C748   O801    1.317   .     A
C748   O802    1.295   .     A
C749   H788    1.084   .     S
C749   C750    1.404   .     A
C750   C751    1.396   .     A
C750   C759    1.453   .     S
C751   H790    1.071   .     S
C752   H791    1.084   .     S
C752   C753    1.398   .     A
C752   C937    1.381   .     S
C754   H792    1.082   .     S
C754   N798    1.371   .     A
C754   C817    1.424   .     S
C755   N797    1.369   .     A
C755   H793    1.081   .     S
C755   C878    1.424   1_455 S
C756   C767    1.418   .     A
C756   C207    1.412   1_556 S
C756   C211    1.423   1_556 S
C757   C766    1.516   .     S
C757   N797    1.407   .     A
C757   C882    1.414   1_455 S
C758   H794    1.082   .     S
C758   N798    1.340   .     A
C758   C819    1.414   .     S
C759   O804    1.293   .     A
C759   O803    1.307   .     A
C760   C762    1.464   .     S
C760   O805    1.302   .     A
C760   O806    1.303   .     A
C761   C774    1.390   .     A
C762   C773    1.399   .     A
C762   C774    1.399   .     A
C763   C764    1.389   .     A
C763   H779    1.083   .     S
C764   C207    1.386   1_556 S
C764   H223    1.078   1_556 S
C765   H780    1.073   .     S
C766   H787    1.097   .     S
C766   C768    1.527   .     S
C766   H789    1.114   .     S
C767   C772    1.417   .     A
C768   H785    1.103   .     S
C768   H786    1.111   .     S
C768   H784    1.104   .     S
C769   C773    1.401   .     A
C770   C771    1.387   .     A
C770   C203    1.397   1_556 S
C770   C211    1.417   1_556 S
C771   H795    1.085   .     S
C771   C772    1.382   .     A
C772   H782    1.076   .     S
C773   H778    1.074   .     S
C774   H777    1.083   .     S
Cu775  O805    1.963   .     S
Cu775  O799    1.954   .     S
Cu775  O801    1.969   .     S
Cu775  N797    2.032   .     S
Cu775  O803    1.968   .     S
Cu775  Cu776   2.705   .     S
Cu776  O802    1.963   .     S
Cu776  O806    1.969   .     S
Cu776  N798    2.032   .     S
Cu776  O804    1.954   .     S
Cu776  O800    1.968   .     S
H796   C203    1.079   1_556 S
C807   O862    1.301   .     A
C807   O861    1.295   .     A
C807   C815    1.444   .     S
C808   C810    1.482   .     S
C808   C829    1.431   .     A
C808   C825    1.402   .     A
C809   C815    1.398   .     A
C809   H845    1.083   .     S
C809   C997    1.388   .     S
C810   O863    1.317   .     A
C810   O864    1.295   .     A
C811   H850    1.084   .     S
C811   C812    1.404   .     A
C812   C813    1.396   .     A
C812   C821    1.453   .     S
C813   H852    1.071   .     S
C814   H853    1.084   .     S
C814   C815    1.398   .     A
C814   C999    1.381   .     S
C816   H854    1.082   .     S
C816   N860    1.371   .     A
C816   C879    1.424   .     S
C817   N859    1.369   .     A
C817   H855    1.081   .     S
C818   C829    1.418   .     A
C818   C269    1.412   1_556 S
C818   C273    1.423   1_556 S
C819   C828    1.516   .     S
C819   N859    1.407   .     A
C820   H856    1.082   .     S
C820   N860    1.340   .     A
C820   C881    1.414   .     S
C821   O866    1.293   .     A
C821   O865    1.307   .     A
C822   C824    1.464   .     S
C822   O867    1.302   .     A
C822   O868    1.303   .     A
C823   C836    1.390   .     A
C824   C835    1.399   .     A
C824   C836    1.399   .     A
C825   C826    1.389   .     A
C825   H841    1.083   .     S
C826   C269    1.386   1_556 S
C826   H285    1.078   1_556 S
C827   H842    1.073   .     S
C828   H849    1.097   .     S
C828   C830    1.527   .     S
C828   H851    1.114   .     S
C829   C834    1.417   .     A
C830   H847    1.103   .     S
C830   H848    1.111   .     S
C830   H846    1.104   .     S
C831   C835    1.401   .     A
C832   C833    1.387   .     A
C832   C265    1.397   1_556 S
C832   C273    1.417   1_556 S
C833   H857    1.085   .     S
C833   C834    1.382   .     A
C834   H844    1.076   .     S
C835   H840    1.074   .     S
C836   H839    1.083   .     S
Cu837  O867    1.963   .     S
Cu837  O861    1.954   .     S
Cu837  O863    1.969   .     S
Cu837  N859    2.032   .     S
Cu837  O865    1.968   .     S
Cu837  Cu838   2.705   .     S
Cu838  O864    1.963   .     S
Cu838  O868    1.969   .     S
Cu838  N860    2.032   .     S
Cu838  O866    1.954   .     S
Cu838  O862    1.968   .     S
H858   C265    1.079   1_556 S
C869   O924    1.301   .     A
C869   O923    1.295   .     A
C869   C877    1.444   .     S
C870   C872    1.482   .     S
C870   C891    1.431   .     A
C870   C887    1.402   .     A
C871   C877    1.398   .     A
C871   H907    1.083   .     S
C871   C1059   1.388   .     S
C872   O925    1.317   .     A
C872   O926    1.295   .     A
C873   H912    1.084   .     S
C873   C874    1.404   .     A
C874   C875    1.396   .     A
C874   C883    1.453   .     S
C875   H914    1.071   .     S
C876   H915    1.084   .     S
C876   C877    1.398   .     A
C876   C1061   1.381   .     S
C878   H916    1.082   .     S
C878   N922    1.371   .     A
C878   C755    1.424   1_655 S
C879   N921    1.369   .     A
C879   H917    1.081   .     S
C880   C891    1.418   .     A
C880   C331    1.412   1_556 S
C880   C335    1.423   1_556 S
C881   C890    1.516   .     S
C881   N921    1.407   .     A
C882   H918    1.082   .     S
C882   N922    1.340   .     A
C882   C757    1.414   1_655 S
C883   O928    1.293   .     A
C883   O927    1.307   .     A
C884   C886    1.464   .     S
C884   O929    1.302   .     A
C884   O930    1.303   .     A
C885   C898    1.390   .     A
C886   C897    1.399   .     A
C886   C898    1.399   .     A
C887   C888    1.389   .     A
C887   H903    1.083   .     S
C888   C331    1.386   1_556 S
C888   H347    1.078   1_556 S
C889   H904    1.073   .     S
C890   H911    1.097   .     S
C890   C892    1.527   .     S
C890   H913    1.114   .     S
C891   C896    1.417   .     A
C892   H909    1.103   .     S
C892   H910    1.111   .     S
C892   H908    1.104   .     S
C893   C897    1.401   .     A
C894   C895    1.387   .     A
C894   C327    1.397   1_556 S
C894   C335    1.417   1_556 S
C895   H919    1.085   .     S
C895   C896    1.382   .     A
C896   H906    1.076   .     S
C897   H902    1.074   .     S
C898   H901    1.083   .     S
Cu899  O929    1.963   .     S
Cu899  O923    1.954   .     S
Cu899  O925    1.969   .     S
Cu899  N921    2.032   .     S
Cu899  O927    1.968   .     S
Cu899  Cu900   2.705   .     S
Cu900  O926    1.963   .     S
Cu900  O930    1.969   .     S
Cu900  N922    2.032   .     S
Cu900  O928    1.954   .     S
Cu900  O924    1.968   .     S
H920   C327    1.079   1_556 S
C931   O986    1.301   .     A
C931   O985    1.295   .     A
C931   C939    1.444   .     S
C932   C934    1.482   .     S
C932   C953    1.431   .     A
C932   C949    1.402   .     A
C933   C939    1.398   .     A
C933   H969    1.083   .     S
C933   C563    1.388   1_565 S
C934   O987    1.317   .     A
C934   O988    1.295   .     A
C935   H974    1.084   .     S
C935   C936    1.404   .     A
C936   C937    1.396   .     A
C936   C945    1.453   .     S
C937   H976    1.071   .     S
C938   H977    1.084   .     S
C938   C939    1.398   .     A
C938   C565    1.381   1_565 S
C940   H978    1.082   .     S
C940   N984    1.371   .     A
C940   C1003   1.424   .     S
C941   N983    1.369   .     A
C941   H979    1.081   .     S
C941   C1064   1.424   1_455 S
C942   C953    1.418   .     A
C942   C393    1.412   1_556 S
C942   C397    1.423   1_556 S
C943   C952    1.516   .     S
C943   N983    1.407   .     A
C943   C1068   1.414   1_455 S
C944   H980    1.082   .     S
C944   N984    1.340   .     A
C944   C1005   1.414   .     S
C945   O990    1.293   .     A
C945   O989    1.307   .     A
C946   C948    1.464   .     S
C946   O991    1.302   .     A
C946   O992    1.303   .     A
C947   C960    1.390   .     A
C948   C959    1.399   .     A
C948   C960    1.399   .     A
C949   C950    1.389   .     A
C949   H965    1.083   .     S
C950   C393    1.386   1_556 S
C950   H409    1.078   1_556 S
C951   H966    1.073   .     S
C952   H973    1.097   .     S
C952   C954    1.527   .     S
C952   H975    1.114   .     S
C953   C958    1.417   .     A
C954   H971    1.103   .     S
C954   H972    1.111   .     S
C954   H970    1.104   .     S
C955   C959    1.401   .     A
C956   C957    1.387   .     A
C956   C389    1.397   1_556 S
C956   C397    1.417   1_556 S
C957   H981    1.085   .     S
C957   C958    1.382   .     A
C958   H968    1.076   .     S
C959   H964    1.074   .     S
C960   H963    1.083   .     S
Cu961  O991    1.963   .     S
Cu961  O985    1.954   .     S
Cu961  O987    1.969   .     S
Cu961  N983    2.032   .     S
Cu961  O989    1.968   .     S
Cu961  Cu962   2.705   .     S
Cu962  O988    1.963   .     S
Cu962  O992    1.969   .     S
Cu962  N984    2.032   .     S
Cu962  O990    1.954   .     S
Cu962  O986    1.968   .     S
H982   C389    1.079   1_556 S
C993   O1048   1.301   .     A
C993   O1047   1.295   .     A
C993   C1001   1.444   .     S
C994   C996    1.482   .     S
C994   C1015   1.431   .     A
C994   C1011   1.402   .     A
C995   C1001   1.398   .     A
C995   H1031   1.083   .     S
C995   C625    1.388   1_565 S
C996   O1049   1.317   .     A
C996   O1050   1.295   .     A
C997   H1036   1.084   .     S
C997   C998    1.404   .     A
C998   C999    1.396   .     A
C998   C1007   1.453   .     S
C999   H1038   1.071   .     S
C1000  H1039   1.084   .     S
C1000  C1001   1.398   .     A
C1000  C627    1.381   1_565 S
C1002  H1040   1.082   .     S
C1002  N1046   1.371   .     A
C1002  C1065   1.424   .     S
C1003  N1045   1.369   .     A
C1003  H1041   1.081   .     S
C1004  C1015   1.418   .     A
C1004  C455    1.412   1_556 S
C1004  C459    1.423   1_556 S
C1005  C1014   1.516   .     S
C1005  N1045   1.407   .     A
C1006  H1042   1.082   .     S
C1006  N1046   1.340   .     A
C1006  C1067   1.414   .     S
C1007  O1052   1.293   .     A
C1007  O1051   1.307   .     A
C1008  C1010   1.464   .     S
C1008  O1053   1.302   .     A
C1008  O1054   1.303   .     A
C1009  C1022   1.390   .     A
C1010  C1021   1.399   .     A
C1010  C1022   1.399   .     A
C1011  C1012   1.389   .     A
C1011  H1027   1.083   .     S
C1012  C455    1.386   1_556 S
C1012  H471    1.078   1_556 S
C1013  H1028   1.073   .     S
C1014  H1035   1.097   .     S
C1014  C1016   1.527   .     S
C1014  H1037   1.114   .     S
C1015  C1020   1.417   .     A
C1016  H1033   1.103   .     S
C1016  H1034   1.111   .     S
C1016  H1032   1.104   .     S
C1017  C1021   1.401   .     A
C1018  C1019   1.387   .     A
C1018  C451    1.397   1_556 S
C1018  C459    1.417   1_556 S
C1019  H1043   1.085   .     S
C1019  C1020   1.382   .     A
C1020  H1030   1.076   .     S
C1021  H1026   1.074   .     S
C1022  H1025   1.083   .     S
Cu1023 O1053   1.963   .     S
Cu1023 O1047   1.954   .     S
Cu1023 O1049   1.969   .     S
Cu1023 N1045   2.032   .     S
Cu1023 O1051   1.968   .     S
Cu1023 Cu1024  2.705   .     S
Cu1024 O1050   1.963   .     S
Cu1024 O1054   1.969   .     S
Cu1024 N1046   2.032   .     S
Cu1024 O1052   1.954   .     S
Cu1024 O1048   1.968   .     S
H1044  C451    1.079   1_556 S
C1055  O1110   1.301   .     A
C1055  O1109   1.295   .     A
C1055  C1063   1.444   .     S
C1056  C1058   1.482   .     S
C1056  C1077   1.431   .     A
C1056  C1073   1.402   .     A
C1057  C1063   1.398   .     A
C1057  H1093   1.083   .     S
C1057  C687    1.388   1_565 S
C1058  O1111   1.317   .     A
C1058  O1112   1.295   .     A
C1059  H1098   1.084   .     S
C1059  C1060   1.404   .     A
C1060  C1061   1.396   .     A
C1060  C1069   1.453   .     S
C1061  H1100   1.071   .     S
C1062  H1101   1.084   .     S
C1062  C1063   1.398   .     A
C1062  C689    1.381   1_565 S
C1064  H1102   1.082   .     S
C1064  N1108   1.371   .     A
C1064  C941    1.424   1_655 S
C1065  N1107   1.369   .     A
C1065  H1103   1.081   .     S
C1066  C1077   1.418   .     A
C1066  C517    1.412   1_556 S
C1066  C521    1.423   1_556 S
C1067  C1076   1.516   .     S
C1067  N1107   1.407   .     A
C1068  H1104   1.082   .     S
C1068  N1108   1.340   .     A
C1068  C943    1.414   1_655 S
C1069  O1114   1.293   .     A
C1069  O1113   1.307   .     A
C1070  C1072   1.464   .     S
C1070  O1115   1.302   .     A
C1070  O1116   1.303   .     A
C1071  C1084   1.390   .     A
C1072  C1083   1.399   .     A
C1072  C1084   1.399   .     A
C1073  C1074   1.389   .     A
C1073  H1089   1.083   .     S
C1074  C517    1.386   1_556 S
C1074  H533    1.078   1_556 S
C1075  H1090   1.073   .     S
C1076  H1097   1.097   .     S
C1076  C1078   1.527   .     S
C1076  H1099   1.114   .     S
C1077  C1082   1.417   .     A
C1078  H1095   1.103   .     S
C1078  H1096   1.111   .     S
C1078  H1094   1.104   .     S
C1079  C1083   1.401   .     A
C1080  C1081   1.387   .     A
C1080  C513    1.397   1_556 S
C1080  C521    1.417   1_556 S
C1081  H1105   1.085   .     S
C1081  C1082   1.382   .     A
C1082  H1092   1.076   .     S
C1083  H1088   1.074   .     S
C1084  H1087   1.083   .     S
Cu1085 O1115   1.963   .     S
Cu1085 O1109   1.954   .     S
Cu1085 O1111   1.969   .     S
Cu1085 N1107   2.032   .     S
Cu1085 O1113   1.968   .     S
Cu1085 Cu1086  2.705   .     S
Cu1086 O1112   1.963   .     S
Cu1086 O1116   1.969   .     S
Cu1086 N1108   2.032   .     S
Cu1086 O1114   1.954   .     S
Cu1086 O1110   1.968   .     S
H1106  C513    1.079   1_556 S
