data_str_m2_o2_o10_pcu_sym.9
_audit_creation_date              2020-01-03
_audit_creation_method            'Materials Studio'
_symmetry_space_group_name_H-M    'P1'
_symmetry_Int_Tables_number       1
_symmetry_cell_setting            triclinic
loop_
_symmetry_equiv_pos_as_xyz
  x,y,z
_cell_length_a                    26.4660
_cell_length_b                    30.2342
_cell_length_c                    27.7097
_cell_angle_alpha                 89.8901
_cell_angle_beta                  97.6987
_cell_angle_gamma                 90.1750
loop_
_atom_site_label
_atom_site_type_symbol
_atom_site_fract_x
_atom_site_fract_y
_atom_site_fract_z
_atom_site_U_iso_or_equiv
_atom_site_adp_type
_atom_site_occupancy
C1     C     0.16649   0.16494   0.25003   0.00000  Uiso   1.00
C2     C     0.19084   0.28384   0.44907   0.00000  Uiso   1.00
C3     C     0.16662   0.25000   0.02733   0.00000  Uiso   1.00
C4     C     0.16659   0.25001   0.47264   0.00000  Uiso   1.00
C5     C     0.06812   0.24986   0.23786   0.00000  Uiso   1.00
C6     C     0.26515   0.25037   0.26225   0.00000  Uiso   1.00
C7     C     0.01336   0.24576   0.23166   0.00000  Uiso   1.00
C8     C     0.31964   0.25456   0.26904   0.00000  Uiso   1.00
C9     C     0.14180   0.04776   0.28606   0.00000  Uiso   1.00
C10    C     0.14245   0.45218   0.20746   0.00000  Uiso   1.00
C11    C     0.14369   0.09394   0.28624   0.00000  Uiso   1.00
C12    C     0.16653   0.33506   0.24994   0.00000  Uiso   1.00
C13    C     0.14437   0.40601   0.20773   0.00000  Uiso   1.00
C14    C     0.16558   0.11673   0.25011   0.00000  Uiso   1.00
C15    C     0.16563   0.38329   0.24967   0.00000  Uiso   1.00
C16    C     0.18618   0.09324   0.21392   0.00000  Uiso   1.00
C17    C     0.18557   0.40685   0.29139   0.00000  Uiso   1.00
C18    C     0.18549   0.04730   0.21416   0.00000  Uiso   1.00
C19    C     0.18483   0.45279   0.29102   0.00000  Uiso   1.00
C20    C     0.16312   0.02428   0.24988   0.00000  Uiso   1.00
C21    C     0.16310   0.47573   0.24935   0.00000  Uiso   1.00
C22    C     0.20614   0.27030   0.05894   0.00000  Uiso   1.00
C23    C     0.14233   0.21619   0.44298   0.00000  Uiso   1.00
C24    C     0.20519   0.27027   0.10956   0.00000  Uiso   1.00
C25    C     0.14248   0.21700   0.39225   0.00000  Uiso   1.00
C26    C     0.12809   0.22979   0.09983   0.00000  Uiso   1.00
C27    C     0.19075   0.28302   0.39831   0.00000  Uiso   1.00
C28    C     0.12711   0.22971   0.04895   0.00000  Uiso   1.00
Cu29   Cu    0.16667   0.25000   0.29821   0.00000  Uiso   1.00
Cu30   Cu    0.16667   0.25001   0.20178   0.00000  Uiso   1.00
H31    H     0.12709   0.11193   0.31402   0.00000  Uiso   1.00
H32    H     0.33012   0.25177   0.15823   0.00000  Uiso   1.00
H33    H     0.03028   0.29925   0.31188   0.00000  Uiso   1.00
H34    H     0.03009   0.24609   0.33530   0.00000  Uiso   1.00
H35    H     0.07952   0.03580   0.31896   0.00000  Uiso   1.00
H36    H     0.13548   0.03378   0.35627   0.00000  Uiso   1.00
H37    H     0.08086   0.46386   0.15779   0.00000  Uiso   1.00
H38    H     0.13732   0.46622   0.13572   0.00000  Uiso   1.00
H39    H     0.20356   0.11040   0.18595   0.00000  Uiso   1.00
H40    H     0.20245   0.38975   0.32398   0.00000  Uiso   1.00
H41    H     0.23815   0.28575   0.04502   0.00000  Uiso   1.00
H42    H     0.12828   0.38799   0.17550   0.00000  Uiso   1.00
H43    H     0.12381   0.18876   0.45864   0.00000  Uiso   1.00
H44    H     0.09762   0.21372   0.11562   0.00000  Uiso   1.00
H45    H     0.20993   0.30911   0.38106   0.00000  Uiso   1.00
H46    H     0.20267   0.02961   0.18656   0.00000  Uiso   1.00
H47    H     0.20150   0.47053   0.32323   0.00000  Uiso   1.00
H48    H     0.23559   0.28646   0.13303   0.00000  Uiso   1.00
H49    H     0.12329   0.19093   0.37018   0.00000  Uiso   1.00
H50    H     0.09508   0.21427   0.02692   0.00000  Uiso   1.00
H51    H     0.20931   0.31129   0.46936   0.00000  Uiso   1.00
H52    H     0.00492   0.19906   0.17860   0.00000  Uiso   1.00
N53    N     0.16667   0.25001   0.12934   0.00000  Uiso   1.00
N54    N     0.16667   0.24999   0.37065   0.00000  Uiso   1.00
N55    N     0.32234   0.22967   0.18538   0.00000  Uiso   1.00
N56    N     0.00855   0.27088   0.31599   0.00000  Uiso   1.00
N57    N     0.11723   0.02484   0.32184   0.00000  Uiso   1.00
N58    N     0.11853   0.47501   0.16515   0.00000  Uiso   1.00
O59    O     0.16667   0.18572   0.29071   0.00000  Uiso   1.00
O60    O     0.16666   0.31428   0.20928   0.00000  Uiso   1.00
O61    O     0.16667   0.18573   0.20928   0.00000  Uiso   1.00
O62    O     0.16666   0.31427   0.29072   0.00000  Uiso   1.00
O63    O     0.09161   0.25000   0.28132   0.00000  Uiso   1.00
O64    O     0.24172   0.25000   0.21868   0.00000  Uiso   1.00
O65    O     0.09161   0.25000   0.19988   0.00000  Uiso   1.00
O66    O     0.24172   0.25000   0.30011   0.00000  Uiso   1.00
C67    C     0.49982   0.16494   0.25003   0.00000  Uiso   1.00
C68    C     0.52417   0.28384   0.44907   0.00000  Uiso   1.00
C69    C     0.49995   0.25000   0.02733   0.00000  Uiso   1.00
C70    C     0.49992   0.25001   0.47264   0.00000  Uiso   1.00
C71    C     0.40145   0.24986   0.23786   0.00000  Uiso   1.00
C72    C     0.59849   0.25037   0.26225   0.00000  Uiso   1.00
C73    C     0.34669   0.24576   0.23166   0.00000  Uiso   1.00
C74    C     0.65298   0.25456   0.26904   0.00000  Uiso   1.00
C75    C     0.47513   0.04776   0.28606   0.00000  Uiso   1.00
C76    C     0.47578   0.45218   0.20746   0.00000  Uiso   1.00
C77    C     0.47702   0.09394   0.28624   0.00000  Uiso   1.00
C78    C     0.49986   0.33506   0.24994   0.00000  Uiso   1.00
C79    C     0.47770   0.40601   0.20773   0.00000  Uiso   1.00
C80    C     0.49891   0.11673   0.25011   0.00000  Uiso   1.00
C81    C     0.49897   0.38329   0.24967   0.00000  Uiso   1.00
C82    C     0.51952   0.09324   0.21392   0.00000  Uiso   1.00
C83    C     0.51890   0.40685   0.29139   0.00000  Uiso   1.00
C84    C     0.51882   0.04730   0.21416   0.00000  Uiso   1.00
C85    C     0.51816   0.45279   0.29102   0.00000  Uiso   1.00
C86    C     0.49645   0.02428   0.24988   0.00000  Uiso   1.00
C87    C     0.49644   0.47573   0.24935   0.00000  Uiso   1.00
C88    C     0.53947   0.27030   0.05894   0.00000  Uiso   1.00
C89    C     0.47566   0.21619   0.44298   0.00000  Uiso   1.00
C90    C     0.53852   0.27027   0.10956   0.00000  Uiso   1.00
C91    C     0.47582   0.21700   0.39225   0.00000  Uiso   1.00
C92    C     0.46142   0.22979   0.09983   0.00000  Uiso   1.00
C93    C     0.52409   0.28302   0.39831   0.00000  Uiso   1.00
C94    C     0.46045   0.22971   0.04895   0.00000  Uiso   1.00
Cu95   Cu    0.50000   0.25000   0.29821   0.00000  Uiso   1.00
Cu96   Cu    0.50000   0.25001   0.20178   0.00000  Uiso   1.00
H97    H     0.46043   0.11193   0.31402   0.00000  Uiso   1.00
H98    H     0.66345   0.25177   0.15823   0.00000  Uiso   1.00
H99    H     0.36361   0.29925   0.31188   0.00000  Uiso   1.00
H100   H     0.36343   0.24609   0.33530   0.00000  Uiso   1.00
H101   H     0.41285   0.03580   0.31896   0.00000  Uiso   1.00
H102   H     0.46881   0.03378   0.35627   0.00000  Uiso   1.00
H103   H     0.41419   0.46386   0.15779   0.00000  Uiso   1.00
H104   H     0.47065   0.46622   0.13572   0.00000  Uiso   1.00
H105   H     0.53690   0.11040   0.18595   0.00000  Uiso   1.00
H106   H     0.53578   0.38975   0.32398   0.00000  Uiso   1.00
H107   H     0.57149   0.28575   0.04502   0.00000  Uiso   1.00
H108   H     0.46161   0.38799   0.17550   0.00000  Uiso   1.00
H109   H     0.45714   0.18876   0.45864   0.00000  Uiso   1.00
H110   H     0.43095   0.21372   0.11562   0.00000  Uiso   1.00
H111   H     0.54326   0.30911   0.38106   0.00000  Uiso   1.00
H112   H     0.53600   0.02961   0.18656   0.00000  Uiso   1.00
H113   H     0.53483   0.47053   0.32323   0.00000  Uiso   1.00
H114   H     0.56892   0.28646   0.13303   0.00000  Uiso   1.00
H115   H     0.45662   0.19093   0.37018   0.00000  Uiso   1.00
H116   H     0.42841   0.21427   0.02692   0.00000  Uiso   1.00
H117   H     0.54264   0.31129   0.46936   0.00000  Uiso   1.00
H118   H     0.33826   0.19906   0.17860   0.00000  Uiso   1.00
N119   N     0.50000   0.25001   0.12934   0.00000  Uiso   1.00
N120   N     0.50000   0.24999   0.37065   0.00000  Uiso   1.00
N121   N     0.65567   0.22967   0.18538   0.00000  Uiso   1.00
N122   N     0.34188   0.27088   0.31599   0.00000  Uiso   1.00
N123   N     0.45057   0.02484   0.32184   0.00000  Uiso   1.00
N124   N     0.45186   0.47501   0.16515   0.00000  Uiso   1.00
O125   O     0.50000   0.18572   0.29071   0.00000  Uiso   1.00
O126   O     0.50000   0.31428   0.20928   0.00000  Uiso   1.00
O127   O     0.50000   0.18573   0.20928   0.00000  Uiso   1.00
O128   O     0.50000   0.31427   0.29072   0.00000  Uiso   1.00
O129   O     0.42495   0.25000   0.28132   0.00000  Uiso   1.00
O130   O     0.57505   0.25000   0.21868   0.00000  Uiso   1.00
O131   O     0.42495   0.25000   0.19988   0.00000  Uiso   1.00
O132   O     0.57505   0.25000   0.30011   0.00000  Uiso   1.00
C133   C     0.83315   0.16494   0.25003   0.00000  Uiso   1.00
C134   C     0.85750   0.28384   0.44907   0.00000  Uiso   1.00
C135   C     0.83329   0.25000   0.02733   0.00000  Uiso   1.00
C136   C     0.83326   0.25001   0.47264   0.00000  Uiso   1.00
C137   C     0.73478   0.24986   0.23786   0.00000  Uiso   1.00
C138   C     0.93182   0.25037   0.26225   0.00000  Uiso   1.00
C139   C     0.68002   0.24576   0.23166   0.00000  Uiso   1.00
C140   C     0.98631   0.25456   0.26904   0.00000  Uiso   1.00
C141   C     0.80846   0.04776   0.28606   0.00000  Uiso   1.00
C142   C     0.80912   0.45218   0.20746   0.00000  Uiso   1.00
C143   C     0.81035   0.09394   0.28624   0.00000  Uiso   1.00
C144   C     0.83320   0.33506   0.24994   0.00000  Uiso   1.00
C145   C     0.81103   0.40601   0.20773   0.00000  Uiso   1.00
C146   C     0.83224   0.11673   0.25011   0.00000  Uiso   1.00
C147   C     0.83230   0.38329   0.24967   0.00000  Uiso   1.00
C148   C     0.85285   0.09324   0.21392   0.00000  Uiso   1.00
C149   C     0.85224   0.40685   0.29139   0.00000  Uiso   1.00
C150   C     0.85215   0.04730   0.21416   0.00000  Uiso   1.00
C151   C     0.85150   0.45279   0.29102   0.00000  Uiso   1.00
C152   C     0.82978   0.02428   0.24988   0.00000  Uiso   1.00
C153   C     0.82977   0.47573   0.24935   0.00000  Uiso   1.00
C154   C     0.87281   0.27030   0.05894   0.00000  Uiso   1.00
C155   C     0.80899   0.21619   0.44298   0.00000  Uiso   1.00
C156   C     0.87185   0.27027   0.10956   0.00000  Uiso   1.00
C157   C     0.80915   0.21700   0.39225   0.00000  Uiso   1.00
C158   C     0.79476   0.22979   0.09983   0.00000  Uiso   1.00
C159   C     0.85742   0.28302   0.39831   0.00000  Uiso   1.00
C160   C     0.79378   0.22971   0.04895   0.00000  Uiso   1.00
Cu161  Cu    0.83333   0.25000   0.29821   0.00000  Uiso   1.00
Cu162  Cu    0.83333   0.25001   0.20178   0.00000  Uiso   1.00
H163   H     0.79376   0.11193   0.31402   0.00000  Uiso   1.00
H164   H     0.99678   0.25177   0.15823   0.00000  Uiso   1.00
H165   H     0.69695   0.29925   0.31188   0.00000  Uiso   1.00
H166   H     0.69676   0.24609   0.33530   0.00000  Uiso   1.00
H167   H     0.74618   0.03580   0.31896   0.00000  Uiso   1.00
H168   H     0.80214   0.03378   0.35627   0.00000  Uiso   1.00
H169   H     0.74752   0.46386   0.15779   0.00000  Uiso   1.00
H170   H     0.80399   0.46622   0.13572   0.00000  Uiso   1.00
H171   H     0.87023   0.11040   0.18595   0.00000  Uiso   1.00
H172   H     0.86911   0.38975   0.32398   0.00000  Uiso   1.00
H173   H     0.90482   0.28575   0.04502   0.00000  Uiso   1.00
H174   H     0.79495   0.38799   0.17550   0.00000  Uiso   1.00
H175   H     0.79047   0.18876   0.45864   0.00000  Uiso   1.00
H176   H     0.76429   0.21372   0.11562   0.00000  Uiso   1.00
H177   H     0.87660   0.30911   0.38106   0.00000  Uiso   1.00
H178   H     0.86934   0.02961   0.18656   0.00000  Uiso   1.00
H179   H     0.86816   0.47053   0.32323   0.00000  Uiso   1.00
H180   H     0.90226   0.28646   0.13303   0.00000  Uiso   1.00
H181   H     0.78995   0.19093   0.37018   0.00000  Uiso   1.00
H182   H     0.76175   0.21427   0.02692   0.00000  Uiso   1.00
H183   H     0.87597   0.31129   0.46936   0.00000  Uiso   1.00
H184   H     0.67159   0.19906   0.17860   0.00000  Uiso   1.00
N185   N     0.83333   0.25001   0.12934   0.00000  Uiso   1.00
N186   N     0.83333   0.24999   0.37065   0.00000  Uiso   1.00
N187   N     0.98900   0.22967   0.18538   0.00000  Uiso   1.00
N188   N     0.67521   0.27088   0.31599   0.00000  Uiso   1.00
N189   N     0.78390   0.02484   0.32184   0.00000  Uiso   1.00
N190   N     0.78520   0.47501   0.16515   0.00000  Uiso   1.00
O191   O     0.83334   0.18572   0.29071   0.00000  Uiso   1.00
O192   O     0.83333   0.31428   0.20928   0.00000  Uiso   1.00
O193   O     0.83334   0.18573   0.20928   0.00000  Uiso   1.00
O194   O     0.83333   0.31427   0.29072   0.00000  Uiso   1.00
O195   O     0.75828   0.25000   0.28132   0.00000  Uiso   1.00
O196   O     0.90839   0.25000   0.21868   0.00000  Uiso   1.00
O197   O     0.75828   0.25000   0.19988   0.00000  Uiso   1.00
O198   O     0.90839   0.25000   0.30011   0.00000  Uiso   1.00
C199   C     0.16649   0.66494   0.25003   0.00000  Uiso   1.00
C200   C     0.19084   0.78384   0.44907   0.00000  Uiso   1.00
C201   C     0.16662   0.75000   0.02733   0.00000  Uiso   1.00
C202   C     0.16659   0.75001   0.47264   0.00000  Uiso   1.00
C203   C     0.06812   0.74986   0.23786   0.00000  Uiso   1.00
C204   C     0.26515   0.75037   0.26225   0.00000  Uiso   1.00
C205   C     0.01336   0.74576   0.23166   0.00000  Uiso   1.00
C206   C     0.31964   0.75456   0.26904   0.00000  Uiso   1.00
C207   C     0.14180   0.54776   0.28606   0.00000  Uiso   1.00
C208   C     0.14245   0.95218   0.20746   0.00000  Uiso   1.00
C209   C     0.14369   0.59394   0.28624   0.00000  Uiso   1.00
C210   C     0.16653   0.83506   0.24994   0.00000  Uiso   1.00
C211   C     0.14437   0.90601   0.20773   0.00000  Uiso   1.00
C212   C     0.16558   0.61673   0.25011   0.00000  Uiso   1.00
C213   C     0.16563   0.88329   0.24967   0.00000  Uiso   1.00
C214   C     0.18618   0.59324   0.21392   0.00000  Uiso   1.00
C215   C     0.18557   0.90685   0.29139   0.00000  Uiso   1.00
C216   C     0.18549   0.54730   0.21416   0.00000  Uiso   1.00
C217   C     0.18483   0.95279   0.29102   0.00000  Uiso   1.00
C218   C     0.16312   0.52428   0.24988   0.00000  Uiso   1.00
C219   C     0.16310   0.97573   0.24935   0.00000  Uiso   1.00
C220   C     0.20614   0.77030   0.05894   0.00000  Uiso   1.00
C221   C     0.14233   0.71619   0.44298   0.00000  Uiso   1.00
C222   C     0.20519   0.77027   0.10956   0.00000  Uiso   1.00
C223   C     0.14248   0.71700   0.39225   0.00000  Uiso   1.00
C224   C     0.12809   0.72979   0.09983   0.00000  Uiso   1.00
C225   C     0.19075   0.78302   0.39831   0.00000  Uiso   1.00
C226   C     0.12711   0.72971   0.04895   0.00000  Uiso   1.00
Cu227  Cu    0.16667   0.75000   0.29821   0.00000  Uiso   1.00
Cu228  Cu    0.16667   0.75001   0.20178   0.00000  Uiso   1.00
H229   H     0.12709   0.61193   0.31402   0.00000  Uiso   1.00
H230   H     0.33012   0.75177   0.15823   0.00000  Uiso   1.00
H231   H     0.03028   0.79925   0.31188   0.00000  Uiso   1.00
H232   H     0.03009   0.74609   0.33530   0.00000  Uiso   1.00
H233   H     0.07952   0.53580   0.31896   0.00000  Uiso   1.00
H234   H     0.13548   0.53378   0.35627   0.00000  Uiso   1.00
H235   H     0.08086   0.96386   0.15779   0.00000  Uiso   1.00
H236   H     0.13732   0.96622   0.13572   0.00000  Uiso   1.00
H237   H     0.20356   0.61040   0.18595   0.00000  Uiso   1.00
H238   H     0.20245   0.88975   0.32398   0.00000  Uiso   1.00
H239   H     0.23815   0.78575   0.04502   0.00000  Uiso   1.00
H240   H     0.12828   0.88799   0.17550   0.00000  Uiso   1.00
H241   H     0.12381   0.68876   0.45864   0.00000  Uiso   1.00
H242   H     0.09762   0.71372   0.11562   0.00000  Uiso   1.00
H243   H     0.20993   0.80911   0.38106   0.00000  Uiso   1.00
H244   H     0.20267   0.52961   0.18656   0.00000  Uiso   1.00
H245   H     0.20150   0.97053   0.32323   0.00000  Uiso   1.00
H246   H     0.23559   0.78646   0.13303   0.00000  Uiso   1.00
H247   H     0.12329   0.69093   0.37018   0.00000  Uiso   1.00
H248   H     0.09508   0.71427   0.02692   0.00000  Uiso   1.00
H249   H     0.20931   0.81129   0.46936   0.00000  Uiso   1.00
H250   H     0.00492   0.69906   0.17860   0.00000  Uiso   1.00
N251   N     0.16667   0.75001   0.12934   0.00000  Uiso   1.00
N252   N     0.16667   0.74999   0.37065   0.00000  Uiso   1.00
N253   N     0.32234   0.72967   0.18538   0.00000  Uiso   1.00
N254   N     0.00855   0.77088   0.31599   0.00000  Uiso   1.00
N255   N     0.11723   0.52484   0.32184   0.00000  Uiso   1.00
N256   N     0.11853   0.97501   0.16515   0.00000  Uiso   1.00
O257   O     0.16667   0.68572   0.29071   0.00000  Uiso   1.00
O258   O     0.16666   0.81428   0.20928   0.00000  Uiso   1.00
O259   O     0.16667   0.68573   0.20928   0.00000  Uiso   1.00
O260   O     0.16666   0.81427   0.29072   0.00000  Uiso   1.00
O261   O     0.09161   0.75000   0.28132   0.00000  Uiso   1.00
O262   O     0.24172   0.75000   0.21868   0.00000  Uiso   1.00
O263   O     0.09161   0.75000   0.19988   0.00000  Uiso   1.00
O264   O     0.24172   0.75000   0.30011   0.00000  Uiso   1.00
C265   C     0.49982   0.66494   0.25003   0.00000  Uiso   1.00
C266   C     0.52417   0.78384   0.44907   0.00000  Uiso   1.00
C267   C     0.49995   0.75000   0.02733   0.00000  Uiso   1.00
C268   C     0.49992   0.75001   0.47264   0.00000  Uiso   1.00
C269   C     0.40145   0.74986   0.23786   0.00000  Uiso   1.00
C270   C     0.59849   0.75037   0.26225   0.00000  Uiso   1.00
C271   C     0.34669   0.74576   0.23166   0.00000  Uiso   1.00
C272   C     0.65298   0.75456   0.26904   0.00000  Uiso   1.00
C273   C     0.47513   0.54776   0.28606   0.00000  Uiso   1.00
C274   C     0.47578   0.95218   0.20746   0.00000  Uiso   1.00
C275   C     0.47702   0.59394   0.28624   0.00000  Uiso   1.00
C276   C     0.49986   0.83506   0.24994   0.00000  Uiso   1.00
C277   C     0.47770   0.90601   0.20773   0.00000  Uiso   1.00
C278   C     0.49891   0.61673   0.25011   0.00000  Uiso   1.00
C279   C     0.49897   0.88329   0.24967   0.00000  Uiso   1.00
C280   C     0.51952   0.59324   0.21392   0.00000  Uiso   1.00
C281   C     0.51890   0.90685   0.29139   0.00000  Uiso   1.00
C282   C     0.51882   0.54730   0.21416   0.00000  Uiso   1.00
C283   C     0.51816   0.95279   0.29102   0.00000  Uiso   1.00
C284   C     0.49645   0.52428   0.24988   0.00000  Uiso   1.00
C285   C     0.49644   0.97573   0.24935   0.00000  Uiso   1.00
C286   C     0.53947   0.77030   0.05894   0.00000  Uiso   1.00
C287   C     0.47566   0.71619   0.44298   0.00000  Uiso   1.00
C288   C     0.53852   0.77027   0.10956   0.00000  Uiso   1.00
C289   C     0.47582   0.71700   0.39225   0.00000  Uiso   1.00
C290   C     0.46142   0.72979   0.09983   0.00000  Uiso   1.00
C291   C     0.52409   0.78302   0.39831   0.00000  Uiso   1.00
C292   C     0.46045   0.72971   0.04895   0.00000  Uiso   1.00
Cu293  Cu    0.50000   0.75000   0.29821   0.00000  Uiso   1.00
Cu294  Cu    0.50000   0.75001   0.20178   0.00000  Uiso   1.00
H295   H     0.46043   0.61193   0.31402   0.00000  Uiso   1.00
H296   H     0.66345   0.75177   0.15823   0.00000  Uiso   1.00
H297   H     0.36361   0.79925   0.31188   0.00000  Uiso   1.00
H298   H     0.36343   0.74609   0.33530   0.00000  Uiso   1.00
H299   H     0.41285   0.53580   0.31896   0.00000  Uiso   1.00
H300   H     0.46881   0.53378   0.35627   0.00000  Uiso   1.00
H301   H     0.41419   0.96386   0.15779   0.00000  Uiso   1.00
H302   H     0.47065   0.96622   0.13572   0.00000  Uiso   1.00
H303   H     0.53690   0.61040   0.18595   0.00000  Uiso   1.00
H304   H     0.53578   0.88975   0.32398   0.00000  Uiso   1.00
H305   H     0.57149   0.78575   0.04502   0.00000  Uiso   1.00
H306   H     0.46161   0.88799   0.17550   0.00000  Uiso   1.00
H307   H     0.45714   0.68876   0.45864   0.00000  Uiso   1.00
H308   H     0.43095   0.71372   0.11562   0.00000  Uiso   1.00
H309   H     0.54326   0.80911   0.38106   0.00000  Uiso   1.00
H310   H     0.53600   0.52961   0.18656   0.00000  Uiso   1.00
H311   H     0.53483   0.97053   0.32323   0.00000  Uiso   1.00
H312   H     0.56892   0.78646   0.13303   0.00000  Uiso   1.00
H313   H     0.45662   0.69093   0.37018   0.00000  Uiso   1.00
H314   H     0.42841   0.71427   0.02692   0.00000  Uiso   1.00
H315   H     0.54264   0.81129   0.46936   0.00000  Uiso   1.00
H316   H     0.33826   0.69906   0.17860   0.00000  Uiso   1.00
N317   N     0.50000   0.75001   0.12934   0.00000  Uiso   1.00
N318   N     0.50000   0.74999   0.37065   0.00000  Uiso   1.00
N319   N     0.65567   0.72967   0.18538   0.00000  Uiso   1.00
N320   N     0.34188   0.77088   0.31599   0.00000  Uiso   1.00
N321   N     0.45057   0.52484   0.32184   0.00000  Uiso   1.00
N322   N     0.45186   0.97501   0.16515   0.00000  Uiso   1.00
O323   O     0.50000   0.68572   0.29071   0.00000  Uiso   1.00
O324   O     0.50000   0.81428   0.20928   0.00000  Uiso   1.00
O325   O     0.50000   0.68573   0.20928   0.00000  Uiso   1.00
O326   O     0.50000   0.81427   0.29072   0.00000  Uiso   1.00
O327   O     0.42495   0.75000   0.28132   0.00000  Uiso   1.00
O328   O     0.57505   0.75000   0.21868   0.00000  Uiso   1.00
O329   O     0.42495   0.75000   0.19988   0.00000  Uiso   1.00
O330   O     0.57505   0.75000   0.30011   0.00000  Uiso   1.00
C331   C     0.83315   0.66494   0.25003   0.00000  Uiso   1.00
C332   C     0.85750   0.78384   0.44907   0.00000  Uiso   1.00
C333   C     0.83329   0.75000   0.02733   0.00000  Uiso   1.00
C334   C     0.83326   0.75001   0.47264   0.00000  Uiso   1.00
C335   C     0.73478   0.74986   0.23786   0.00000  Uiso   1.00
C336   C     0.93182   0.75037   0.26225   0.00000  Uiso   1.00
C337   C     0.68002   0.74576   0.23166   0.00000  Uiso   1.00
C338   C     0.98631   0.75456   0.26904   0.00000  Uiso   1.00
C339   C     0.80846   0.54776   0.28606   0.00000  Uiso   1.00
C340   C     0.80912   0.95218   0.20746   0.00000  Uiso   1.00
C341   C     0.81035   0.59394   0.28624   0.00000  Uiso   1.00
C342   C     0.83320   0.83506   0.24994   0.00000  Uiso   1.00
C343   C     0.81103   0.90601   0.20773   0.00000  Uiso   1.00
C344   C     0.83224   0.61673   0.25011   0.00000  Uiso   1.00
C345   C     0.83230   0.88329   0.24967   0.00000  Uiso   1.00
C346   C     0.85285   0.59324   0.21392   0.00000  Uiso   1.00
C347   C     0.85224   0.90685   0.29139   0.00000  Uiso   1.00
C348   C     0.85215   0.54730   0.21416   0.00000  Uiso   1.00
C349   C     0.85150   0.95279   0.29102   0.00000  Uiso   1.00
C350   C     0.82978   0.52428   0.24988   0.00000  Uiso   1.00
C351   C     0.82977   0.97573   0.24935   0.00000  Uiso   1.00
C352   C     0.87281   0.77030   0.05894   0.00000  Uiso   1.00
C353   C     0.80899   0.71619   0.44298   0.00000  Uiso   1.00
C354   C     0.87185   0.77027   0.10956   0.00000  Uiso   1.00
C355   C     0.80915   0.71700   0.39225   0.00000  Uiso   1.00
C356   C     0.79476   0.72979   0.09983   0.00000  Uiso   1.00
C357   C     0.85742   0.78302   0.39831   0.00000  Uiso   1.00
C358   C     0.79378   0.72971   0.04895   0.00000  Uiso   1.00
Cu359  Cu    0.83333   0.75000   0.29821   0.00000  Uiso   1.00
Cu360  Cu    0.83333   0.75001   0.20178   0.00000  Uiso   1.00
H361   H     0.79376   0.61193   0.31402   0.00000  Uiso   1.00
H362   H     0.99678   0.75177   0.15823   0.00000  Uiso   1.00
H363   H     0.69695   0.79925   0.31188   0.00000  Uiso   1.00
H364   H     0.69676   0.74609   0.33530   0.00000  Uiso   1.00
H365   H     0.74618   0.53580   0.31896   0.00000  Uiso   1.00
H366   H     0.80214   0.53378   0.35627   0.00000  Uiso   1.00
H367   H     0.74752   0.96386   0.15779   0.00000  Uiso   1.00
H368   H     0.80399   0.96622   0.13572   0.00000  Uiso   1.00
H369   H     0.87023   0.61040   0.18595   0.00000  Uiso   1.00
H370   H     0.86911   0.88975   0.32398   0.00000  Uiso   1.00
H371   H     0.90482   0.78575   0.04502   0.00000  Uiso   1.00
H372   H     0.79495   0.88799   0.17550   0.00000  Uiso   1.00
H373   H     0.79047   0.68876   0.45864   0.00000  Uiso   1.00
H374   H     0.76429   0.71372   0.11562   0.00000  Uiso   1.00
H375   H     0.87660   0.80911   0.38106   0.00000  Uiso   1.00
H376   H     0.86934   0.52961   0.18656   0.00000  Uiso   1.00
H377   H     0.86816   0.97053   0.32323   0.00000  Uiso   1.00
H378   H     0.90226   0.78646   0.13303   0.00000  Uiso   1.00
H379   H     0.78995   0.69093   0.37018   0.00000  Uiso   1.00
H380   H     0.76175   0.71427   0.02692   0.00000  Uiso   1.00
H381   H     0.87597   0.81129   0.46936   0.00000  Uiso   1.00
H382   H     0.67159   0.69906   0.17860   0.00000  Uiso   1.00
N383   N     0.83333   0.75001   0.12934   0.00000  Uiso   1.00
N384   N     0.83333   0.74999   0.37065   0.00000  Uiso   1.00
N385   N     0.98900   0.72967   0.18538   0.00000  Uiso   1.00
N386   N     0.67521   0.77088   0.31599   0.00000  Uiso   1.00
N387   N     0.78390   0.52484   0.32184   0.00000  Uiso   1.00
N388   N     0.78520   0.97501   0.16515   0.00000  Uiso   1.00
O389   O     0.83334   0.68572   0.29071   0.00000  Uiso   1.00
O390   O     0.83333   0.81428   0.20928   0.00000  Uiso   1.00
O391   O     0.83334   0.68573   0.20928   0.00000  Uiso   1.00
O392   O     0.83333   0.81427   0.29072   0.00000  Uiso   1.00
O393   O     0.75828   0.75000   0.28132   0.00000  Uiso   1.00
O394   O     0.90839   0.75000   0.21868   0.00000  Uiso   1.00
O395   O     0.75828   0.75000   0.19988   0.00000  Uiso   1.00
O396   O     0.90839   0.75000   0.30011   0.00000  Uiso   1.00
C397   C     0.16649   0.16494   0.75003   0.00000  Uiso   1.00
C398   C     0.19084   0.28384   0.94907   0.00000  Uiso   1.00
C399   C     0.16662   0.25000   0.52733   0.00000  Uiso   1.00
C400   C     0.16659   0.25001   0.97264   0.00000  Uiso   1.00
C401   C     0.06812   0.24986   0.73786   0.00000  Uiso   1.00
C402   C     0.26515   0.25037   0.76225   0.00000  Uiso   1.00
C403   C     0.01336   0.24576   0.73166   0.00000  Uiso   1.00
C404   C     0.31964   0.25456   0.76904   0.00000  Uiso   1.00
C405   C     0.14180   0.04776   0.78606   0.00000  Uiso   1.00
C406   C     0.14245   0.45218   0.70746   0.00000  Uiso   1.00
C407   C     0.14369   0.09394   0.78624   0.00000  Uiso   1.00
C408   C     0.16653   0.33506   0.74994   0.00000  Uiso   1.00
C409   C     0.14437   0.40601   0.70773   0.00000  Uiso   1.00
C410   C     0.16558   0.11673   0.75011   0.00000  Uiso   1.00
C411   C     0.16563   0.38329   0.74967   0.00000  Uiso   1.00
C412   C     0.18618   0.09324   0.71392   0.00000  Uiso   1.00
C413   C     0.18557   0.40685   0.79139   0.00000  Uiso   1.00
C414   C     0.18549   0.04730   0.71416   0.00000  Uiso   1.00
C415   C     0.18483   0.45279   0.79102   0.00000  Uiso   1.00
C416   C     0.16312   0.02428   0.74988   0.00000  Uiso   1.00
C417   C     0.16310   0.47573   0.74935   0.00000  Uiso   1.00
C418   C     0.20614   0.27030   0.55894   0.00000  Uiso   1.00
C419   C     0.14233   0.21619   0.94298   0.00000  Uiso   1.00
C420   C     0.20519   0.27027   0.60956   0.00000  Uiso   1.00
C421   C     0.14248   0.21700   0.89225   0.00000  Uiso   1.00
C422   C     0.12809   0.22979   0.59983   0.00000  Uiso   1.00
C423   C     0.19075   0.28302   0.89831   0.00000  Uiso   1.00
C424   C     0.12711   0.22971   0.54895   0.00000  Uiso   1.00
Cu425  Cu    0.16667   0.25000   0.79821   0.00000  Uiso   1.00
Cu426  Cu    0.16667   0.25001   0.70178   0.00000  Uiso   1.00
H427   H     0.12709   0.11193   0.81402   0.00000  Uiso   1.00
H428   H     0.33012   0.25177   0.65823   0.00000  Uiso   1.00
H429   H     0.03028   0.29925   0.81188   0.00000  Uiso   1.00
H430   H     0.03009   0.24609   0.83530   0.00000  Uiso   1.00
H431   H     0.07952   0.03580   0.81896   0.00000  Uiso   1.00
H432   H     0.13548   0.03378   0.85627   0.00000  Uiso   1.00
H433   H     0.08086   0.46386   0.65779   0.00000  Uiso   1.00
H434   H     0.13732   0.46622   0.63572   0.00000  Uiso   1.00
H435   H     0.20356   0.11040   0.68595   0.00000  Uiso   1.00
H436   H     0.20245   0.38975   0.82398   0.00000  Uiso   1.00
H437   H     0.23815   0.28575   0.54502   0.00000  Uiso   1.00
H438   H     0.12828   0.38799   0.67550   0.00000  Uiso   1.00
H439   H     0.12381   0.18876   0.95864   0.00000  Uiso   1.00
H440   H     0.09762   0.21372   0.61562   0.00000  Uiso   1.00
H441   H     0.20993   0.30911   0.88106   0.00000  Uiso   1.00
H442   H     0.20267   0.02961   0.68656   0.00000  Uiso   1.00
H443   H     0.20150   0.47053   0.82323   0.00000  Uiso   1.00
H444   H     0.23559   0.28646   0.63303   0.00000  Uiso   1.00
H445   H     0.12329   0.19093   0.87018   0.00000  Uiso   1.00
H446   H     0.09508   0.21427   0.52692   0.00000  Uiso   1.00
H447   H     0.20931   0.31129   0.96936   0.00000  Uiso   1.00
H448   H     0.00492   0.19906   0.67860   0.00000  Uiso   1.00
N449   N     0.16667   0.25001   0.62934   0.00000  Uiso   1.00
N450   N     0.16667   0.24999   0.87065   0.00000  Uiso   1.00
N451   N     0.32234   0.22967   0.68538   0.00000  Uiso   1.00
N452   N     0.00855   0.27088   0.81599   0.00000  Uiso   1.00
N453   N     0.11723   0.02484   0.82184   0.00000  Uiso   1.00
N454   N     0.11853   0.47501   0.66515   0.00000  Uiso   1.00
O455   O     0.16667   0.18572   0.79071   0.00000  Uiso   1.00
O456   O     0.16666   0.31428   0.70928   0.00000  Uiso   1.00
O457   O     0.16667   0.18573   0.70928   0.00000  Uiso   1.00
O458   O     0.16666   0.31427   0.79072   0.00000  Uiso   1.00
O459   O     0.09161   0.25000   0.78132   0.00000  Uiso   1.00
O460   O     0.24172   0.25000   0.71868   0.00000  Uiso   1.00
O461   O     0.09161   0.25000   0.69988   0.00000  Uiso   1.00
O462   O     0.24172   0.25000   0.80011   0.00000  Uiso   1.00
C463   C     0.49982   0.16494   0.75003   0.00000  Uiso   1.00
C464   C     0.52417   0.28384   0.94907   0.00000  Uiso   1.00
C465   C     0.49995   0.25000   0.52733   0.00000  Uiso   1.00
C466   C     0.49992   0.25001   0.97264   0.00000  Uiso   1.00
C467   C     0.40145   0.24986   0.73786   0.00000  Uiso   1.00
C468   C     0.59849   0.25037   0.76225   0.00000  Uiso   1.00
C469   C     0.34669   0.24576   0.73166   0.00000  Uiso   1.00
C470   C     0.65298   0.25456   0.76904   0.00000  Uiso   1.00
C471   C     0.47513   0.04776   0.78606   0.00000  Uiso   1.00
C472   C     0.47578   0.45218   0.70746   0.00000  Uiso   1.00
C473   C     0.47702   0.09394   0.78624   0.00000  Uiso   1.00
C474   C     0.49986   0.33506   0.74994   0.00000  Uiso   1.00
C475   C     0.47770   0.40601   0.70773   0.00000  Uiso   1.00
C476   C     0.49891   0.11673   0.75011   0.00000  Uiso   1.00
C477   C     0.49897   0.38329   0.74967   0.00000  Uiso   1.00
C478   C     0.51952   0.09324   0.71392   0.00000  Uiso   1.00
C479   C     0.51890   0.40685   0.79139   0.00000  Uiso   1.00
C480   C     0.51882   0.04730   0.71416   0.00000  Uiso   1.00
C481   C     0.51816   0.45279   0.79102   0.00000  Uiso   1.00
C482   C     0.49645   0.02428   0.74988   0.00000  Uiso   1.00
C483   C     0.49644   0.47573   0.74935   0.00000  Uiso   1.00
C484   C     0.53947   0.27030   0.55894   0.00000  Uiso   1.00
C485   C     0.47566   0.21619   0.94298   0.00000  Uiso   1.00
C486   C     0.53852   0.27027   0.60956   0.00000  Uiso   1.00
C487   C     0.47582   0.21700   0.89225   0.00000  Uiso   1.00
C488   C     0.46142   0.22979   0.59983   0.00000  Uiso   1.00
C489   C     0.52409   0.28302   0.89831   0.00000  Uiso   1.00
C490   C     0.46045   0.22971   0.54895   0.00000  Uiso   1.00
Cu491  Cu    0.50000   0.25000   0.79821   0.00000  Uiso   1.00
Cu492  Cu    0.50000   0.25001   0.70178   0.00000  Uiso   1.00
H493   H     0.46043   0.11193   0.81402   0.00000  Uiso   1.00
H494   H     0.66345   0.25177   0.65823   0.00000  Uiso   1.00
H495   H     0.36361   0.29925   0.81188   0.00000  Uiso   1.00
H496   H     0.36343   0.24609   0.83530   0.00000  Uiso   1.00
H497   H     0.41285   0.03580   0.81896   0.00000  Uiso   1.00
H498   H     0.46881   0.03378   0.85627   0.00000  Uiso   1.00
H499   H     0.41419   0.46386   0.65779   0.00000  Uiso   1.00
H500   H     0.47065   0.46622   0.63572   0.00000  Uiso   1.00
H501   H     0.53690   0.11040   0.68595   0.00000  Uiso   1.00
H502   H     0.53578   0.38975   0.82398   0.00000  Uiso   1.00
H503   H     0.57149   0.28575   0.54502   0.00000  Uiso   1.00
H504   H     0.46161   0.38799   0.67550   0.00000  Uiso   1.00
H505   H     0.45714   0.18876   0.95864   0.00000  Uiso   1.00
H506   H     0.43095   0.21372   0.61562   0.00000  Uiso   1.00
H507   H     0.54326   0.30911   0.88106   0.00000  Uiso   1.00
H508   H     0.53600   0.02961   0.68656   0.00000  Uiso   1.00
H509   H     0.53483   0.47053   0.82323   0.00000  Uiso   1.00
H510   H     0.56892   0.28646   0.63303   0.00000  Uiso   1.00
H511   H     0.45662   0.19093   0.87018   0.00000  Uiso   1.00
H512   H     0.42841   0.21427   0.52692   0.00000  Uiso   1.00
H513   H     0.54264   0.31129   0.96936   0.00000  Uiso   1.00
H514   H     0.33826   0.19906   0.67860   0.00000  Uiso   1.00
N515   N     0.50000   0.25001   0.62934   0.00000  Uiso   1.00
N516   N     0.50000   0.24999   0.87065   0.00000  Uiso   1.00
N517   N     0.65567   0.22967   0.68538   0.00000  Uiso   1.00
N518   N     0.34188   0.27088   0.81599   0.00000  Uiso   1.00
N519   N     0.45057   0.02484   0.82184   0.00000  Uiso   1.00
N520   N     0.45186   0.47501   0.66515   0.00000  Uiso   1.00
O521   O     0.50000   0.18572   0.79071   0.00000  Uiso   1.00
O522   O     0.50000   0.31428   0.70928   0.00000  Uiso   1.00
O523   O     0.50000   0.18573   0.70928   0.00000  Uiso   1.00
O524   O     0.50000   0.31427   0.79072   0.00000  Uiso   1.00
O525   O     0.42495   0.25000   0.78132   0.00000  Uiso   1.00
O526   O     0.57505   0.25000   0.71868   0.00000  Uiso   1.00
O527   O     0.42495   0.25000   0.69988   0.00000  Uiso   1.00
O528   O     0.57505   0.25000   0.80011   0.00000  Uiso   1.00
C529   C     0.83315   0.16494   0.75003   0.00000  Uiso   1.00
C530   C     0.85750   0.28384   0.94907   0.00000  Uiso   1.00
C531   C     0.83329   0.25000   0.52733   0.00000  Uiso   1.00
C532   C     0.83326   0.25001   0.97264   0.00000  Uiso   1.00
C533   C     0.73478   0.24986   0.73786   0.00000  Uiso   1.00
C534   C     0.93182   0.25037   0.76225   0.00000  Uiso   1.00
C535   C     0.68002   0.24576   0.73166   0.00000  Uiso   1.00
C536   C     0.98631   0.25456   0.76904   0.00000  Uiso   1.00
C537   C     0.80846   0.04776   0.78606   0.00000  Uiso   1.00
C538   C     0.80912   0.45218   0.70746   0.00000  Uiso   1.00
C539   C     0.81035   0.09394   0.78624   0.00000  Uiso   1.00
C540   C     0.83320   0.33506   0.74994   0.00000  Uiso   1.00
C541   C     0.81103   0.40601   0.70773   0.00000  Uiso   1.00
C542   C     0.83224   0.11673   0.75011   0.00000  Uiso   1.00
C543   C     0.83230   0.38329   0.74967   0.00000  Uiso   1.00
C544   C     0.85285   0.09324   0.71392   0.00000  Uiso   1.00
C545   C     0.85224   0.40685   0.79139   0.00000  Uiso   1.00
C546   C     0.85215   0.04730   0.71416   0.00000  Uiso   1.00
C547   C     0.85150   0.45279   0.79102   0.00000  Uiso   1.00
C548   C     0.82978   0.02428   0.74988   0.00000  Uiso   1.00
C549   C     0.82977   0.47573   0.74935   0.00000  Uiso   1.00
C550   C     0.87281   0.27030   0.55894   0.00000  Uiso   1.00
C551   C     0.80899   0.21619   0.94298   0.00000  Uiso   1.00
C552   C     0.87185   0.27027   0.60956   0.00000  Uiso   1.00
C553   C     0.80915   0.21700   0.89225   0.00000  Uiso   1.00
C554   C     0.79476   0.22979   0.59983   0.00000  Uiso   1.00
C555   C     0.85742   0.28302   0.89831   0.00000  Uiso   1.00
C556   C     0.79378   0.22971   0.54895   0.00000  Uiso   1.00
Cu557  Cu    0.83333   0.25000   0.79821   0.00000  Uiso   1.00
Cu558  Cu    0.83333   0.25001   0.70178   0.00000  Uiso   1.00
H559   H     0.79376   0.11193   0.81402   0.00000  Uiso   1.00
H560   H     0.99678   0.25177   0.65823   0.00000  Uiso   1.00
H561   H     0.69695   0.29925   0.81188   0.00000  Uiso   1.00
H562   H     0.69676   0.24609   0.83530   0.00000  Uiso   1.00
H563   H     0.74618   0.03580   0.81896   0.00000  Uiso   1.00
H564   H     0.80214   0.03378   0.85627   0.00000  Uiso   1.00
H565   H     0.74752   0.46386   0.65779   0.00000  Uiso   1.00
H566   H     0.80399   0.46622   0.63572   0.00000  Uiso   1.00
H567   H     0.87023   0.11040   0.68595   0.00000  Uiso   1.00
H568   H     0.86911   0.38975   0.82398   0.00000  Uiso   1.00
H569   H     0.90482   0.28575   0.54502   0.00000  Uiso   1.00
H570   H     0.79495   0.38799   0.67550   0.00000  Uiso   1.00
H571   H     0.79047   0.18876   0.95864   0.00000  Uiso   1.00
H572   H     0.76429   0.21372   0.61562   0.00000  Uiso   1.00
H573   H     0.87660   0.30911   0.88106   0.00000  Uiso   1.00
H574   H     0.86934   0.02961   0.68656   0.00000  Uiso   1.00
H575   H     0.86816   0.47053   0.82323   0.00000  Uiso   1.00
H576   H     0.90226   0.28646   0.63303   0.00000  Uiso   1.00
H577   H     0.78995   0.19093   0.87018   0.00000  Uiso   1.00
H578   H     0.76175   0.21427   0.52692   0.00000  Uiso   1.00
H579   H     0.87597   0.31129   0.96936   0.00000  Uiso   1.00
H580   H     0.67159   0.19906   0.67860   0.00000  Uiso   1.00
N581   N     0.83333   0.25001   0.62934   0.00000  Uiso   1.00
N582   N     0.83333   0.24999   0.87065   0.00000  Uiso   1.00
N583   N     0.98900   0.22967   0.68538   0.00000  Uiso   1.00
N584   N     0.67521   0.27088   0.81599   0.00000  Uiso   1.00
N585   N     0.78390   0.02484   0.82184   0.00000  Uiso   1.00
N586   N     0.78520   0.47501   0.66515   0.00000  Uiso   1.00
O587   O     0.83334   0.18572   0.79071   0.00000  Uiso   1.00
O588   O     0.83333   0.31428   0.70928   0.00000  Uiso   1.00
O589   O     0.83334   0.18573   0.70928   0.00000  Uiso   1.00
O590   O     0.83333   0.31427   0.79072   0.00000  Uiso   1.00
O591   O     0.75828   0.25000   0.78132   0.00000  Uiso   1.00
O592   O     0.90839   0.25000   0.71868   0.00000  Uiso   1.00
O593   O     0.75828   0.25000   0.69988   0.00000  Uiso   1.00
O594   O     0.90839   0.25000   0.80011   0.00000  Uiso   1.00
C595   C     0.16649   0.66494   0.75003   0.00000  Uiso   1.00
C596   C     0.19084   0.78384   0.94907   0.00000  Uiso   1.00
C597   C     0.16662   0.75000   0.52733   0.00000  Uiso   1.00
C598   C     0.16659   0.75001   0.97264   0.00000  Uiso   1.00
C599   C     0.06812   0.74986   0.73786   0.00000  Uiso   1.00
C600   C     0.26515   0.75037   0.76225   0.00000  Uiso   1.00
C601   C     0.01336   0.74576   0.73166   0.00000  Uiso   1.00
C602   C     0.31964   0.75456   0.76904   0.00000  Uiso   1.00
C603   C     0.14180   0.54776   0.78606   0.00000  Uiso   1.00
C604   C     0.14245   0.95218   0.70746   0.00000  Uiso   1.00
C605   C     0.14369   0.59394   0.78624   0.00000  Uiso   1.00
C606   C     0.16653   0.83506   0.74994   0.00000  Uiso   1.00
C607   C     0.14437   0.90601   0.70773   0.00000  Uiso   1.00
C608   C     0.16558   0.61673   0.75011   0.00000  Uiso   1.00
C609   C     0.16563   0.88329   0.74967   0.00000  Uiso   1.00
C610   C     0.18618   0.59324   0.71392   0.00000  Uiso   1.00
C611   C     0.18557   0.90685   0.79139   0.00000  Uiso   1.00
C612   C     0.18549   0.54730   0.71416   0.00000  Uiso   1.00
C613   C     0.18483   0.95279   0.79102   0.00000  Uiso   1.00
C614   C     0.16312   0.52428   0.74988   0.00000  Uiso   1.00
C615   C     0.16310   0.97573   0.74935   0.00000  Uiso   1.00
C616   C     0.20614   0.77030   0.55894   0.00000  Uiso   1.00
C617   C     0.14233   0.71619   0.94298   0.00000  Uiso   1.00
C618   C     0.20519   0.77027   0.60956   0.00000  Uiso   1.00
C619   C     0.14248   0.71700   0.89225   0.00000  Uiso   1.00
C620   C     0.12809   0.72979   0.59983   0.00000  Uiso   1.00
C621   C     0.19075   0.78302   0.89831   0.00000  Uiso   1.00
C622   C     0.12711   0.72971   0.54895   0.00000  Uiso   1.00
Cu623  Cu    0.16667   0.75000   0.79821   0.00000  Uiso   1.00
Cu624  Cu    0.16667   0.75001   0.70178   0.00000  Uiso   1.00
H625   H     0.12709   0.61193   0.81402   0.00000  Uiso   1.00
H626   H     0.33012   0.75177   0.65823   0.00000  Uiso   1.00
H627   H     0.03028   0.79925   0.81188   0.00000  Uiso   1.00
H628   H     0.03009   0.74609   0.83530   0.00000  Uiso   1.00
H629   H     0.07952   0.53580   0.81896   0.00000  Uiso   1.00
H630   H     0.13548   0.53378   0.85627   0.00000  Uiso   1.00
H631   H     0.08086   0.96386   0.65779   0.00000  Uiso   1.00
H632   H     0.13732   0.96622   0.63572   0.00000  Uiso   1.00
H633   H     0.20356   0.61040   0.68595   0.00000  Uiso   1.00
H634   H     0.20245   0.88975   0.82398   0.00000  Uiso   1.00
H635   H     0.23815   0.78575   0.54502   0.00000  Uiso   1.00
H636   H     0.12828   0.88799   0.67550   0.00000  Uiso   1.00
H637   H     0.12381   0.68876   0.95864   0.00000  Uiso   1.00
H638   H     0.09762   0.71372   0.61562   0.00000  Uiso   1.00
H639   H     0.20993   0.80911   0.88106   0.00000  Uiso   1.00
H640   H     0.20267   0.52961   0.68656   0.00000  Uiso   1.00
H641   H     0.20150   0.97053   0.82323   0.00000  Uiso   1.00
H642   H     0.23559   0.78646   0.63303   0.00000  Uiso   1.00
H643   H     0.12329   0.69093   0.87018   0.00000  Uiso   1.00
H644   H     0.09508   0.71427   0.52692   0.00000  Uiso   1.00
H645   H     0.20931   0.81129   0.96936   0.00000  Uiso   1.00
H646   H     0.00492   0.69906   0.67860   0.00000  Uiso   1.00
N647   N     0.16667   0.75001   0.62934   0.00000  Uiso   1.00
N648   N     0.16667   0.74999   0.87065   0.00000  Uiso   1.00
N649   N     0.32234   0.72967   0.68538   0.00000  Uiso   1.00
N650   N     0.00855   0.77088   0.81599   0.00000  Uiso   1.00
N651   N     0.11723   0.52484   0.82184   0.00000  Uiso   1.00
N652   N     0.11853   0.97501   0.66515   0.00000  Uiso   1.00
O653   O     0.16667   0.68572   0.79071   0.00000  Uiso   1.00
O654   O     0.16666   0.81428   0.70928   0.00000  Uiso   1.00
O655   O     0.16667   0.68573   0.70928   0.00000  Uiso   1.00
O656   O     0.16666   0.81427   0.79072   0.00000  Uiso   1.00
O657   O     0.09161   0.75000   0.78132   0.00000  Uiso   1.00
O658   O     0.24172   0.75000   0.71868   0.00000  Uiso   1.00
O659   O     0.09161   0.75000   0.69988   0.00000  Uiso   1.00
O660   O     0.24172   0.75000   0.80011   0.00000  Uiso   1.00
C661   C     0.49982   0.66494   0.75003   0.00000  Uiso   1.00
C662   C     0.52417   0.78384   0.94907   0.00000  Uiso   1.00
C663   C     0.49995   0.75000   0.52733   0.00000  Uiso   1.00
C664   C     0.49992   0.75001   0.97264   0.00000  Uiso   1.00
C665   C     0.40145   0.74986   0.73786   0.00000  Uiso   1.00
C666   C     0.59849   0.75037   0.76225   0.00000  Uiso   1.00
C667   C     0.34669   0.74576   0.73166   0.00000  Uiso   1.00
C668   C     0.65298   0.75456   0.76904   0.00000  Uiso   1.00
C669   C     0.47513   0.54776   0.78606   0.00000  Uiso   1.00
C670   C     0.47578   0.95218   0.70746   0.00000  Uiso   1.00
C671   C     0.47702   0.59394   0.78624   0.00000  Uiso   1.00
C672   C     0.49986   0.83506   0.74994   0.00000  Uiso   1.00
C673   C     0.47770   0.90601   0.70773   0.00000  Uiso   1.00
C674   C     0.49891   0.61673   0.75011   0.00000  Uiso   1.00
C675   C     0.49897   0.88329   0.74967   0.00000  Uiso   1.00
C676   C     0.51952   0.59324   0.71392   0.00000  Uiso   1.00
C677   C     0.51890   0.90685   0.79139   0.00000  Uiso   1.00
C678   C     0.51882   0.54730   0.71416   0.00000  Uiso   1.00
C679   C     0.51816   0.95279   0.79102   0.00000  Uiso   1.00
C680   C     0.49645   0.52428   0.74988   0.00000  Uiso   1.00
C681   C     0.49644   0.97573   0.74935   0.00000  Uiso   1.00
C682   C     0.53947   0.77030   0.55894   0.00000  Uiso   1.00
C683   C     0.47566   0.71619   0.94298   0.00000  Uiso   1.00
C684   C     0.53852   0.77027   0.60956   0.00000  Uiso   1.00
C685   C     0.47582   0.71700   0.89225   0.00000  Uiso   1.00
C686   C     0.46142   0.72979   0.59983   0.00000  Uiso   1.00
C687   C     0.52409   0.78302   0.89831   0.00000  Uiso   1.00
C688   C     0.46045   0.72971   0.54895   0.00000  Uiso   1.00
Cu689  Cu    0.50000   0.75000   0.79821   0.00000  Uiso   1.00
Cu690  Cu    0.50000   0.75001   0.70178   0.00000  Uiso   1.00
H691   H     0.46043   0.61193   0.81402   0.00000  Uiso   1.00
H692   H     0.66345   0.75177   0.65823   0.00000  Uiso   1.00
H693   H     0.36361   0.79925   0.81188   0.00000  Uiso   1.00
H694   H     0.36343   0.74609   0.83530   0.00000  Uiso   1.00
H695   H     0.41285   0.53580   0.81896   0.00000  Uiso   1.00
H696   H     0.46881   0.53378   0.85627   0.00000  Uiso   1.00
H697   H     0.41419   0.96386   0.65779   0.00000  Uiso   1.00
H698   H     0.47065   0.96622   0.63572   0.00000  Uiso   1.00
H699   H     0.53690   0.61040   0.68595   0.00000  Uiso   1.00
H700   H     0.53578   0.88975   0.82398   0.00000  Uiso   1.00
H701   H     0.57149   0.78575   0.54502   0.00000  Uiso   1.00
H702   H     0.46161   0.88799   0.67550   0.00000  Uiso   1.00
H703   H     0.45714   0.68876   0.95864   0.00000  Uiso   1.00
H704   H     0.43095   0.71372   0.61562   0.00000  Uiso   1.00
H705   H     0.54326   0.80911   0.88106   0.00000  Uiso   1.00
H706   H     0.53600   0.52961   0.68656   0.00000  Uiso   1.00
H707   H     0.53483   0.97053   0.82323   0.00000  Uiso   1.00
H708   H     0.56892   0.78646   0.63303   0.00000  Uiso   1.00
H709   H     0.45662   0.69093   0.87018   0.00000  Uiso   1.00
H710   H     0.42841   0.71427   0.52692   0.00000  Uiso   1.00
H711   H     0.54264   0.81129   0.96936   0.00000  Uiso   1.00
H712   H     0.33826   0.69906   0.67860   0.00000  Uiso   1.00
N713   N     0.50000   0.75001   0.62934   0.00000  Uiso   1.00
N714   N     0.50000   0.74999   0.87065   0.00000  Uiso   1.00
N715   N     0.65567   0.72967   0.68538   0.00000  Uiso   1.00
N716   N     0.34188   0.77088   0.81599   0.00000  Uiso   1.00
N717   N     0.45057   0.52484   0.82184   0.00000  Uiso   1.00
N718   N     0.45186   0.97501   0.66515   0.00000  Uiso   1.00
O719   O     0.50000   0.68572   0.79071   0.00000  Uiso   1.00
O720   O     0.50000   0.81428   0.70928   0.00000  Uiso   1.00
O721   O     0.50000   0.68573   0.70928   0.00000  Uiso   1.00
O722   O     0.50000   0.81427   0.79072   0.00000  Uiso   1.00
O723   O     0.42495   0.75000   0.78132   0.00000  Uiso   1.00
O724   O     0.57505   0.75000   0.71868   0.00000  Uiso   1.00
O725   O     0.42495   0.75000   0.69988   0.00000  Uiso   1.00
O726   O     0.57505   0.75000   0.80011   0.00000  Uiso   1.00
C727   C     0.83315   0.66494   0.75003   0.00000  Uiso   1.00
C728   C     0.85750   0.78384   0.94907   0.00000  Uiso   1.00
C729   C     0.83329   0.75000   0.52733   0.00000  Uiso   1.00
C730   C     0.83326   0.75001   0.97264   0.00000  Uiso   1.00
C731   C     0.73478   0.74986   0.73786   0.00000  Uiso   1.00
C732   C     0.93182   0.75037   0.76225   0.00000  Uiso   1.00
C733   C     0.68002   0.74576   0.73166   0.00000  Uiso   1.00
C734   C     0.98631   0.75456   0.76904   0.00000  Uiso   1.00
C735   C     0.80846   0.54776   0.78606   0.00000  Uiso   1.00
C736   C     0.80912   0.95218   0.70746   0.00000  Uiso   1.00
C737   C     0.81035   0.59394   0.78624   0.00000  Uiso   1.00
C738   C     0.83320   0.83506   0.74994   0.00000  Uiso   1.00
C739   C     0.81103   0.90601   0.70773   0.00000  Uiso   1.00
C740   C     0.83224   0.61673   0.75011   0.00000  Uiso   1.00
C741   C     0.83230   0.88329   0.74967   0.00000  Uiso   1.00
C742   C     0.85285   0.59324   0.71392   0.00000  Uiso   1.00
C743   C     0.85224   0.90685   0.79139   0.00000  Uiso   1.00
C744   C     0.85215   0.54730   0.71416   0.00000  Uiso   1.00
C745   C     0.85150   0.95279   0.79102   0.00000  Uiso   1.00
C746   C     0.82978   0.52428   0.74988   0.00000  Uiso   1.00
C747   C     0.82977   0.97573   0.74935   0.00000  Uiso   1.00
C748   C     0.87281   0.77030   0.55894   0.00000  Uiso   1.00
C749   C     0.80899   0.71619   0.94298   0.00000  Uiso   1.00
C750   C     0.87185   0.77027   0.60956   0.00000  Uiso   1.00
C751   C     0.80915   0.71700   0.89225   0.00000  Uiso   1.00
C752   C     0.79476   0.72979   0.59983   0.00000  Uiso   1.00
C753   C     0.85742   0.78302   0.89831   0.00000  Uiso   1.00
C754   C     0.79378   0.72971   0.54895   0.00000  Uiso   1.00
Cu755  Cu    0.83333   0.75000   0.79821   0.00000  Uiso   1.00
Cu756  Cu    0.83333   0.75001   0.70178   0.00000  Uiso   1.00
H757   H     0.79376   0.61193   0.81402   0.00000  Uiso   1.00
H758   H     0.99678   0.75177   0.65823   0.00000  Uiso   1.00
H759   H     0.69695   0.79925   0.81188   0.00000  Uiso   1.00
H760   H     0.69676   0.74609   0.83530   0.00000  Uiso   1.00
H761   H     0.74618   0.53580   0.81896   0.00000  Uiso   1.00
H762   H     0.80214   0.53378   0.85627   0.00000  Uiso   1.00
H763   H     0.74752   0.96386   0.65779   0.00000  Uiso   1.00
H764   H     0.80399   0.96622   0.63572   0.00000  Uiso   1.00
H765   H     0.87023   0.61040   0.68595   0.00000  Uiso   1.00
H766   H     0.86911   0.88975   0.82398   0.00000  Uiso   1.00
H767   H     0.90482   0.78575   0.54502   0.00000  Uiso   1.00
H768   H     0.79495   0.88799   0.67550   0.00000  Uiso   1.00
H769   H     0.79047   0.68876   0.95864   0.00000  Uiso   1.00
H770   H     0.76429   0.71372   0.61562   0.00000  Uiso   1.00
H771   H     0.87660   0.80911   0.88106   0.00000  Uiso   1.00
H772   H     0.86934   0.52961   0.68656   0.00000  Uiso   1.00
H773   H     0.86816   0.97053   0.82323   0.00000  Uiso   1.00
H774   H     0.90226   0.78646   0.63303   0.00000  Uiso   1.00
H775   H     0.78995   0.69093   0.87018   0.00000  Uiso   1.00
H776   H     0.76175   0.71427   0.52692   0.00000  Uiso   1.00
H777   H     0.87597   0.81129   0.96936   0.00000  Uiso   1.00
H778   H     0.67159   0.69906   0.67860   0.00000  Uiso   1.00
N779   N     0.83333   0.75001   0.62934   0.00000  Uiso   1.00
N780   N     0.83333   0.74999   0.87065   0.00000  Uiso   1.00
N781   N     0.98900   0.72967   0.68538   0.00000  Uiso   1.00
N782   N     0.67521   0.77088   0.81599   0.00000  Uiso   1.00
N783   N     0.78390   0.52484   0.82184   0.00000  Uiso   1.00
N784   N     0.78520   0.97501   0.66515   0.00000  Uiso   1.00
O785   O     0.83334   0.68572   0.79071   0.00000  Uiso   1.00
O786   O     0.83333   0.81428   0.70928   0.00000  Uiso   1.00
O787   O     0.83334   0.68573   0.70928   0.00000  Uiso   1.00
O788   O     0.83333   0.81427   0.79072   0.00000  Uiso   1.00
O789   O     0.75828   0.75000   0.78132   0.00000  Uiso   1.00
O790   O     0.90839   0.75000   0.71868   0.00000  Uiso   1.00
O791   O     0.75828   0.75000   0.69988   0.00000  Uiso   1.00
O792   O     0.90839   0.75000   0.80011   0.00000  Uiso   1.00
loop_
_geom_bond_atom_site_label_1
_geom_bond_atom_site_label_2
_geom_bond_distance
_geom_bond_site_symmetry_2
_ccdc_geom_bond_type
C1     O59     1.291   .     A
C1     C14     1.458   .     S
C1     O61     1.292   .     A
C2     C4      1.411   .     A
C2     C27     1.406   .     A
C2     H51     1.081   .     S
C3     C28     1.411   .     A
C3     C22     1.411   .     A
C3     C400    1.515   1_554 S
C4     C23     1.411   .     A
C4     C399    1.515   .     S
C5     O65     1.292   .     A
C5     O63     1.279   .     A
C5     C7      1.441   .     S
C6     O66     1.288   .     A
C6     O64     1.281   .     A
C6     C8      1.434   .     S
C7     C140    1.363   1_455 S
C7     N187    1.440   1_455 S
C8     C73     1.363   .     S
C8     N122    1.441   .     S
C9     C20     1.409   .     A
C9     C11     1.397   .     A
C9     N57     1.433   .     S
C10    C13     1.397   .     A
C10    C21     1.409   .     A
C10    N58     1.433   .     S
C11    H31     1.084   .     S
C11    C14     1.401   .     A
C12    O62     1.292   .     A
C12    C15     1.458   .     S
C12    O60     1.291   .     A
C13    C15     1.401   .     A
C13    H42     1.084   .     S
C14    C16     1.400   .     A
C15    C17     1.400   .     A
C16    H39     1.083   .     S
C16    C18     1.389   .     A
C17    C19     1.389   .     A
C17    H40     1.083   .     S
C18    H46     1.083   .     S
C18    C20     1.402   .     A
C19    H47     1.083   .     S
C19    C21     1.402   .     A
C20    C219    1.468   1_545 S
C21    C218    1.468   .     S
C22    C24     1.406   .     A
C22    H41     1.081   .     S
C23    C25     1.406   .     A
C23    H43     1.081   .     S
C24    H48     1.081   .     S
C24    N53     1.364   .     A
C25    N54     1.364   .     A
C25    H49     1.081   .     S
C26    C28     1.406   .     A
C26    H44     1.081   .     S
C26    N53     1.364   .     A
C27    N54     1.364   .     A
C27    H45     1.081   .     S
C28    H50     1.081   .     S
Cu29   O63     1.979   .     S
Cu29   Cu30    2.672   .     S
Cu29   N54     2.007   .     S
Cu29   O66     1.980   .     S
Cu29   O62     1.954   .     S
Cu29   O59     1.955   .     S
Cu30   O64     1.979   .     S
Cu30   N53     2.007   .     S
Cu30   O61     1.954   .     S
Cu30   O65     1.980   .     S
Cu30   O60     1.955   .     S
H32    N55     1.046   .     S
H33    N56     1.046   .     S
H34    N56     1.045   .     S
H35    N57     1.046   .     S
H36    N57     1.046   .     S
H37    N58     1.046   .     S
H38    N58     1.046   .     S
H52    N187    1.046   1_455 S
N55    C73     1.440   .     S
N55    H118    1.046   .     S
N56    C140    1.441   1_455 S
C67    O125    1.291   .     A
C67    C80     1.458   .     S
C67    O127    1.292   .     A
C68    C70     1.411   .     A
C68    C93     1.406   .     A
C68    H117    1.081   .     S
C69    C94     1.411   .     A
C69    C88     1.411   .     A
C69    C466    1.515   1_554 S
C70    C89     1.411   .     A
C70    C465    1.515   .     S
C71    O131    1.292   .     A
C71    O129    1.279   .     A
C71    C73     1.441   .     S
C72    O132    1.288   .     A
C72    O130    1.281   .     A
C72    C74     1.434   .     S
C74    C139    1.363   .     S
C74    N188    1.441   .     S
C75    C86     1.409   .     A
C75    C77     1.397   .     A
C75    N123    1.433   .     S
C76    C79     1.397   .     A
C76    C87     1.409   .     A
C76    N124    1.433   .     S
C77    H97     1.084   .     S
C77    C80     1.401   .     A
C78    O128    1.292   .     A
C78    C81     1.458   .     S
C78    O126    1.291   .     A
C79    C81     1.401   .     A
C79    H108    1.084   .     S
C80    C82     1.400   .     A
C81    C83     1.400   .     A
C82    H105    1.083   .     S
C82    C84     1.389   .     A
C83    C85     1.389   .     A
C83    H106    1.083   .     S
C84    H112    1.083   .     S
C84    C86     1.402   .     A
C85    H113    1.083   .     S
C85    C87     1.402   .     A
C86    C285    1.468   1_545 S
C87    C284    1.468   .     S
C88    C90     1.406   .     A
C88    H107    1.081   .     S
C89    C91     1.406   .     A
C89    H109    1.081   .     S
C90    H114    1.081   .     S
C90    N119    1.364   .     A
C91    N120    1.364   .     A
C91    H115    1.081   .     S
C92    C94     1.406   .     A
C92    H110    1.081   .     S
C92    N119    1.364   .     A
C93    N120    1.364   .     A
C93    H111    1.081   .     S
C94    H116    1.081   .     S
Cu95   O129    1.979   .     S
Cu95   Cu96    2.672   .     S
Cu95   N120    2.007   .     S
Cu95   O132    1.980   .     S
Cu95   O128    1.954   .     S
Cu95   O125    1.955   .     S
Cu96   O130    1.979   .     S
Cu96   N119    2.007   .     S
Cu96   O127    1.954   .     S
Cu96   O131    1.980   .     S
Cu96   O126    1.955   .     S
H98    N121    1.046   .     S
H99    N122    1.046   .     S
H100   N122    1.045   .     S
H101   N123    1.046   .     S
H102   N123    1.046   .     S
H103   N124    1.046   .     S
H104   N124    1.046   .     S
N121   C139    1.440   .     S
N121   H184    1.046   .     S
C133   O191    1.291   .     A
C133   C146    1.458   .     S
C133   O193    1.292   .     A
C134   C136    1.411   .     A
C134   C159    1.406   .     A
C134   H183    1.081   .     S
C135   C160    1.411   .     A
C135   C154    1.411   .     A
C135   C532    1.515   1_554 S
C136   C155    1.411   .     A
C136   C531    1.515   .     S
C137   O197    1.292   .     A
C137   O195    1.279   .     A
C137   C139    1.441   .     S
C138   O198    1.288   .     A
C138   O196    1.281   .     A
C138   C140    1.434   .     S
C140   C7      1.363   1_655 S
C140   N56     1.441   1_655 S
C141   C152    1.409   .     A
C141   C143    1.397   .     A
C141   N189    1.433   .     S
C142   C145    1.397   .     A
C142   C153    1.409   .     A
C142   N190    1.433   .     S
C143   H163    1.084   .     S
C143   C146    1.401   .     A
C144   O194    1.292   .     A
C144   C147    1.458   .     S
C144   O192    1.291   .     A
C145   C147    1.401   .     A
C145   H174    1.084   .     S
C146   C148    1.400   .     A
C147   C149    1.400   .     A
C148   H171    1.083   .     S
C148   C150    1.389   .     A
C149   C151    1.389   .     A
C149   H172    1.083   .     S
C150   H178    1.083   .     S
C150   C152    1.402   .     A
C151   H179    1.083   .     S
C151   C153    1.402   .     A
C152   C351    1.468   1_545 S
C153   C350    1.468   .     S
C154   C156    1.406   .     A
C154   H173    1.081   .     S
C155   C157    1.406   .     A
C155   H175    1.081   .     S
C156   H180    1.081   .     S
C156   N185    1.364   .     A
C157   N186    1.364   .     A
C157   H181    1.081   .     S
C158   C160    1.406   .     A
C158   H176    1.081   .     S
C158   N185    1.364   .     A
C159   N186    1.364   .     A
C159   H177    1.081   .     S
C160   H182    1.081   .     S
Cu161  O195    1.979   .     S
Cu161  Cu162   2.672   .     S
Cu161  N186    2.007   .     S
Cu161  O198    1.980   .     S
Cu161  O194    1.954   .     S
Cu161  O191    1.955   .     S
Cu162  O196    1.979   .     S
Cu162  N185    2.007   .     S
Cu162  O193    1.954   .     S
Cu162  O197    1.980   .     S
Cu162  O192    1.955   .     S
H164   N187    1.046   .     S
H165   N188    1.046   .     S
H166   N188    1.045   .     S
H167   N189    1.046   .     S
H168   N189    1.046   .     S
H169   N190    1.046   .     S
H170   N190    1.046   .     S
N187   C7      1.440   1_655 S
N187   H52     1.046   1_655 S
C199   O257    1.291   .     A
C199   C212    1.458   .     S
C199   O259    1.292   .     A
C200   C202    1.411   .     A
C200   C225    1.406   .     A
C200   H249    1.081   .     S
C201   C226    1.411   .     A
C201   C220    1.411   .     A
C201   C598    1.515   1_554 S
C202   C221    1.411   .     A
C202   C597    1.515   .     S
C203   O263    1.292   .     A
C203   O261    1.279   .     A
C203   C205    1.441   .     S
C204   O264    1.288   .     A
C204   O262    1.281   .     A
C204   C206    1.434   .     S
C205   C338    1.363   1_455 S
C205   N385    1.440   1_455 S
C206   C271    1.363   .     S
C206   N320    1.441   .     S
C207   C218    1.409   .     A
C207   C209    1.397   .     A
C207   N255    1.433   .     S
C208   C211    1.397   .     A
C208   C219    1.409   .     A
C208   N256    1.433   .     S
C209   H229    1.084   .     S
C209   C212    1.401   .     A
C210   O260    1.292   .     A
C210   C213    1.458   .     S
C210   O258    1.291   .     A
C211   C213    1.401   .     A
C211   H240    1.084   .     S
C212   C214    1.400   .     A
C213   C215    1.400   .     A
C214   H237    1.083   .     S
C214   C216    1.389   .     A
C215   C217    1.389   .     A
C215   H238    1.083   .     S
C216   H244    1.083   .     S
C216   C218    1.402   .     A
C217   H245    1.083   .     S
C217   C219    1.402   .     A
C219   C20     1.468   1_565 S
C220   C222    1.406   .     A
C220   H239    1.081   .     S
C221   C223    1.406   .     A
C221   H241    1.081   .     S
C222   H246    1.081   .     S
C222   N251    1.364   .     A
C223   N252    1.364   .     A
C223   H247    1.081   .     S
C224   C226    1.406   .     A
C224   H242    1.081   .     S
C224   N251    1.364   .     A
C225   N252    1.364   .     A
C225   H243    1.081   .     S
C226   H248    1.081   .     S
Cu227  O261    1.979   .     S
Cu227  Cu228   2.672   .     S
Cu227  N252    2.007   .     S
Cu227  O264    1.980   .     S
Cu227  O260    1.954   .     S
Cu227  O257    1.955   .     S
Cu228  O262    1.979   .     S
Cu228  N251    2.007   .     S
Cu228  O259    1.954   .     S
Cu228  O263    1.980   .     S
Cu228  O258    1.955   .     S
H230   N253    1.046   .     S
H231   N254    1.046   .     S
H232   N254    1.045   .     S
H233   N255    1.046   .     S
H234   N255    1.046   .     S
H235   N256    1.046   .     S
H236   N256    1.046   .     S
H250   N385    1.046   1_455 S
N253   C271    1.440   .     S
N253   H316    1.046   .     S
N254   C338    1.441   1_455 S
C265   O323    1.291   .     A
C265   C278    1.458   .     S
C265   O325    1.292   .     A
C266   C268    1.411   .     A
C266   C291    1.406   .     A
C266   H315    1.081   .     S
C267   C292    1.411   .     A
C267   C286    1.411   .     A
C267   C664    1.515   1_554 S
C268   C287    1.411   .     A
C268   C663    1.515   .     S
C269   O329    1.292   .     A
C269   O327    1.279   .     A
C269   C271    1.441   .     S
C270   O330    1.288   .     A
C270   O328    1.281   .     A
C270   C272    1.434   .     S
C272   C337    1.363   .     S
C272   N386    1.441   .     S
C273   C284    1.409   .     A
C273   C275    1.397   .     A
C273   N321    1.433   .     S
C274   C277    1.397   .     A
C274   C285    1.409   .     A
C274   N322    1.433   .     S
C275   H295    1.084   .     S
C275   C278    1.401   .     A
C276   O326    1.292   .     A
C276   C279    1.458   .     S
C276   O324    1.291   .     A
C277   C279    1.401   .     A
C277   H306    1.084   .     S
C278   C280    1.400   .     A
C279   C281    1.400   .     A
C280   H303    1.083   .     S
C280   C282    1.389   .     A
C281   C283    1.389   .     A
C281   H304    1.083   .     S
C282   H310    1.083   .     S
C282   C284    1.402   .     A
C283   H311    1.083   .     S
C283   C285    1.402   .     A
C285   C86     1.468   1_565 S
C286   C288    1.406   .     A
C286   H305    1.081   .     S
C287   C289    1.406   .     A
C287   H307    1.081   .     S
C288   H312    1.081   .     S
C288   N317    1.364   .     A
C289   N318    1.364   .     A
C289   H313    1.081   .     S
C290   C292    1.406   .     A
C290   H308    1.081   .     S
C290   N317    1.364   .     A
C291   N318    1.364   .     A
C291   H309    1.081   .     S
C292   H314    1.081   .     S
Cu293  O327    1.979   .     S
Cu293  Cu294   2.672   .     S
Cu293  N318    2.007   .     S
Cu293  O330    1.980   .     S
Cu293  O326    1.954   .     S
Cu293  O323    1.955   .     S
Cu294  O328    1.979   .     S
Cu294  N317    2.007   .     S
Cu294  O325    1.954   .     S
Cu294  O329    1.980   .     S
Cu294  O324    1.955   .     S
H296   N319    1.046   .     S
H297   N320    1.046   .     S
H298   N320    1.045   .     S
H299   N321    1.046   .     S
H300   N321    1.046   .     S
H301   N322    1.046   .     S
H302   N322    1.046   .     S
N319   C337    1.440   .     S
N319   H382    1.046   .     S
C331   O389    1.291   .     A
C331   C344    1.458   .     S
C331   O391    1.292   .     A
C332   C334    1.411   .     A
C332   C357    1.406   .     A
C332   H381    1.081   .     S
C333   C358    1.411   .     A
C333   C352    1.411   .     A
C333   C730    1.515   1_554 S
C334   C353    1.411   .     A
C334   C729    1.515   .     S
C335   O395    1.292   .     A
C335   O393    1.279   .     A
C335   C337    1.441   .     S
C336   O396    1.288   .     A
C336   O394    1.281   .     A
C336   C338    1.434   .     S
C338   C205    1.363   1_655 S
C338   N254    1.441   1_655 S
C339   C350    1.409   .     A
C339   C341    1.397   .     A
C339   N387    1.433   .     S
C340   C343    1.397   .     A
C340   C351    1.409   .     A
C340   N388    1.433   .     S
C341   H361    1.084   .     S
C341   C344    1.401   .     A
C342   O392    1.292   .     A
C342   C345    1.458   .     S
C342   O390    1.291   .     A
C343   C345    1.401   .     A
C343   H372    1.084   .     S
C344   C346    1.400   .     A
C345   C347    1.400   .     A
C346   H369    1.083   .     S
C346   C348    1.389   .     A
C347   C349    1.389   .     A
C347   H370    1.083   .     S
C348   H376    1.083   .     S
C348   C350    1.402   .     A
C349   H377    1.083   .     S
C349   C351    1.402   .     A
C351   C152    1.468   1_565 S
C352   C354    1.406   .     A
C352   H371    1.081   .     S
C353   C355    1.406   .     A
C353   H373    1.081   .     S
C354   H378    1.081   .     S
C354   N383    1.364   .     A
C355   N384    1.364   .     A
C355   H379    1.081   .     S
C356   C358    1.406   .     A
C356   H374    1.081   .     S
C356   N383    1.364   .     A
C357   N384    1.364   .     A
C357   H375    1.081   .     S
C358   H380    1.081   .     S
Cu359  O393    1.979   .     S
Cu359  Cu360   2.672   .     S
Cu359  N384    2.007   .     S
Cu359  O396    1.980   .     S
Cu359  O392    1.954   .     S
Cu359  O389    1.955   .     S
Cu360  O394    1.979   .     S
Cu360  N383    2.007   .     S
Cu360  O391    1.954   .     S
Cu360  O395    1.980   .     S
Cu360  O390    1.955   .     S
H362   N385    1.046   .     S
H363   N386    1.046   .     S
H364   N386    1.045   .     S
H365   N387    1.046   .     S
H366   N387    1.046   .     S
H367   N388    1.046   .     S
H368   N388    1.046   .     S
N385   C205    1.440   1_655 S
N385   H250    1.046   1_655 S
C397   O455    1.291   .     A
C397   C410    1.458   .     S
C397   O457    1.292   .     A
C398   C400    1.411   .     A
C398   C423    1.406   .     A
C398   H447    1.081   .     S
C399   C424    1.411   .     A
C399   C418    1.411   .     A
C400   C419    1.411   .     A
C400   C3      1.515   1_556 S
C401   O461    1.292   .     A
C401   O459    1.279   .     A
C401   C403    1.441   .     S
C402   O462    1.288   .     A
C402   O460    1.281   .     A
C402   C404    1.434   .     S
C403   C536    1.363   1_455 S
C403   N583    1.440   1_455 S
C404   C469    1.363   .     S
C404   N518    1.441   .     S
C405   C416    1.409   .     A
C405   C407    1.397   .     A
C405   N453    1.433   .     S
C406   C409    1.397   .     A
C406   C417    1.409   .     A
C406   N454    1.433   .     S
C407   H427    1.084   .     S
C407   C410    1.401   .     A
C408   O458    1.292   .     A
C408   C411    1.458   .     S
C408   O456    1.291   .     A
C409   C411    1.401   .     A
C409   H438    1.084   .     S
C410   C412    1.400   .     A
C411   C413    1.400   .     A
C412   H435    1.083   .     S
C412   C414    1.389   .     A
C413   C415    1.389   .     A
C413   H436    1.083   .     S
C414   H442    1.083   .     S
C414   C416    1.402   .     A
C415   H443    1.083   .     S
C415   C417    1.402   .     A
C416   C615    1.468   1_545 S
C417   C614    1.468   .     S
C418   C420    1.406   .     A
C418   H437    1.081   .     S
C419   C421    1.406   .     A
C419   H439    1.081   .     S
C420   H444    1.081   .     S
C420   N449    1.364   .     A
C421   N450    1.364   .     A
C421   H445    1.081   .     S
C422   C424    1.406   .     A
C422   H440    1.081   .     S
C422   N449    1.364   .     A
C423   N450    1.364   .     A
C423   H441    1.081   .     S
C424   H446    1.081   .     S
Cu425  O459    1.979   .     S
Cu425  Cu426   2.672   .     S
Cu425  N450    2.007   .     S
Cu425  O462    1.980   .     S
Cu425  O458    1.954   .     S
Cu425  O455    1.955   .     S
Cu426  O460    1.979   .     S
Cu426  N449    2.007   .     S
Cu426  O457    1.954   .     S
Cu426  O461    1.980   .     S
Cu426  O456    1.955   .     S
H428   N451    1.046   .     S
H429   N452    1.046   .     S
H430   N452    1.045   .     S
H431   N453    1.046   .     S
H432   N453    1.046   .     S
H433   N454    1.046   .     S
H434   N454    1.046   .     S
H448   N583    1.046   1_455 S
N451   C469    1.440   .     S
N451   H514    1.046   .     S
N452   C536    1.441   1_455 S
C463   O521    1.291   .     A
C463   C476    1.458   .     S
C463   O523    1.292   .     A
C464   C466    1.411   .     A
C464   C489    1.406   .     A
C464   H513    1.081   .     S
C465   C490    1.411   .     A
C465   C484    1.411   .     A
C466   C485    1.411   .     A
C466   C69     1.515   1_556 S
C467   O527    1.292   .     A
C467   O525    1.279   .     A
C467   C469    1.441   .     S
C468   O528    1.288   .     A
C468   O526    1.281   .     A
C468   C470    1.434   .     S
C470   C535    1.363   .     S
C470   N584    1.441   .     S
C471   C482    1.409   .     A
C471   C473    1.397   .     A
C471   N519    1.433   .     S
C472   C475    1.397   .     A
C472   C483    1.409   .     A
C472   N520    1.433   .     S
C473   H493    1.084   .     S
C473   C476    1.401   .     A
C474   O524    1.292   .     A
C474   C477    1.458   .     S
C474   O522    1.291   .     A
C475   C477    1.401   .     A
C475   H504    1.084   .     S
C476   C478    1.400   .     A
C477   C479    1.400   .     A
C478   H501    1.083   .     S
C478   C480    1.389   .     A
C479   C481    1.389   .     A
C479   H502    1.083   .     S
C480   H508    1.083   .     S
C480   C482    1.402   .     A
C481   H509    1.083   .     S
C481   C483    1.402   .     A
C482   C681    1.468   1_545 S
C483   C680    1.468   .     S
C484   C486    1.406   .     A
C484   H503    1.081   .     S
C485   C487    1.406   .     A
C485   H505    1.081   .     S
C486   H510    1.081   .     S
C486   N515    1.364   .     A
C487   N516    1.364   .     A
C487   H511    1.081   .     S
C488   C490    1.406   .     A
C488   H506    1.081   .     S
C488   N515    1.364   .     A
C489   N516    1.364   .     A
C489   H507    1.081   .     S
C490   H512    1.081   .     S
Cu491  O525    1.979   .     S
Cu491  Cu492   2.672   .     S
Cu491  N516    2.007   .     S
Cu491  O528    1.980   .     S
Cu491  O524    1.954   .     S
Cu491  O521    1.955   .     S
Cu492  O526    1.979   .     S
Cu492  N515    2.007   .     S
Cu492  O523    1.954   .     S
Cu492  O527    1.980   .     S
Cu492  O522    1.955   .     S
H494   N517    1.046   .     S
H495   N518    1.046   .     S
H496   N518    1.045   .     S
H497   N519    1.046   .     S
H498   N519    1.046   .     S
H499   N520    1.046   .     S
H500   N520    1.046   .     S
N517   C535    1.440   .     S
N517   H580    1.046   .     S
C529   O587    1.291   .     A
C529   C542    1.458   .     S
C529   O589    1.292   .     A
C530   C532    1.411   .     A
C530   C555    1.406   .     A
C530   H579    1.081   .     S
C531   C556    1.411   .     A
C531   C550    1.411   .     A
C532   C551    1.411   .     A
C532   C135    1.515   1_556 S
C533   O593    1.292   .     A
C533   O591    1.279   .     A
C533   C535    1.441   .     S
C534   O594    1.288   .     A
C534   O592    1.281   .     A
C534   C536    1.434   .     S
C536   C403    1.363   1_655 S
C536   N452    1.441   1_655 S
C537   C548    1.409   .     A
C537   C539    1.397   .     A
C537   N585    1.433   .     S
C538   C541    1.397   .     A
C538   C549    1.409   .     A
C538   N586    1.433   .     S
C539   H559    1.084   .     S
C539   C542    1.401   .     A
C540   O590    1.292   .     A
C540   C543    1.458   .     S
C540   O588    1.291   .     A
C541   C543    1.401   .     A
C541   H570    1.084   .     S
C542   C544    1.400   .     A
C543   C545    1.400   .     A
C544   H567    1.083   .     S
C544   C546    1.389   .     A
C545   C547    1.389   .     A
C545   H568    1.083   .     S
C546   H574    1.083   .     S
C546   C548    1.402   .     A
C547   H575    1.083   .     S
C547   C549    1.402   .     A
C548   C747    1.468   1_545 S
C549   C746    1.468   .     S
C550   C552    1.406   .     A
C550   H569    1.081   .     S
C551   C553    1.406   .     A
C551   H571    1.081   .     S
C552   H576    1.081   .     S
C552   N581    1.364   .     A
C553   N582    1.364   .     A
C553   H577    1.081   .     S
C554   C556    1.406   .     A
C554   H572    1.081   .     S
C554   N581    1.364   .     A
C555   N582    1.364   .     A
C555   H573    1.081   .     S
C556   H578    1.081   .     S
Cu557  O591    1.979   .     S
Cu557  Cu558   2.672   .     S
Cu557  N582    2.007   .     S
Cu557  O594    1.980   .     S
Cu557  O590    1.954   .     S
Cu557  O587    1.955   .     S
Cu558  O592    1.979   .     S
Cu558  N581    2.007   .     S
Cu558  O589    1.954   .     S
Cu558  O593    1.980   .     S
Cu558  O588    1.955   .     S
H560   N583    1.046   .     S
H561   N584    1.046   .     S
H562   N584    1.045   .     S
H563   N585    1.046   .     S
H564   N585    1.046   .     S
H565   N586    1.046   .     S
H566   N586    1.046   .     S
N583   C403    1.440   1_655 S
N583   H448    1.046   1_655 S
C595   O653    1.291   .     A
C595   C608    1.458   .     S
C595   O655    1.292   .     A
C596   C598    1.411   .     A
C596   C621    1.406   .     A
C596   H645    1.081   .     S
C597   C622    1.411   .     A
C597   C616    1.411   .     A
C598   C617    1.411   .     A
C598   C201    1.515   1_556 S
C599   O659    1.292   .     A
C599   O657    1.279   .     A
C599   C601    1.441   .     S
C600   O660    1.288   .     A
C600   O658    1.281   .     A
C600   C602    1.434   .     S
C601   C734    1.363   1_455 S
C601   N781    1.440   1_455 S
C602   C667    1.363   .     S
C602   N716    1.441   .     S
C603   C614    1.409   .     A
C603   C605    1.397   .     A
C603   N651    1.433   .     S
C604   C607    1.397   .     A
C604   C615    1.409   .     A
C604   N652    1.433   .     S
C605   H625    1.084   .     S
C605   C608    1.401   .     A
C606   O656    1.292   .     A
C606   C609    1.458   .     S
C606   O654    1.291   .     A
C607   C609    1.401   .     A
C607   H636    1.084   .     S
C608   C610    1.400   .     A
C609   C611    1.400   .     A
C610   H633    1.083   .     S
C610   C612    1.389   .     A
C611   C613    1.389   .     A
C611   H634    1.083   .     S
C612   H640    1.083   .     S
C612   C614    1.402   .     A
C613   H641    1.083   .     S
C613   C615    1.402   .     A
C615   C416    1.468   1_565 S
C616   C618    1.406   .     A
C616   H635    1.081   .     S
C617   C619    1.406   .     A
C617   H637    1.081   .     S
C618   H642    1.081   .     S
C618   N647    1.364   .     A
C619   N648    1.364   .     A
C619   H643    1.081   .     S
C620   C622    1.406   .     A
C620   H638    1.081   .     S
C620   N647    1.364   .     A
C621   N648    1.364   .     A
C621   H639    1.081   .     S
C622   H644    1.081   .     S
Cu623  O657    1.979   .     S
Cu623  Cu624   2.672   .     S
Cu623  N648    2.007   .     S
Cu623  O660    1.980   .     S
Cu623  O656    1.954   .     S
Cu623  O653    1.955   .     S
Cu624  O658    1.979   .     S
Cu624  N647    2.007   .     S
Cu624  O655    1.954   .     S
Cu624  O659    1.980   .     S
Cu624  O654    1.955   .     S
H626   N649    1.046   .     S
H627   N650    1.046   .     S
H628   N650    1.045   .     S
H629   N651    1.046   .     S
H630   N651    1.046   .     S
H631   N652    1.046   .     S
H632   N652    1.046   .     S
H646   N781    1.046   1_455 S
N649   C667    1.440   .     S
N649   H712    1.046   .     S
N650   C734    1.441   1_455 S
C661   O719    1.291   .     A
C661   C674    1.458   .     S
C661   O721    1.292   .     A
C662   C664    1.411   .     A
C662   C687    1.406   .     A
C662   H711    1.081   .     S
C663   C688    1.411   .     A
C663   C682    1.411   .     A
C664   C683    1.411   .     A
C664   C267    1.515   1_556 S
C665   O725    1.292   .     A
C665   O723    1.279   .     A
C665   C667    1.441   .     S
C666   O726    1.288   .     A
C666   O724    1.281   .     A
C666   C668    1.434   .     S
C668   C733    1.363   .     S
C668   N782    1.441   .     S
C669   C680    1.409   .     A
C669   C671    1.397   .     A
C669   N717    1.433   .     S
C670   C673    1.397   .     A
C670   C681    1.409   .     A
C670   N718    1.433   .     S
C671   H691    1.084   .     S
C671   C674    1.401   .     A
C672   O722    1.292   .     A
C672   C675    1.458   .     S
C672   O720    1.291   .     A
C673   C675    1.401   .     A
C673   H702    1.084   .     S
C674   C676    1.400   .     A
C675   C677    1.400   .     A
C676   H699    1.083   .     S
C676   C678    1.389   .     A
C677   C679    1.389   .     A
C677   H700    1.083   .     S
C678   H706    1.083   .     S
C678   C680    1.402   .     A
C679   H707    1.083   .     S
C679   C681    1.402   .     A
C681   C482    1.468   1_565 S
C682   C684    1.406   .     A
C682   H701    1.081   .     S
C683   C685    1.406   .     A
C683   H703    1.081   .     S
C684   H708    1.081   .     S
C684   N713    1.364   .     A
C685   N714    1.364   .     A
C685   H709    1.081   .     S
C686   C688    1.406   .     A
C686   H704    1.081   .     S
C686   N713    1.364   .     A
C687   N714    1.364   .     A
C687   H705    1.081   .     S
C688   H710    1.081   .     S
Cu689  O723    1.979   .     S
Cu689  Cu690   2.672   .     S
Cu689  N714    2.007   .     S
Cu689  O726    1.980   .     S
Cu689  O722    1.954   .     S
Cu689  O719    1.955   .     S
Cu690  O724    1.979   .     S
Cu690  N713    2.007   .     S
Cu690  O721    1.954   .     S
Cu690  O725    1.980   .     S
Cu690  O720    1.955   .     S
H692   N715    1.046   .     S
H693   N716    1.046   .     S
H694   N716    1.045   .     S
H695   N717    1.046   .     S
H696   N717    1.046   .     S
H697   N718    1.046   .     S
H698   N718    1.046   .     S
N715   C733    1.440   .     S
N715   H778    1.046   .     S
C727   O785    1.291   .     A
C727   C740    1.458   .     S
C727   O787    1.292   .     A
C728   C730    1.411   .     A
C728   C753    1.406   .     A
C728   H777    1.081   .     S
C729   C754    1.411   .     A
C729   C748    1.411   .     A
C730   C749    1.411   .     A
C730   C333    1.515   1_556 S
C731   O791    1.292   .     A
C731   O789    1.279   .     A
C731   C733    1.441   .     S
C732   O792    1.288   .     A
C732   O790    1.281   .     A
C732   C734    1.434   .     S
C734   C601    1.363   1_655 S
C734   N650    1.441   1_655 S
C735   C746    1.409   .     A
C735   C737    1.397   .     A
C735   N783    1.433   .     S
C736   C739    1.397   .     A
C736   C747    1.409   .     A
C736   N784    1.433   .     S
C737   H757    1.084   .     S
C737   C740    1.401   .     A
C738   O788    1.292   .     A
C738   C741    1.458   .     S
C738   O786    1.291   .     A
C739   C741    1.401   .     A
C739   H768    1.084   .     S
C740   C742    1.400   .     A
C741   C743    1.400   .     A
C742   H765    1.083   .     S
C742   C744    1.389   .     A
C743   C745    1.389   .     A
C743   H766    1.083   .     S
C744   H772    1.083   .     S
C744   C746    1.402   .     A
C745   H773    1.083   .     S
C745   C747    1.402   .     A
C747   C548    1.468   1_565 S
C748   C750    1.406   .     A
C748   H767    1.081   .     S
C749   C751    1.406   .     A
C749   H769    1.081   .     S
C750   H774    1.081   .     S
C750   N779    1.364   .     A
C751   N780    1.364   .     A
C751   H775    1.081   .     S
C752   C754    1.406   .     A
C752   H770    1.081   .     S
C752   N779    1.364   .     A
C753   N780    1.364   .     A
C753   H771    1.081   .     S
C754   H776    1.081   .     S
Cu755  O789    1.979   .     S
Cu755  Cu756   2.672   .     S
Cu755  N780    2.007   .     S
Cu755  O792    1.980   .     S
Cu755  O788    1.954   .     S
Cu755  O785    1.955   .     S
Cu756  O790    1.979   .     S
Cu756  N779    2.007   .     S
Cu756  O787    1.954   .     S
Cu756  O791    1.980   .     S
Cu756  O786    1.955   .     S
H758   N781    1.046   .     S
H759   N782    1.046   .     S
H760   N782    1.045   .     S
H761   N783    1.046   .     S
H762   N783    1.046   .     S
H763   N784    1.046   .     S
H764   N784    1.046   .     S
N781   C601    1.440   1_655 S
N781   H646    1.046   1_655 S
