data_str_m3_o1_o16_pcu_sym.262
_audit_creation_date              2020-01-03
_audit_creation_method            'Materials Studio'
_symmetry_space_group_name_H-M    'P1'
_symmetry_Int_Tables_number       1
_symmetry_cell_setting            triclinic
loop_
_symmetry_equiv_pos_as_xyz
  x,y,z
_cell_length_a                    29.7654
_cell_length_b                    31.8371
_cell_length_c                    26.3086
_cell_angle_alpha                 90.1942
_cell_angle_beta                  69.8492
_cell_angle_gamma                 90.8562
loop_
_atom_site_label
_atom_site_type_symbol
_atom_site_fract_x
_atom_site_fract_y
_atom_site_fract_z
_atom_site_U_iso_or_equiv
_atom_site_adp_type
_atom_site_occupancy
O1     O     0.12846   0.22775   0.25000   0.00000  Uiso   1.00
O2     O     0.20490   0.22774   0.25000   0.00000  Uiso   1.00
C3     C     0.16649   0.24652   0.25182   0.00000  Uiso   1.00
O4     O     0.10947   0.16666   0.32681   0.00000  Uiso   1.00
O5     O     0.18591   0.16665   0.32681   0.00000  Uiso   1.00
C6     C     0.14003   0.16386   0.35199   0.00000  Uiso   1.00
Zn7    Zn    0.11562   0.16667   0.25000   0.00000  Uiso   1.00
Zn8    Zn    0.21771   0.16666   0.25000   0.00000  Uiso   1.00
O9     O     0.12843   0.10559   0.25000   0.00000  Uiso   1.00
O10    O     0.20488   0.10558   0.25000   0.00000  Uiso   1.00
O11    O     0.14742   0.16668   0.17319   0.00000  Uiso   1.00
O12    O     0.22387   0.16667   0.17319   0.00000  Uiso   1.00
C13    C     0.16678   0.08682   0.24847   0.00000  Uiso   1.00
C14    C     0.19339   0.16752   0.14799   0.00000  Uiso   1.00
C15    C     0.26184   0.13352   0.00695   0.00000  Uiso   1.00
H16    H     0.27940   0.13870   0.07919   0.00000  Uiso   1.00
H17    H     0.26273   0.10088   0.41466   0.00000  Uiso   1.00
H18    H     0.29499   0.11790   0.48498   0.00000  Uiso   1.00
C19    C     0.21004   0.16474   0.08940   0.00000  Uiso   1.00
C20    C     0.07745   0.17495   0.44102   0.00000  Uiso   1.00
C21    C     0.06519   0.18183   0.49618   0.00000  Uiso   1.00
C22    C     0.09911   0.17645   0.02102   0.00000  Uiso   1.00
C23    C     0.14535   0.16115   0.49140   0.00000  Uiso   1.00
C24    C     0.15437   0.14711   0.43792   0.00000  Uiso   1.00
C25    C     0.18247   0.15831   0.01341   0.00000  Uiso   1.00
C26    C     0.22586   0.13801   0.48419   0.00000  Uiso   1.00
C27    C     0.23136   0.11951   0.43461   0.00000  Uiso   1.00
C28    C     0.19492   0.12158   0.41279   0.00000  Uiso   1.00
C29    C     0.17739   0.17448   0.06427   0.00000  Uiso   1.00
C30    C     0.25345   0.14595   0.06015   0.00000  Uiso   1.00
C31    C     0.12282   0.15972   0.41107   0.00000  Uiso   1.00
H32    H     0.14666   0.19258   0.08690   0.00000  Uiso   1.00
H33    H     0.05219   0.18315   0.42146   0.00000  Uiso   1.00
H34    H     0.08756   0.18351   0.06364   0.00000  Uiso   1.00
H35    H     0.03004   0.19344   0.01928   0.00000  Uiso   1.00
C36    C     0.13466   0.31252   0.29667   0.00000  Uiso   1.00
C37    C     0.13238   0.02211   0.29208   0.00000  Uiso   1.00
H38    H     0.10644   0.03984   0.32368   0.00000  Uiso   1.00
C39    C     0.16588   0.04269   0.24857   0.00000  Uiso   1.00
C40    C     0.20009   0.02135   0.20729   0.00000  Uiso   1.00
H41    H     0.22600   0.03802   0.17379   0.00000  Uiso   1.00
C42    C     0.19987   0.31155   0.20889   0.00000  Uiso   1.00
H43    H     0.22512   0.29435   0.17596   0.00000  Uiso   1.00
C44    C     0.16703   0.29076   0.25311   0.00000  Uiso   1.00
C45    C     0.31454   0.13432   0.22823   0.00000  Uiso   1.00
H46    H     0.29972   0.10870   0.21174   0.00000  Uiso   1.00
C47    C     0.02897   0.13373   0.22731   0.00000  Uiso   1.00
N48    N     0.04760   0.16668   0.25002   0.00000  Uiso   1.00
C49    C     0.01800   0.19958   0.27099   0.00000  Uiso   1.00
H50    H     0.03119   0.22626   0.28703   0.00000  Uiso   1.00
C51    C     0.30354   0.19947   0.27131   0.00000  Uiso   1.00
H52    H     0.28089   0.22587   0.28850   0.00000  Uiso   1.00
N53    N     0.28573   0.16665   0.25001   0.00000  Uiso   1.00
S54    S     0.05942   0.08692   0.19809   0.00000  Uiso   1.00
O55    O     0.05909   0.05772   0.24294   0.00000  Uiso   1.00
O56    O     0.03306   0.06483   0.16591   0.00000  Uiso   1.00
O57    O     0.11577   0.09498   0.15602   0.00000  Uiso   1.00
H58    H     0.11263   0.10491   0.12176   0.00000  Uiso   1.00
N59    N     0.19574   0.09250   0.37072   0.00000  Uiso   1.00
O60    O     0.23625   0.07920   0.33704   0.00000  Uiso   1.00
O61    O     0.15647   0.07279   0.37340   0.00000  Uiso   1.00
S62    S     0.10253   0.28848   0.35964   0.00000  Uiso   1.00
O63    O     0.13454   0.25852   0.37447   0.00000  Uiso   1.00
O64    O     0.08591   0.32133   0.40307   0.00000  Uiso   1.00
O65    O     0.05468   0.26223   0.35545   0.00000  Uiso   1.00
H66    H     0.03532   0.25483   0.39329   0.00000  Uiso   1.00
O67    O     0.46179   0.22775   0.25000   0.00000  Uiso   1.00
O68    O     0.53823   0.22774   0.25000   0.00000  Uiso   1.00
C69    C     0.49982   0.24652   0.25182   0.00000  Uiso   1.00
O70    O     0.44280   0.16666   0.32681   0.00000  Uiso   1.00
O71    O     0.51924   0.16665   0.32681   0.00000  Uiso   1.00
C72    C     0.47337   0.16386   0.35199   0.00000  Uiso   1.00
Zn73   Zn    0.44896   0.16667   0.25000   0.00000  Uiso   1.00
Zn74   Zn    0.55104   0.16666   0.25000   0.00000  Uiso   1.00
O75    O     0.46177   0.10559   0.25000   0.00000  Uiso   1.00
O76    O     0.53821   0.10558   0.25000   0.00000  Uiso   1.00
O77    O     0.48076   0.16668   0.17319   0.00000  Uiso   1.00
O78    O     0.55720   0.16667   0.17319   0.00000  Uiso   1.00
C79    C     0.50011   0.08682   0.24847   0.00000  Uiso   1.00
C80    C     0.52673   0.16752   0.14799   0.00000  Uiso   1.00
C81    C     0.59517   0.13352   0.00695   0.00000  Uiso   1.00
H82    H     0.61273   0.13870   0.07919   0.00000  Uiso   1.00
H83    H     0.59606   0.10088   0.41466   0.00000  Uiso   1.00
H84    H     0.62832   0.11790   0.48498   0.00000  Uiso   1.00
C85    C     0.54337   0.16474   0.08940   0.00000  Uiso   1.00
C86    C     0.41079   0.17495   0.44102   0.00000  Uiso   1.00
C87    C     0.39852   0.18183   0.49618   0.00000  Uiso   1.00
C88    C     0.43244   0.17645   0.02102   0.00000  Uiso   1.00
C89    C     0.47868   0.16115   0.49140   0.00000  Uiso   1.00
C90    C     0.48770   0.14711   0.43792   0.00000  Uiso   1.00
C91    C     0.51580   0.15831   0.01341   0.00000  Uiso   1.00
C92    C     0.55919   0.13801   0.48419   0.00000  Uiso   1.00
C93    C     0.56470   0.11951   0.43461   0.00000  Uiso   1.00
C94    C     0.52826   0.12158   0.41279   0.00000  Uiso   1.00
C95    C     0.51072   0.17448   0.06427   0.00000  Uiso   1.00
C96    C     0.58678   0.14595   0.06015   0.00000  Uiso   1.00
C97    C     0.45616   0.15972   0.41107   0.00000  Uiso   1.00
H98    H     0.48000   0.19258   0.08690   0.00000  Uiso   1.00
H99    H     0.38552   0.18315   0.42146   0.00000  Uiso   1.00
H100   H     0.42090   0.18351   0.06364   0.00000  Uiso   1.00
H101   H     0.36337   0.19344   0.01928   0.00000  Uiso   1.00
C102   C     0.46799   0.31252   0.29667   0.00000  Uiso   1.00
C103   C     0.46571   0.02211   0.29208   0.00000  Uiso   1.00
H104   H     0.43977   0.03984   0.32368   0.00000  Uiso   1.00
C105   C     0.49922   0.04269   0.24857   0.00000  Uiso   1.00
C106   C     0.53342   0.02135   0.20729   0.00000  Uiso   1.00
H107   H     0.55933   0.03802   0.17379   0.00000  Uiso   1.00
C108   C     0.53321   0.31155   0.20889   0.00000  Uiso   1.00
H109   H     0.55845   0.29435   0.17596   0.00000  Uiso   1.00
C110   C     0.50036   0.29076   0.25311   0.00000  Uiso   1.00
C111   C     0.64787   0.13432   0.22823   0.00000  Uiso   1.00
H112   H     0.63306   0.10870   0.21174   0.00000  Uiso   1.00
C113   C     0.36230   0.13373   0.22731   0.00000  Uiso   1.00
N114   N     0.38093   0.16668   0.25002   0.00000  Uiso   1.00
C115   C     0.35134   0.19958   0.27099   0.00000  Uiso   1.00
H116   H     0.36453   0.22626   0.28703   0.00000  Uiso   1.00
C117   C     0.63687   0.19947   0.27131   0.00000  Uiso   1.00
H118   H     0.61422   0.22587   0.28850   0.00000  Uiso   1.00
N119   N     0.61906   0.16665   0.25001   0.00000  Uiso   1.00
S120   S     0.39275   0.08692   0.19809   0.00000  Uiso   1.00
O121   O     0.39242   0.05772   0.24294   0.00000  Uiso   1.00
O122   O     0.36639   0.06483   0.16591   0.00000  Uiso   1.00
O123   O     0.44910   0.09498   0.15602   0.00000  Uiso   1.00
H124   H     0.44597   0.10491   0.12176   0.00000  Uiso   1.00
N125   N     0.52908   0.09250   0.37072   0.00000  Uiso   1.00
O126   O     0.56959   0.07920   0.33704   0.00000  Uiso   1.00
O127   O     0.48980   0.07279   0.37340   0.00000  Uiso   1.00
S128   S     0.43586   0.28848   0.35964   0.00000  Uiso   1.00
O129   O     0.46787   0.25852   0.37447   0.00000  Uiso   1.00
O130   O     0.41924   0.32133   0.40307   0.00000  Uiso   1.00
O131   O     0.38802   0.26223   0.35545   0.00000  Uiso   1.00
H132   H     0.36865   0.25483   0.39329   0.00000  Uiso   1.00
O133   O     0.79512   0.22775   0.25000   0.00000  Uiso   1.00
O134   O     0.87157   0.22774   0.25000   0.00000  Uiso   1.00
C135   C     0.83315   0.24652   0.25182   0.00000  Uiso   1.00
O136   O     0.77613   0.16666   0.32681   0.00000  Uiso   1.00
O137   O     0.85258   0.16665   0.32681   0.00000  Uiso   1.00
C138   C     0.80670   0.16386   0.35199   0.00000  Uiso   1.00
Zn139  Zn    0.78229   0.16667   0.25000   0.00000  Uiso   1.00
Zn140  Zn    0.88438   0.16666   0.25000   0.00000  Uiso   1.00
O141   O     0.79510   0.10559   0.25000   0.00000  Uiso   1.00
O142   O     0.87154   0.10558   0.25000   0.00000  Uiso   1.00
O143   O     0.81409   0.16668   0.17319   0.00000  Uiso   1.00
O144   O     0.89053   0.16667   0.17319   0.00000  Uiso   1.00
C145   C     0.83344   0.08682   0.24847   0.00000  Uiso   1.00
C146   C     0.86006   0.16752   0.14799   0.00000  Uiso   1.00
C147   C     0.92851   0.13352   0.00695   0.00000  Uiso   1.00
H148   H     0.94607   0.13870   0.07919   0.00000  Uiso   1.00
H149   H     0.92939   0.10088   0.41466   0.00000  Uiso   1.00
H150   H     0.96166   0.11790   0.48498   0.00000  Uiso   1.00
C151   C     0.87671   0.16474   0.08940   0.00000  Uiso   1.00
C152   C     0.74412   0.17495   0.44102   0.00000  Uiso   1.00
C153   C     0.73185   0.18183   0.49618   0.00000  Uiso   1.00
C154   C     0.76577   0.17645   0.02102   0.00000  Uiso   1.00
C155   C     0.81202   0.16115   0.49140   0.00000  Uiso   1.00
C156   C     0.82104   0.14711   0.43792   0.00000  Uiso   1.00
C157   C     0.84913   0.15831   0.01341   0.00000  Uiso   1.00
C158   C     0.89253   0.13801   0.48419   0.00000  Uiso   1.00
C159   C     0.89803   0.11951   0.43461   0.00000  Uiso   1.00
C160   C     0.86159   0.12158   0.41279   0.00000  Uiso   1.00
C161   C     0.84405   0.17448   0.06427   0.00000  Uiso   1.00
C162   C     0.92012   0.14595   0.06015   0.00000  Uiso   1.00
C163   C     0.78949   0.15972   0.41107   0.00000  Uiso   1.00
H164   H     0.81333   0.19258   0.08690   0.00000  Uiso   1.00
H165   H     0.71885   0.18315   0.42146   0.00000  Uiso   1.00
H166   H     0.75423   0.18351   0.06364   0.00000  Uiso   1.00
H167   H     0.69671   0.19344   0.01928   0.00000  Uiso   1.00
C168   C     0.80133   0.31252   0.29667   0.00000  Uiso   1.00
C169   C     0.79904   0.02211   0.29208   0.00000  Uiso   1.00
H170   H     0.77311   0.03984   0.32368   0.00000  Uiso   1.00
C171   C     0.83255   0.04269   0.24857   0.00000  Uiso   1.00
C172   C     0.86676   0.02135   0.20729   0.00000  Uiso   1.00
H173   H     0.89266   0.03802   0.17379   0.00000  Uiso   1.00
C174   C     0.86654   0.31155   0.20889   0.00000  Uiso   1.00
H175   H     0.89179   0.29435   0.17596   0.00000  Uiso   1.00
C176   C     0.83370   0.29076   0.25311   0.00000  Uiso   1.00
C177   C     0.98121   0.13432   0.22823   0.00000  Uiso   1.00
H178   H     0.96639   0.10870   0.21174   0.00000  Uiso   1.00
C179   C     0.69563   0.13373   0.22731   0.00000  Uiso   1.00
N180   N     0.71426   0.16668   0.25002   0.00000  Uiso   1.00
C181   C     0.68467   0.19958   0.27099   0.00000  Uiso   1.00
H182   H     0.69786   0.22626   0.28703   0.00000  Uiso   1.00
C183   C     0.97021   0.19947   0.27131   0.00000  Uiso   1.00
H184   H     0.94755   0.22587   0.28850   0.00000  Uiso   1.00
N185   N     0.95239   0.16665   0.25001   0.00000  Uiso   1.00
S186   S     0.72608   0.08692   0.19809   0.00000  Uiso   1.00
O187   O     0.72576   0.05772   0.24294   0.00000  Uiso   1.00
O188   O     0.69972   0.06483   0.16591   0.00000  Uiso   1.00
O189   O     0.78243   0.09498   0.15602   0.00000  Uiso   1.00
H190   H     0.77930   0.10491   0.12176   0.00000  Uiso   1.00
N191   N     0.86241   0.09250   0.37072   0.00000  Uiso   1.00
O192   O     0.90292   0.07920   0.33704   0.00000  Uiso   1.00
O193   O     0.82313   0.07279   0.37340   0.00000  Uiso   1.00
S194   S     0.76920   0.28848   0.35964   0.00000  Uiso   1.00
O195   O     0.80120   0.25852   0.37447   0.00000  Uiso   1.00
O196   O     0.75257   0.32133   0.40307   0.00000  Uiso   1.00
O197   O     0.72135   0.26223   0.35545   0.00000  Uiso   1.00
H198   H     0.70198   0.25483   0.39329   0.00000  Uiso   1.00
O199   O     0.12846   0.56108   0.25000   0.00000  Uiso   1.00
O200   O     0.20490   0.56107   0.25000   0.00000  Uiso   1.00
C201   C     0.16649   0.57986   0.25182   0.00000  Uiso   1.00
O202   O     0.10947   0.50000   0.32681   0.00000  Uiso   1.00
O203   O     0.18591   0.49999   0.32681   0.00000  Uiso   1.00
C204   C     0.14003   0.49719   0.35199   0.00000  Uiso   1.00
Zn205  Zn    0.11562   0.50001   0.25000   0.00000  Uiso   1.00
Zn206  Zn    0.21771   0.49999   0.25000   0.00000  Uiso   1.00
O207   O     0.12843   0.43893   0.25000   0.00000  Uiso   1.00
O208   O     0.20488   0.43892   0.25000   0.00000  Uiso   1.00
O209   O     0.14742   0.50001   0.17319   0.00000  Uiso   1.00
O210   O     0.22387   0.50000   0.17319   0.00000  Uiso   1.00
C211   C     0.16678   0.42016   0.24847   0.00000  Uiso   1.00
C212   C     0.19339   0.50085   0.14799   0.00000  Uiso   1.00
C213   C     0.26184   0.46686   0.00695   0.00000  Uiso   1.00
H214   H     0.27940   0.47204   0.07919   0.00000  Uiso   1.00
H215   H     0.26273   0.43422   0.41466   0.00000  Uiso   1.00
H216   H     0.29499   0.45123   0.48498   0.00000  Uiso   1.00
C217   C     0.21004   0.49807   0.08940   0.00000  Uiso   1.00
C218   C     0.07745   0.50828   0.44102   0.00000  Uiso   1.00
C219   C     0.06519   0.51516   0.49618   0.00000  Uiso   1.00
C220   C     0.09911   0.50978   0.02102   0.00000  Uiso   1.00
C221   C     0.14535   0.49449   0.49140   0.00000  Uiso   1.00
C222   C     0.15437   0.48044   0.43792   0.00000  Uiso   1.00
C223   C     0.18247   0.49164   0.01341   0.00000  Uiso   1.00
C224   C     0.22586   0.47135   0.48419   0.00000  Uiso   1.00
C225   C     0.23136   0.45285   0.43461   0.00000  Uiso   1.00
C226   C     0.19492   0.45491   0.41279   0.00000  Uiso   1.00
C227   C     0.17739   0.50782   0.06427   0.00000  Uiso   1.00
C228   C     0.25345   0.47928   0.06015   0.00000  Uiso   1.00
C229   C     0.12282   0.49305   0.41107   0.00000  Uiso   1.00
H230   H     0.14666   0.52591   0.08690   0.00000  Uiso   1.00
H231   H     0.05219   0.51649   0.42146   0.00000  Uiso   1.00
H232   H     0.08756   0.51685   0.06364   0.00000  Uiso   1.00
H233   H     0.03004   0.52677   0.01928   0.00000  Uiso   1.00
C234   C     0.13466   0.64586   0.29667   0.00000  Uiso   1.00
C235   C     0.13238   0.35544   0.29208   0.00000  Uiso   1.00
H236   H     0.10644   0.37317   0.32368   0.00000  Uiso   1.00
C237   C     0.16588   0.37603   0.24857   0.00000  Uiso   1.00
C238   C     0.20009   0.35469   0.20729   0.00000  Uiso   1.00
H239   H     0.22600   0.37135   0.17379   0.00000  Uiso   1.00
C240   C     0.19987   0.64488   0.20889   0.00000  Uiso   1.00
H241   H     0.22512   0.62768   0.17596   0.00000  Uiso   1.00
C242   C     0.16703   0.62410   0.25311   0.00000  Uiso   1.00
C243   C     0.31454   0.46765   0.22823   0.00000  Uiso   1.00
H244   H     0.29972   0.44203   0.21174   0.00000  Uiso   1.00
C245   C     0.02897   0.46706   0.22731   0.00000  Uiso   1.00
N246   N     0.04760   0.50001   0.25002   0.00000  Uiso   1.00
C247   C     0.01800   0.53291   0.27099   0.00000  Uiso   1.00
H248   H     0.03119   0.55959   0.28703   0.00000  Uiso   1.00
C249   C     0.30354   0.53280   0.27131   0.00000  Uiso   1.00
H250   H     0.28089   0.55920   0.28850   0.00000  Uiso   1.00
N251   N     0.28573   0.49998   0.25001   0.00000  Uiso   1.00
S252   S     0.05942   0.42025   0.19809   0.00000  Uiso   1.00
O253   O     0.05909   0.39106   0.24294   0.00000  Uiso   1.00
O254   O     0.03306   0.39816   0.16591   0.00000  Uiso   1.00
O255   O     0.11577   0.42831   0.15602   0.00000  Uiso   1.00
H256   H     0.11263   0.43825   0.12176   0.00000  Uiso   1.00
N257   N     0.19574   0.42583   0.37072   0.00000  Uiso   1.00
O258   O     0.23625   0.41253   0.33704   0.00000  Uiso   1.00
O259   O     0.15647   0.40612   0.37340   0.00000  Uiso   1.00
S260   S     0.10253   0.62182   0.35964   0.00000  Uiso   1.00
O261   O     0.13454   0.59186   0.37447   0.00000  Uiso   1.00
O262   O     0.08591   0.65466   0.40307   0.00000  Uiso   1.00
O263   O     0.05468   0.59556   0.35545   0.00000  Uiso   1.00
H264   H     0.03532   0.58817   0.39329   0.00000  Uiso   1.00
O265   O     0.46179   0.56108   0.25000   0.00000  Uiso   1.00
O266   O     0.53823   0.56107   0.25000   0.00000  Uiso   1.00
C267   C     0.49982   0.57986   0.25182   0.00000  Uiso   1.00
O268   O     0.44280   0.50000   0.32681   0.00000  Uiso   1.00
O269   O     0.51924   0.49999   0.32681   0.00000  Uiso   1.00
C270   C     0.47337   0.49719   0.35199   0.00000  Uiso   1.00
Zn271  Zn    0.44896   0.50001   0.25000   0.00000  Uiso   1.00
Zn272  Zn    0.55104   0.49999   0.25000   0.00000  Uiso   1.00
O273   O     0.46177   0.43893   0.25000   0.00000  Uiso   1.00
O274   O     0.53821   0.43892   0.25000   0.00000  Uiso   1.00
O275   O     0.48076   0.50001   0.17319   0.00000  Uiso   1.00
O276   O     0.55720   0.50000   0.17319   0.00000  Uiso   1.00
C277   C     0.50011   0.42016   0.24847   0.00000  Uiso   1.00
C278   C     0.52673   0.50085   0.14799   0.00000  Uiso   1.00
C279   C     0.59517   0.46686   0.00695   0.00000  Uiso   1.00
H280   H     0.61273   0.47204   0.07919   0.00000  Uiso   1.00
H281   H     0.59606   0.43422   0.41466   0.00000  Uiso   1.00
H282   H     0.62832   0.45123   0.48498   0.00000  Uiso   1.00
C283   C     0.54337   0.49807   0.08940   0.00000  Uiso   1.00
C284   C     0.41079   0.50828   0.44102   0.00000  Uiso   1.00
C285   C     0.39852   0.51516   0.49618   0.00000  Uiso   1.00
C286   C     0.43244   0.50978   0.02102   0.00000  Uiso   1.00
C287   C     0.47868   0.49449   0.49140   0.00000  Uiso   1.00
C288   C     0.48770   0.48044   0.43792   0.00000  Uiso   1.00
C289   C     0.51580   0.49164   0.01341   0.00000  Uiso   1.00
C290   C     0.55919   0.47135   0.48419   0.00000  Uiso   1.00
C291   C     0.56470   0.45285   0.43461   0.00000  Uiso   1.00
C292   C     0.52826   0.45491   0.41279   0.00000  Uiso   1.00
C293   C     0.51072   0.50782   0.06427   0.00000  Uiso   1.00
C294   C     0.58678   0.47928   0.06015   0.00000  Uiso   1.00
C295   C     0.45616   0.49305   0.41107   0.00000  Uiso   1.00
H296   H     0.48000   0.52591   0.08690   0.00000  Uiso   1.00
H297   H     0.38552   0.51649   0.42146   0.00000  Uiso   1.00
H298   H     0.42090   0.51685   0.06364   0.00000  Uiso   1.00
H299   H     0.36337   0.52677   0.01928   0.00000  Uiso   1.00
C300   C     0.46799   0.64586   0.29667   0.00000  Uiso   1.00
C301   C     0.46571   0.35544   0.29208   0.00000  Uiso   1.00
H302   H     0.43977   0.37317   0.32368   0.00000  Uiso   1.00
C303   C     0.49922   0.37603   0.24857   0.00000  Uiso   1.00
C304   C     0.53342   0.35469   0.20729   0.00000  Uiso   1.00
H305   H     0.55933   0.37135   0.17379   0.00000  Uiso   1.00
C306   C     0.53321   0.64488   0.20889   0.00000  Uiso   1.00
H307   H     0.55845   0.62768   0.17596   0.00000  Uiso   1.00
C308   C     0.50036   0.62410   0.25311   0.00000  Uiso   1.00
C309   C     0.64787   0.46765   0.22823   0.00000  Uiso   1.00
H310   H     0.63306   0.44203   0.21174   0.00000  Uiso   1.00
C311   C     0.36230   0.46706   0.22731   0.00000  Uiso   1.00
N312   N     0.38093   0.50001   0.25002   0.00000  Uiso   1.00
C313   C     0.35134   0.53291   0.27099   0.00000  Uiso   1.00
H314   H     0.36453   0.55959   0.28703   0.00000  Uiso   1.00
C315   C     0.63687   0.53280   0.27131   0.00000  Uiso   1.00
H316   H     0.61422   0.55920   0.28850   0.00000  Uiso   1.00
N317   N     0.61906   0.49998   0.25001   0.00000  Uiso   1.00
S318   S     0.39275   0.42025   0.19809   0.00000  Uiso   1.00
O319   O     0.39242   0.39106   0.24294   0.00000  Uiso   1.00
O320   O     0.36639   0.39816   0.16591   0.00000  Uiso   1.00
O321   O     0.44910   0.42831   0.15602   0.00000  Uiso   1.00
H322   H     0.44597   0.43825   0.12176   0.00000  Uiso   1.00
N323   N     0.52908   0.42583   0.37072   0.00000  Uiso   1.00
O324   O     0.56959   0.41253   0.33704   0.00000  Uiso   1.00
O325   O     0.48980   0.40612   0.37340   0.00000  Uiso   1.00
S326   S     0.43586   0.62182   0.35964   0.00000  Uiso   1.00
O327   O     0.46787   0.59186   0.37447   0.00000  Uiso   1.00
O328   O     0.41924   0.65466   0.40307   0.00000  Uiso   1.00
O329   O     0.38802   0.59556   0.35545   0.00000  Uiso   1.00
H330   H     0.36865   0.58817   0.39329   0.00000  Uiso   1.00
O331   O     0.79512   0.56108   0.25000   0.00000  Uiso   1.00
O332   O     0.87157   0.56107   0.25000   0.00000  Uiso   1.00
C333   C     0.83315   0.57986   0.25182   0.00000  Uiso   1.00
O334   O     0.77613   0.50000   0.32681   0.00000  Uiso   1.00
O335   O     0.85258   0.49999   0.32681   0.00000  Uiso   1.00
C336   C     0.80670   0.49719   0.35199   0.00000  Uiso   1.00
Zn337  Zn    0.78229   0.50001   0.25000   0.00000  Uiso   1.00
Zn338  Zn    0.88438   0.49999   0.25000   0.00000  Uiso   1.00
O339   O     0.79510   0.43893   0.25000   0.00000  Uiso   1.00
O340   O     0.87154   0.43892   0.25000   0.00000  Uiso   1.00
O341   O     0.81409   0.50001   0.17319   0.00000  Uiso   1.00
O342   O     0.89053   0.50000   0.17319   0.00000  Uiso   1.00
C343   C     0.83344   0.42016   0.24847   0.00000  Uiso   1.00
C344   C     0.86006   0.50085   0.14799   0.00000  Uiso   1.00
C345   C     0.92851   0.46686   0.00695   0.00000  Uiso   1.00
H346   H     0.94607   0.47204   0.07919   0.00000  Uiso   1.00
H347   H     0.92939   0.43422   0.41466   0.00000  Uiso   1.00
H348   H     0.96166   0.45123   0.48498   0.00000  Uiso   1.00
C349   C     0.87671   0.49807   0.08940   0.00000  Uiso   1.00
C350   C     0.74412   0.50828   0.44102   0.00000  Uiso   1.00
C351   C     0.73185   0.51516   0.49618   0.00000  Uiso   1.00
C352   C     0.76577   0.50978   0.02102   0.00000  Uiso   1.00
C353   C     0.81202   0.49449   0.49140   0.00000  Uiso   1.00
C354   C     0.82104   0.48044   0.43792   0.00000  Uiso   1.00
C355   C     0.84913   0.49164   0.01341   0.00000  Uiso   1.00
C356   C     0.89253   0.47135   0.48419   0.00000  Uiso   1.00
C357   C     0.89803   0.45285   0.43461   0.00000  Uiso   1.00
C358   C     0.86159   0.45491   0.41279   0.00000  Uiso   1.00
C359   C     0.84405   0.50782   0.06427   0.00000  Uiso   1.00
C360   C     0.92012   0.47928   0.06015   0.00000  Uiso   1.00
C361   C     0.78949   0.49305   0.41107   0.00000  Uiso   1.00
H362   H     0.81333   0.52591   0.08690   0.00000  Uiso   1.00
H363   H     0.71885   0.51649   0.42146   0.00000  Uiso   1.00
H364   H     0.75423   0.51685   0.06364   0.00000  Uiso   1.00
H365   H     0.69671   0.52677   0.01928   0.00000  Uiso   1.00
C366   C     0.80133   0.64586   0.29667   0.00000  Uiso   1.00
C367   C     0.79904   0.35544   0.29208   0.00000  Uiso   1.00
H368   H     0.77311   0.37317   0.32368   0.00000  Uiso   1.00
C369   C     0.83255   0.37603   0.24857   0.00000  Uiso   1.00
C370   C     0.86676   0.35469   0.20729   0.00000  Uiso   1.00
H371   H     0.89266   0.37135   0.17379   0.00000  Uiso   1.00
C372   C     0.86654   0.64488   0.20889   0.00000  Uiso   1.00
H373   H     0.89179   0.62768   0.17596   0.00000  Uiso   1.00
C374   C     0.83370   0.62410   0.25311   0.00000  Uiso   1.00
C375   C     0.98121   0.46765   0.22823   0.00000  Uiso   1.00
H376   H     0.96639   0.44203   0.21174   0.00000  Uiso   1.00
C377   C     0.69563   0.46706   0.22731   0.00000  Uiso   1.00
N378   N     0.71426   0.50001   0.25002   0.00000  Uiso   1.00
C379   C     0.68467   0.53291   0.27099   0.00000  Uiso   1.00
H380   H     0.69786   0.55959   0.28703   0.00000  Uiso   1.00
C381   C     0.97021   0.53280   0.27131   0.00000  Uiso   1.00
H382   H     0.94755   0.55920   0.28850   0.00000  Uiso   1.00
N383   N     0.95239   0.49998   0.25001   0.00000  Uiso   1.00
S384   S     0.72608   0.42025   0.19809   0.00000  Uiso   1.00
O385   O     0.72576   0.39106   0.24294   0.00000  Uiso   1.00
O386   O     0.69972   0.39816   0.16591   0.00000  Uiso   1.00
O387   O     0.78243   0.42831   0.15602   0.00000  Uiso   1.00
H388   H     0.77930   0.43825   0.12176   0.00000  Uiso   1.00
N389   N     0.86241   0.42583   0.37072   0.00000  Uiso   1.00
O390   O     0.90292   0.41253   0.33704   0.00000  Uiso   1.00
O391   O     0.82313   0.40612   0.37340   0.00000  Uiso   1.00
S392   S     0.76920   0.62182   0.35964   0.00000  Uiso   1.00
O393   O     0.80120   0.59186   0.37447   0.00000  Uiso   1.00
O394   O     0.75257   0.65466   0.40307   0.00000  Uiso   1.00
O395   O     0.72135   0.59556   0.35545   0.00000  Uiso   1.00
H396   H     0.70198   0.58817   0.39329   0.00000  Uiso   1.00
O397   O     0.12846   0.89442   0.25000   0.00000  Uiso   1.00
O398   O     0.20490   0.89441   0.25000   0.00000  Uiso   1.00
C399   C     0.16649   0.91319   0.25182   0.00000  Uiso   1.00
O400   O     0.10947   0.83333   0.32681   0.00000  Uiso   1.00
O401   O     0.18591   0.83332   0.32681   0.00000  Uiso   1.00
C402   C     0.14003   0.83053   0.35199   0.00000  Uiso   1.00
Zn403  Zn    0.11562   0.83334   0.25000   0.00000  Uiso   1.00
Zn404  Zn    0.21771   0.83333   0.25000   0.00000  Uiso   1.00
O405   O     0.12843   0.77226   0.25000   0.00000  Uiso   1.00
O406   O     0.20488   0.77225   0.25000   0.00000  Uiso   1.00
O407   O     0.14742   0.83335   0.17319   0.00000  Uiso   1.00
O408   O     0.22387   0.83334   0.17319   0.00000  Uiso   1.00
C409   C     0.16678   0.75349   0.24847   0.00000  Uiso   1.00
C410   C     0.19339   0.83418   0.14799   0.00000  Uiso   1.00
C411   C     0.26184   0.80019   0.00695   0.00000  Uiso   1.00
H412   H     0.27940   0.80537   0.07919   0.00000  Uiso   1.00
H413   H     0.26273   0.76755   0.41466   0.00000  Uiso   1.00
H414   H     0.29499   0.78456   0.48498   0.00000  Uiso   1.00
C415   C     0.21004   0.83141   0.08940   0.00000  Uiso   1.00
C416   C     0.07745   0.84162   0.44102   0.00000  Uiso   1.00
C417   C     0.06519   0.84849   0.49618   0.00000  Uiso   1.00
C418   C     0.09911   0.84312   0.02102   0.00000  Uiso   1.00
C419   C     0.14535   0.82782   0.49140   0.00000  Uiso   1.00
C420   C     0.15437   0.81378   0.43792   0.00000  Uiso   1.00
C421   C     0.18247   0.82498   0.01341   0.00000  Uiso   1.00
C422   C     0.22586   0.80468   0.48419   0.00000  Uiso   1.00
C423   C     0.23136   0.78618   0.43461   0.00000  Uiso   1.00
C424   C     0.19492   0.78824   0.41279   0.00000  Uiso   1.00
C425   C     0.17739   0.84115   0.06427   0.00000  Uiso   1.00
C426   C     0.25345   0.81262   0.06015   0.00000  Uiso   1.00
C427   C     0.12282   0.82638   0.41107   0.00000  Uiso   1.00
H428   H     0.14666   0.85925   0.08690   0.00000  Uiso   1.00
H429   H     0.05219   0.84982   0.42146   0.00000  Uiso   1.00
H430   H     0.08756   0.85018   0.06364   0.00000  Uiso   1.00
H431   H     0.03004   0.86011   0.01928   0.00000  Uiso   1.00
C432   C     0.13466   0.97919   0.29667   0.00000  Uiso   1.00
C433   C     0.13238   0.68877   0.29208   0.00000  Uiso   1.00
H434   H     0.10644   0.70651   0.32368   0.00000  Uiso   1.00
C435   C     0.16588   0.70936   0.24857   0.00000  Uiso   1.00
C436   C     0.20009   0.68802   0.20729   0.00000  Uiso   1.00
H437   H     0.22600   0.70468   0.17379   0.00000  Uiso   1.00
C438   C     0.19987   0.97821   0.20889   0.00000  Uiso   1.00
H439   H     0.22512   0.96102   0.17596   0.00000  Uiso   1.00
C440   C     0.16703   0.95743   0.25311   0.00000  Uiso   1.00
C441   C     0.31454   0.80099   0.22823   0.00000  Uiso   1.00
H442   H     0.29972   0.77537   0.21174   0.00000  Uiso   1.00
C443   C     0.02897   0.80039   0.22731   0.00000  Uiso   1.00
N444   N     0.04760   0.83334   0.25002   0.00000  Uiso   1.00
C445   C     0.01800   0.86624   0.27099   0.00000  Uiso   1.00
H446   H     0.03119   0.89293   0.28703   0.00000  Uiso   1.00
C447   C     0.30354   0.86613   0.27131   0.00000  Uiso   1.00
H448   H     0.28089   0.89253   0.28850   0.00000  Uiso   1.00
N449   N     0.28573   0.83331   0.25001   0.00000  Uiso   1.00
S450   S     0.05942   0.75359   0.19809   0.00000  Uiso   1.00
O451   O     0.05909   0.72439   0.24294   0.00000  Uiso   1.00
O452   O     0.03306   0.73149   0.16591   0.00000  Uiso   1.00
O453   O     0.11577   0.76164   0.15602   0.00000  Uiso   1.00
H454   H     0.11263   0.77158   0.12176   0.00000  Uiso   1.00
N455   N     0.19574   0.75917   0.37072   0.00000  Uiso   1.00
O456   O     0.23625   0.74587   0.33704   0.00000  Uiso   1.00
O457   O     0.15647   0.73946   0.37340   0.00000  Uiso   1.00
S458   S     0.10253   0.95515   0.35964   0.00000  Uiso   1.00
O459   O     0.13454   0.92519   0.37447   0.00000  Uiso   1.00
O460   O     0.08591   0.98799   0.40307   0.00000  Uiso   1.00
O461   O     0.05468   0.92889   0.35545   0.00000  Uiso   1.00
H462   H     0.03532   0.92150   0.39329   0.00000  Uiso   1.00
O463   O     0.46179   0.89442   0.25000   0.00000  Uiso   1.00
O464   O     0.53823   0.89441   0.25000   0.00000  Uiso   1.00
C465   C     0.49982   0.91319   0.25182   0.00000  Uiso   1.00
O466   O     0.44280   0.83333   0.32681   0.00000  Uiso   1.00
O467   O     0.51924   0.83332   0.32681   0.00000  Uiso   1.00
C468   C     0.47337   0.83053   0.35199   0.00000  Uiso   1.00
Zn469  Zn    0.44896   0.83334   0.25000   0.00000  Uiso   1.00
Zn470  Zn    0.55104   0.83333   0.25000   0.00000  Uiso   1.00
O471   O     0.46177   0.77226   0.25000   0.00000  Uiso   1.00
O472   O     0.53821   0.77225   0.25000   0.00000  Uiso   1.00
O473   O     0.48076   0.83335   0.17319   0.00000  Uiso   1.00
O474   O     0.55720   0.83334   0.17319   0.00000  Uiso   1.00
C475   C     0.50011   0.75349   0.24847   0.00000  Uiso   1.00
C476   C     0.52673   0.83418   0.14799   0.00000  Uiso   1.00
C477   C     0.59517   0.80019   0.00695   0.00000  Uiso   1.00
H478   H     0.61273   0.80537   0.07919   0.00000  Uiso   1.00
H479   H     0.59606   0.76755   0.41466   0.00000  Uiso   1.00
H480   H     0.62832   0.78456   0.48498   0.00000  Uiso   1.00
C481   C     0.54337   0.83141   0.08940   0.00000  Uiso   1.00
C482   C     0.41079   0.84162   0.44102   0.00000  Uiso   1.00
C483   C     0.39852   0.84849   0.49618   0.00000  Uiso   1.00
C484   C     0.43244   0.84312   0.02102   0.00000  Uiso   1.00
C485   C     0.47868   0.82782   0.49140   0.00000  Uiso   1.00
C486   C     0.48770   0.81378   0.43792   0.00000  Uiso   1.00
C487   C     0.51580   0.82498   0.01341   0.00000  Uiso   1.00
C488   C     0.55919   0.80468   0.48419   0.00000  Uiso   1.00
C489   C     0.56470   0.78618   0.43461   0.00000  Uiso   1.00
C490   C     0.52826   0.78824   0.41279   0.00000  Uiso   1.00
C491   C     0.51072   0.84115   0.06427   0.00000  Uiso   1.00
C492   C     0.58678   0.81262   0.06015   0.00000  Uiso   1.00
C493   C     0.45616   0.82638   0.41107   0.00000  Uiso   1.00
H494   H     0.48000   0.85925   0.08690   0.00000  Uiso   1.00
H495   H     0.38552   0.84982   0.42146   0.00000  Uiso   1.00
H496   H     0.42090   0.85018   0.06364   0.00000  Uiso   1.00
H497   H     0.36337   0.86011   0.01928   0.00000  Uiso   1.00
C498   C     0.46799   0.97919   0.29667   0.00000  Uiso   1.00
C499   C     0.46571   0.68877   0.29208   0.00000  Uiso   1.00
H500   H     0.43977   0.70651   0.32368   0.00000  Uiso   1.00
C501   C     0.49922   0.70936   0.24857   0.00000  Uiso   1.00
C502   C     0.53342   0.68802   0.20729   0.00000  Uiso   1.00
H503   H     0.55933   0.70468   0.17379   0.00000  Uiso   1.00
C504   C     0.53321   0.97821   0.20889   0.00000  Uiso   1.00
H505   H     0.55845   0.96102   0.17596   0.00000  Uiso   1.00
C506   C     0.50036   0.95743   0.25311   0.00000  Uiso   1.00
C507   C     0.64787   0.80099   0.22823   0.00000  Uiso   1.00
H508   H     0.63306   0.77537   0.21174   0.00000  Uiso   1.00
C509   C     0.36230   0.80039   0.22731   0.00000  Uiso   1.00
N510   N     0.38093   0.83334   0.25002   0.00000  Uiso   1.00
C511   C     0.35134   0.86624   0.27099   0.00000  Uiso   1.00
H512   H     0.36453   0.89293   0.28703   0.00000  Uiso   1.00
C513   C     0.63687   0.86613   0.27131   0.00000  Uiso   1.00
H514   H     0.61422   0.89253   0.28850   0.00000  Uiso   1.00
N515   N     0.61906   0.83331   0.25001   0.00000  Uiso   1.00
S516   S     0.39275   0.75359   0.19809   0.00000  Uiso   1.00
O517   O     0.39242   0.72439   0.24294   0.00000  Uiso   1.00
O518   O     0.36639   0.73149   0.16591   0.00000  Uiso   1.00
O519   O     0.44910   0.76164   0.15602   0.00000  Uiso   1.00
H520   H     0.44597   0.77158   0.12176   0.00000  Uiso   1.00
N521   N     0.52908   0.75917   0.37072   0.00000  Uiso   1.00
O522   O     0.56959   0.74587   0.33704   0.00000  Uiso   1.00
O523   O     0.48980   0.73946   0.37340   0.00000  Uiso   1.00
S524   S     0.43586   0.95515   0.35964   0.00000  Uiso   1.00
O525   O     0.46787   0.92519   0.37447   0.00000  Uiso   1.00
O526   O     0.41924   0.98799   0.40307   0.00000  Uiso   1.00
O527   O     0.38802   0.92889   0.35545   0.00000  Uiso   1.00
H528   H     0.36865   0.92150   0.39329   0.00000  Uiso   1.00
O529   O     0.79512   0.89442   0.25000   0.00000  Uiso   1.00
O530   O     0.87157   0.89441   0.25000   0.00000  Uiso   1.00
C531   C     0.83315   0.91319   0.25182   0.00000  Uiso   1.00
O532   O     0.77613   0.83333   0.32681   0.00000  Uiso   1.00
O533   O     0.85258   0.83332   0.32681   0.00000  Uiso   1.00
C534   C     0.80670   0.83053   0.35199   0.00000  Uiso   1.00
Zn535  Zn    0.78229   0.83334   0.25000   0.00000  Uiso   1.00
Zn536  Zn    0.88438   0.83333   0.25000   0.00000  Uiso   1.00
O537   O     0.79510   0.77226   0.25000   0.00000  Uiso   1.00
O538   O     0.87154   0.77225   0.25000   0.00000  Uiso   1.00
O539   O     0.81409   0.83335   0.17319   0.00000  Uiso   1.00
O540   O     0.89053   0.83334   0.17319   0.00000  Uiso   1.00
C541   C     0.83344   0.75349   0.24847   0.00000  Uiso   1.00
C542   C     0.86006   0.83418   0.14799   0.00000  Uiso   1.00
C543   C     0.92851   0.80019   0.00695   0.00000  Uiso   1.00
H544   H     0.94607   0.80537   0.07919   0.00000  Uiso   1.00
H545   H     0.92939   0.76755   0.41466   0.00000  Uiso   1.00
H546   H     0.96166   0.78456   0.48498   0.00000  Uiso   1.00
C547   C     0.87671   0.83141   0.08940   0.00000  Uiso   1.00
C548   C     0.74412   0.84162   0.44102   0.00000  Uiso   1.00
C549   C     0.73185   0.84849   0.49618   0.00000  Uiso   1.00
C550   C     0.76577   0.84312   0.02102   0.00000  Uiso   1.00
C551   C     0.81202   0.82782   0.49140   0.00000  Uiso   1.00
C552   C     0.82104   0.81378   0.43792   0.00000  Uiso   1.00
C553   C     0.84913   0.82498   0.01341   0.00000  Uiso   1.00
C554   C     0.89253   0.80468   0.48419   0.00000  Uiso   1.00
C555   C     0.89803   0.78618   0.43461   0.00000  Uiso   1.00
C556   C     0.86159   0.78824   0.41279   0.00000  Uiso   1.00
C557   C     0.84405   0.84115   0.06427   0.00000  Uiso   1.00
C558   C     0.92012   0.81262   0.06015   0.00000  Uiso   1.00
C559   C     0.78949   0.82638   0.41107   0.00000  Uiso   1.00
H560   H     0.81333   0.85925   0.08690   0.00000  Uiso   1.00
H561   H     0.71885   0.84982   0.42146   0.00000  Uiso   1.00
H562   H     0.75423   0.85018   0.06364   0.00000  Uiso   1.00
H563   H     0.69671   0.86011   0.01928   0.00000  Uiso   1.00
C564   C     0.80133   0.97919   0.29667   0.00000  Uiso   1.00
C565   C     0.79904   0.68877   0.29208   0.00000  Uiso   1.00
H566   H     0.77311   0.70651   0.32368   0.00000  Uiso   1.00
C567   C     0.83255   0.70936   0.24857   0.00000  Uiso   1.00
C568   C     0.86676   0.68802   0.20729   0.00000  Uiso   1.00
H569   H     0.89266   0.70468   0.17379   0.00000  Uiso   1.00
C570   C     0.86654   0.97821   0.20889   0.00000  Uiso   1.00
H571   H     0.89179   0.96102   0.17596   0.00000  Uiso   1.00
C572   C     0.83370   0.95743   0.25311   0.00000  Uiso   1.00
C573   C     0.98121   0.80099   0.22823   0.00000  Uiso   1.00
H574   H     0.96639   0.77537   0.21174   0.00000  Uiso   1.00
C575   C     0.69563   0.80039   0.22731   0.00000  Uiso   1.00
N576   N     0.71426   0.83334   0.25002   0.00000  Uiso   1.00
C577   C     0.68467   0.86624   0.27099   0.00000  Uiso   1.00
H578   H     0.69786   0.89293   0.28703   0.00000  Uiso   1.00
C579   C     0.97021   0.86613   0.27131   0.00000  Uiso   1.00
H580   H     0.94755   0.89253   0.28850   0.00000  Uiso   1.00
N581   N     0.95239   0.83331   0.25001   0.00000  Uiso   1.00
S582   S     0.72608   0.75359   0.19809   0.00000  Uiso   1.00
O583   O     0.72576   0.72439   0.24294   0.00000  Uiso   1.00
O584   O     0.69972   0.73149   0.16591   0.00000  Uiso   1.00
O585   O     0.78243   0.76164   0.15602   0.00000  Uiso   1.00
H586   H     0.77930   0.77158   0.12176   0.00000  Uiso   1.00
N587   N     0.86241   0.75917   0.37072   0.00000  Uiso   1.00
O588   O     0.90292   0.74587   0.33704   0.00000  Uiso   1.00
O589   O     0.82313   0.73946   0.37340   0.00000  Uiso   1.00
S590   S     0.76920   0.95515   0.35964   0.00000  Uiso   1.00
O591   O     0.80120   0.92519   0.37447   0.00000  Uiso   1.00
O592   O     0.75257   0.98799   0.40307   0.00000  Uiso   1.00
O593   O     0.72135   0.92889   0.35545   0.00000  Uiso   1.00
H594   H     0.70198   0.92150   0.39329   0.00000  Uiso   1.00
O595   O     0.12846   0.22775   0.75000   0.00000  Uiso   1.00
O596   O     0.20490   0.22774   0.75000   0.00000  Uiso   1.00
C597   C     0.16649   0.24652   0.75182   0.00000  Uiso   1.00
O598   O     0.10947   0.16666   0.82681   0.00000  Uiso   1.00
O599   O     0.18591   0.16665   0.82681   0.00000  Uiso   1.00
C600   C     0.14003   0.16386   0.85199   0.00000  Uiso   1.00
Zn601  Zn    0.11562   0.16667   0.75000   0.00000  Uiso   1.00
Zn602  Zn    0.21771   0.16666   0.75000   0.00000  Uiso   1.00
O603   O     0.12843   0.10559   0.75000   0.00000  Uiso   1.00
O604   O     0.20488   0.10558   0.75000   0.00000  Uiso   1.00
O605   O     0.14742   0.16668   0.67319   0.00000  Uiso   1.00
O606   O     0.22387   0.16667   0.67319   0.00000  Uiso   1.00
C607   C     0.16678   0.08682   0.74847   0.00000  Uiso   1.00
C608   C     0.19339   0.16752   0.64799   0.00000  Uiso   1.00
C609   C     0.26184   0.13352   0.50695   0.00000  Uiso   1.00
H610   H     0.27940   0.13870   0.57919   0.00000  Uiso   1.00
H611   H     0.26273   0.10088   0.91466   0.00000  Uiso   1.00
H612   H     0.29499   0.11790   0.98498   0.00000  Uiso   1.00
C613   C     0.21004   0.16474   0.58940   0.00000  Uiso   1.00
C614   C     0.07745   0.17495   0.94102   0.00000  Uiso   1.00
C615   C     0.06519   0.18183   0.99618   0.00000  Uiso   1.00
C616   C     0.09911   0.17645   0.52102   0.00000  Uiso   1.00
C617   C     0.14535   0.16115   0.99140   0.00000  Uiso   1.00
C618   C     0.15437   0.14711   0.93792   0.00000  Uiso   1.00
C619   C     0.18247   0.15831   0.51341   0.00000  Uiso   1.00
C620   C     0.22586   0.13801   0.98419   0.00000  Uiso   1.00
C621   C     0.23136   0.11951   0.93461   0.00000  Uiso   1.00
C622   C     0.19492   0.12158   0.91279   0.00000  Uiso   1.00
C623   C     0.17739   0.17448   0.56427   0.00000  Uiso   1.00
C624   C     0.25345   0.14595   0.56015   0.00000  Uiso   1.00
C625   C     0.12282   0.15972   0.91107   0.00000  Uiso   1.00
H626   H     0.14666   0.19258   0.58690   0.00000  Uiso   1.00
H627   H     0.05219   0.18315   0.92146   0.00000  Uiso   1.00
H628   H     0.08756   0.18351   0.56364   0.00000  Uiso   1.00
H629   H     0.03004   0.19344   0.51928   0.00000  Uiso   1.00
C630   C     0.13466   0.31252   0.79667   0.00000  Uiso   1.00
C631   C     0.13238   0.02211   0.79208   0.00000  Uiso   1.00
H632   H     0.10644   0.03984   0.82368   0.00000  Uiso   1.00
C633   C     0.16588   0.04269   0.74857   0.00000  Uiso   1.00
C634   C     0.20009   0.02135   0.70729   0.00000  Uiso   1.00
H635   H     0.22600   0.03802   0.67379   0.00000  Uiso   1.00
C636   C     0.19987   0.31155   0.70889   0.00000  Uiso   1.00
H637   H     0.22512   0.29435   0.67596   0.00000  Uiso   1.00
C638   C     0.16703   0.29076   0.75311   0.00000  Uiso   1.00
C639   C     0.31454   0.13432   0.72823   0.00000  Uiso   1.00
H640   H     0.29972   0.10870   0.71174   0.00000  Uiso   1.00
C641   C     0.02897   0.13373   0.72731   0.00000  Uiso   1.00
N642   N     0.04760   0.16668   0.75002   0.00000  Uiso   1.00
C643   C     0.01800   0.19958   0.77099   0.00000  Uiso   1.00
H644   H     0.03119   0.22626   0.78703   0.00000  Uiso   1.00
C645   C     0.30354   0.19947   0.77131   0.00000  Uiso   1.00
H646   H     0.28089   0.22587   0.78850   0.00000  Uiso   1.00
N647   N     0.28573   0.16665   0.75001   0.00000  Uiso   1.00
S648   S     0.05942   0.08692   0.69809   0.00000  Uiso   1.00
O649   O     0.05909   0.05772   0.74294   0.00000  Uiso   1.00
O650   O     0.03306   0.06483   0.66591   0.00000  Uiso   1.00
O651   O     0.11577   0.09498   0.65602   0.00000  Uiso   1.00
H652   H     0.11263   0.10491   0.62176   0.00000  Uiso   1.00
N653   N     0.19574   0.09250   0.87072   0.00000  Uiso   1.00
O654   O     0.23625   0.07920   0.83704   0.00000  Uiso   1.00
O655   O     0.15647   0.07279   0.87340   0.00000  Uiso   1.00
S656   S     0.10253   0.28848   0.85964   0.00000  Uiso   1.00
O657   O     0.13454   0.25852   0.87447   0.00000  Uiso   1.00
O658   O     0.08591   0.32133   0.90307   0.00000  Uiso   1.00
O659   O     0.05468   0.26223   0.85545   0.00000  Uiso   1.00
H660   H     0.03532   0.25483   0.89329   0.00000  Uiso   1.00
O661   O     0.46179   0.22775   0.75000   0.00000  Uiso   1.00
O662   O     0.53823   0.22774   0.75000   0.00000  Uiso   1.00
C663   C     0.49982   0.24652   0.75182   0.00000  Uiso   1.00
O664   O     0.44280   0.16666   0.82681   0.00000  Uiso   1.00
O665   O     0.51924   0.16665   0.82681   0.00000  Uiso   1.00
C666   C     0.47337   0.16386   0.85199   0.00000  Uiso   1.00
Zn667  Zn    0.44896   0.16667   0.75000   0.00000  Uiso   1.00
Zn668  Zn    0.55104   0.16666   0.75000   0.00000  Uiso   1.00
O669   O     0.46177   0.10559   0.75000   0.00000  Uiso   1.00
O670   O     0.53821   0.10558   0.75000   0.00000  Uiso   1.00
O671   O     0.48076   0.16668   0.67319   0.00000  Uiso   1.00
O672   O     0.55720   0.16667   0.67319   0.00000  Uiso   1.00
C673   C     0.50011   0.08682   0.74847   0.00000  Uiso   1.00
C674   C     0.52673   0.16752   0.64799   0.00000  Uiso   1.00
C675   C     0.59517   0.13352   0.50695   0.00000  Uiso   1.00
H676   H     0.61273   0.13870   0.57919   0.00000  Uiso   1.00
H677   H     0.59606   0.10088   0.91466   0.00000  Uiso   1.00
H678   H     0.62832   0.11790   0.98498   0.00000  Uiso   1.00
C679   C     0.54337   0.16474   0.58940   0.00000  Uiso   1.00
C680   C     0.41079   0.17495   0.94102   0.00000  Uiso   1.00
C681   C     0.39852   0.18183   0.99618   0.00000  Uiso   1.00
C682   C     0.43244   0.17645   0.52102   0.00000  Uiso   1.00
C683   C     0.47868   0.16115   0.99140   0.00000  Uiso   1.00
C684   C     0.48770   0.14711   0.93792   0.00000  Uiso   1.00
C685   C     0.51580   0.15831   0.51341   0.00000  Uiso   1.00
C686   C     0.55919   0.13801   0.98419   0.00000  Uiso   1.00
C687   C     0.56470   0.11951   0.93461   0.00000  Uiso   1.00
C688   C     0.52826   0.12158   0.91279   0.00000  Uiso   1.00
C689   C     0.51072   0.17448   0.56427   0.00000  Uiso   1.00
C690   C     0.58678   0.14595   0.56015   0.00000  Uiso   1.00
C691   C     0.45616   0.15972   0.91107   0.00000  Uiso   1.00
H692   H     0.48000   0.19258   0.58690   0.00000  Uiso   1.00
H693   H     0.38552   0.18315   0.92146   0.00000  Uiso   1.00
H694   H     0.42090   0.18351   0.56364   0.00000  Uiso   1.00
H695   H     0.36337   0.19344   0.51928   0.00000  Uiso   1.00
C696   C     0.46799   0.31252   0.79667   0.00000  Uiso   1.00
C697   C     0.46571   0.02211   0.79208   0.00000  Uiso   1.00
H698   H     0.43977   0.03984   0.82368   0.00000  Uiso   1.00
C699   C     0.49922   0.04269   0.74857   0.00000  Uiso   1.00
C700   C     0.53342   0.02135   0.70729   0.00000  Uiso   1.00
H701   H     0.55933   0.03802   0.67379   0.00000  Uiso   1.00
C702   C     0.53321   0.31155   0.70889   0.00000  Uiso   1.00
H703   H     0.55845   0.29435   0.67596   0.00000  Uiso   1.00
C704   C     0.50036   0.29076   0.75311   0.00000  Uiso   1.00
C705   C     0.64787   0.13432   0.72823   0.00000  Uiso   1.00
H706   H     0.63306   0.10870   0.71174   0.00000  Uiso   1.00
C707   C     0.36230   0.13373   0.72731   0.00000  Uiso   1.00
N708   N     0.38093   0.16668   0.75002   0.00000  Uiso   1.00
C709   C     0.35134   0.19958   0.77099   0.00000  Uiso   1.00
H710   H     0.36453   0.22626   0.78703   0.00000  Uiso   1.00
C711   C     0.63687   0.19947   0.77131   0.00000  Uiso   1.00
H712   H     0.61422   0.22587   0.78850   0.00000  Uiso   1.00
N713   N     0.61906   0.16665   0.75001   0.00000  Uiso   1.00
S714   S     0.39275   0.08692   0.69809   0.00000  Uiso   1.00
O715   O     0.39242   0.05772   0.74294   0.00000  Uiso   1.00
O716   O     0.36639   0.06483   0.66591   0.00000  Uiso   1.00
O717   O     0.44910   0.09498   0.65602   0.00000  Uiso   1.00
H718   H     0.44597   0.10491   0.62176   0.00000  Uiso   1.00
N719   N     0.52908   0.09250   0.87072   0.00000  Uiso   1.00
O720   O     0.56959   0.07920   0.83704   0.00000  Uiso   1.00
O721   O     0.48980   0.07279   0.87340   0.00000  Uiso   1.00
S722   S     0.43586   0.28848   0.85964   0.00000  Uiso   1.00
O723   O     0.46787   0.25852   0.87447   0.00000  Uiso   1.00
O724   O     0.41924   0.32133   0.90307   0.00000  Uiso   1.00
O725   O     0.38802   0.26223   0.85545   0.00000  Uiso   1.00
H726   H     0.36865   0.25483   0.89329   0.00000  Uiso   1.00
O727   O     0.79512   0.22775   0.75000   0.00000  Uiso   1.00
O728   O     0.87157   0.22774   0.75000   0.00000  Uiso   1.00
C729   C     0.83315   0.24652   0.75182   0.00000  Uiso   1.00
O730   O     0.77613   0.16666   0.82681   0.00000  Uiso   1.00
O731   O     0.85258   0.16665   0.82681   0.00000  Uiso   1.00
C732   C     0.80670   0.16386   0.85199   0.00000  Uiso   1.00
Zn733  Zn    0.78229   0.16667   0.75000   0.00000  Uiso   1.00
Zn734  Zn    0.88438   0.16666   0.75000   0.00000  Uiso   1.00
O735   O     0.79510   0.10559   0.75000   0.00000  Uiso   1.00
O736   O     0.87154   0.10558   0.75000   0.00000  Uiso   1.00
O737   O     0.81409   0.16668   0.67319   0.00000  Uiso   1.00
O738   O     0.89053   0.16667   0.67319   0.00000  Uiso   1.00
C739   C     0.83344   0.08682   0.74847   0.00000  Uiso   1.00
C740   C     0.86006   0.16752   0.64799   0.00000  Uiso   1.00
C741   C     0.92851   0.13352   0.50695   0.00000  Uiso   1.00
H742   H     0.94607   0.13870   0.57919   0.00000  Uiso   1.00
H743   H     0.92939   0.10088   0.91466   0.00000  Uiso   1.00
H744   H     0.96166   0.11790   0.98498   0.00000  Uiso   1.00
C745   C     0.87671   0.16474   0.58940   0.00000  Uiso   1.00
C746   C     0.74412   0.17495   0.94102   0.00000  Uiso   1.00
C747   C     0.73185   0.18183   0.99618   0.00000  Uiso   1.00
C748   C     0.76577   0.17645   0.52102   0.00000  Uiso   1.00
C749   C     0.81202   0.16115   0.99140   0.00000  Uiso   1.00
C750   C     0.82104   0.14711   0.93792   0.00000  Uiso   1.00
C751   C     0.84913   0.15831   0.51341   0.00000  Uiso   1.00
C752   C     0.89253   0.13801   0.98419   0.00000  Uiso   1.00
C753   C     0.89803   0.11951   0.93461   0.00000  Uiso   1.00
C754   C     0.86159   0.12158   0.91279   0.00000  Uiso   1.00
C755   C     0.84405   0.17448   0.56427   0.00000  Uiso   1.00
C756   C     0.92012   0.14595   0.56015   0.00000  Uiso   1.00
C757   C     0.78949   0.15972   0.91107   0.00000  Uiso   1.00
H758   H     0.81333   0.19258   0.58690   0.00000  Uiso   1.00
H759   H     0.71885   0.18315   0.92146   0.00000  Uiso   1.00
H760   H     0.75423   0.18351   0.56364   0.00000  Uiso   1.00
H761   H     0.69671   0.19344   0.51928   0.00000  Uiso   1.00
C762   C     0.80133   0.31252   0.79667   0.00000  Uiso   1.00
C763   C     0.79904   0.02211   0.79208   0.00000  Uiso   1.00
H764   H     0.77311   0.03984   0.82368   0.00000  Uiso   1.00
C765   C     0.83255   0.04269   0.74857   0.00000  Uiso   1.00
C766   C     0.86676   0.02135   0.70729   0.00000  Uiso   1.00
H767   H     0.89266   0.03802   0.67379   0.00000  Uiso   1.00
C768   C     0.86654   0.31155   0.70889   0.00000  Uiso   1.00
H769   H     0.89179   0.29435   0.67596   0.00000  Uiso   1.00
C770   C     0.83370   0.29076   0.75311   0.00000  Uiso   1.00
C771   C     0.98121   0.13432   0.72823   0.00000  Uiso   1.00
H772   H     0.96639   0.10870   0.71174   0.00000  Uiso   1.00
C773   C     0.69563   0.13373   0.72731   0.00000  Uiso   1.00
N774   N     0.71426   0.16668   0.75002   0.00000  Uiso   1.00
C775   C     0.68467   0.19958   0.77099   0.00000  Uiso   1.00
H776   H     0.69786   0.22626   0.78703   0.00000  Uiso   1.00
C777   C     0.97021   0.19947   0.77131   0.00000  Uiso   1.00
H778   H     0.94755   0.22587   0.78850   0.00000  Uiso   1.00
N779   N     0.95239   0.16665   0.75001   0.00000  Uiso   1.00
S780   S     0.72608   0.08692   0.69809   0.00000  Uiso   1.00
O781   O     0.72576   0.05772   0.74294   0.00000  Uiso   1.00
O782   O     0.69972   0.06483   0.66591   0.00000  Uiso   1.00
O783   O     0.78243   0.09498   0.65602   0.00000  Uiso   1.00
H784   H     0.77930   0.10491   0.62176   0.00000  Uiso   1.00
N785   N     0.86241   0.09250   0.87072   0.00000  Uiso   1.00
O786   O     0.90292   0.07920   0.83704   0.00000  Uiso   1.00
O787   O     0.82313   0.07279   0.87340   0.00000  Uiso   1.00
S788   S     0.76920   0.28848   0.85964   0.00000  Uiso   1.00
O789   O     0.80120   0.25852   0.87447   0.00000  Uiso   1.00
O790   O     0.75257   0.32133   0.90307   0.00000  Uiso   1.00
O791   O     0.72135   0.26223   0.85545   0.00000  Uiso   1.00
H792   H     0.70198   0.25483   0.89329   0.00000  Uiso   1.00
O793   O     0.12846   0.56108   0.75000   0.00000  Uiso   1.00
O794   O     0.20490   0.56107   0.75000   0.00000  Uiso   1.00
C795   C     0.16649   0.57986   0.75182   0.00000  Uiso   1.00
O796   O     0.10947   0.50000   0.82681   0.00000  Uiso   1.00
O797   O     0.18591   0.49999   0.82681   0.00000  Uiso   1.00
C798   C     0.14003   0.49719   0.85199   0.00000  Uiso   1.00
Zn799  Zn    0.11562   0.50001   0.75000   0.00000  Uiso   1.00
Zn800  Zn    0.21771   0.49999   0.75000   0.00000  Uiso   1.00
O801   O     0.12843   0.43893   0.75000   0.00000  Uiso   1.00
O802   O     0.20488   0.43892   0.75000   0.00000  Uiso   1.00
O803   O     0.14742   0.50001   0.67319   0.00000  Uiso   1.00
O804   O     0.22387   0.50000   0.67319   0.00000  Uiso   1.00
C805   C     0.16678   0.42016   0.74847   0.00000  Uiso   1.00
C806   C     0.19339   0.50085   0.64799   0.00000  Uiso   1.00
C807   C     0.26184   0.46686   0.50695   0.00000  Uiso   1.00
H808   H     0.27940   0.47204   0.57919   0.00000  Uiso   1.00
H809   H     0.26273   0.43422   0.91466   0.00000  Uiso   1.00
H810   H     0.29499   0.45123   0.98498   0.00000  Uiso   1.00
C811   C     0.21004   0.49807   0.58940   0.00000  Uiso   1.00
C812   C     0.07745   0.50828   0.94102   0.00000  Uiso   1.00
C813   C     0.06519   0.51516   0.99618   0.00000  Uiso   1.00
C814   C     0.09911   0.50978   0.52102   0.00000  Uiso   1.00
C815   C     0.14535   0.49449   0.99140   0.00000  Uiso   1.00
C816   C     0.15437   0.48044   0.93792   0.00000  Uiso   1.00
C817   C     0.18247   0.49164   0.51341   0.00000  Uiso   1.00
C818   C     0.22586   0.47135   0.98419   0.00000  Uiso   1.00
C819   C     0.23136   0.45285   0.93461   0.00000  Uiso   1.00
C820   C     0.19492   0.45491   0.91279   0.00000  Uiso   1.00
C821   C     0.17739   0.50782   0.56427   0.00000  Uiso   1.00
C822   C     0.25345   0.47928   0.56015   0.00000  Uiso   1.00
C823   C     0.12282   0.49305   0.91107   0.00000  Uiso   1.00
H824   H     0.14666   0.52591   0.58690   0.00000  Uiso   1.00
H825   H     0.05219   0.51649   0.92146   0.00000  Uiso   1.00
H826   H     0.08756   0.51685   0.56364   0.00000  Uiso   1.00
H827   H     0.03004   0.52677   0.51928   0.00000  Uiso   1.00
C828   C     0.13466   0.64586   0.79667   0.00000  Uiso   1.00
C829   C     0.13238   0.35544   0.79208   0.00000  Uiso   1.00
H830   H     0.10644   0.37317   0.82368   0.00000  Uiso   1.00
C831   C     0.16588   0.37603   0.74857   0.00000  Uiso   1.00
C832   C     0.20009   0.35469   0.70729   0.00000  Uiso   1.00
H833   H     0.22600   0.37135   0.67379   0.00000  Uiso   1.00
C834   C     0.19987   0.64488   0.70889   0.00000  Uiso   1.00
H835   H     0.22512   0.62768   0.67596   0.00000  Uiso   1.00
C836   C     0.16703   0.62410   0.75311   0.00000  Uiso   1.00
C837   C     0.31454   0.46765   0.72823   0.00000  Uiso   1.00
H838   H     0.29972   0.44203   0.71174   0.00000  Uiso   1.00
C839   C     0.02897   0.46706   0.72731   0.00000  Uiso   1.00
N840   N     0.04760   0.50001   0.75002   0.00000  Uiso   1.00
C841   C     0.01800   0.53291   0.77099   0.00000  Uiso   1.00
H842   H     0.03119   0.55959   0.78703   0.00000  Uiso   1.00
C843   C     0.30354   0.53280   0.77131   0.00000  Uiso   1.00
H844   H     0.28089   0.55920   0.78850   0.00000  Uiso   1.00
N845   N     0.28573   0.49998   0.75001   0.00000  Uiso   1.00
S846   S     0.05942   0.42025   0.69809   0.00000  Uiso   1.00
O847   O     0.05909   0.39106   0.74294   0.00000  Uiso   1.00
O848   O     0.03306   0.39816   0.66591   0.00000  Uiso   1.00
O849   O     0.11577   0.42831   0.65602   0.00000  Uiso   1.00
H850   H     0.11263   0.43825   0.62176   0.00000  Uiso   1.00
N851   N     0.19574   0.42583   0.87072   0.00000  Uiso   1.00
O852   O     0.23625   0.41253   0.83704   0.00000  Uiso   1.00
O853   O     0.15647   0.40612   0.87340   0.00000  Uiso   1.00
S854   S     0.10253   0.62182   0.85964   0.00000  Uiso   1.00
O855   O     0.13454   0.59186   0.87447   0.00000  Uiso   1.00
O856   O     0.08591   0.65466   0.90307   0.00000  Uiso   1.00
O857   O     0.05468   0.59556   0.85545   0.00000  Uiso   1.00
H858   H     0.03532   0.58817   0.89329   0.00000  Uiso   1.00
O859   O     0.46179   0.56108   0.75000   0.00000  Uiso   1.00
O860   O     0.53823   0.56107   0.75000   0.00000  Uiso   1.00
C861   C     0.49982   0.57986   0.75182   0.00000  Uiso   1.00
O862   O     0.44280   0.50000   0.82681   0.00000  Uiso   1.00
O863   O     0.51924   0.49999   0.82681   0.00000  Uiso   1.00
C864   C     0.47337   0.49719   0.85199   0.00000  Uiso   1.00
Zn865  Zn    0.44896   0.50001   0.75000   0.00000  Uiso   1.00
Zn866  Zn    0.55104   0.49999   0.75000   0.00000  Uiso   1.00
O867   O     0.46177   0.43893   0.75000   0.00000  Uiso   1.00
O868   O     0.53821   0.43892   0.75000   0.00000  Uiso   1.00
O869   O     0.48076   0.50001   0.67319   0.00000  Uiso   1.00
O870   O     0.55720   0.50000   0.67319   0.00000  Uiso   1.00
C871   C     0.50011   0.42016   0.74847   0.00000  Uiso   1.00
C872   C     0.52673   0.50085   0.64799   0.00000  Uiso   1.00
C873   C     0.59517   0.46686   0.50695   0.00000  Uiso   1.00
H874   H     0.61273   0.47204   0.57919   0.00000  Uiso   1.00
H875   H     0.59606   0.43422   0.91466   0.00000  Uiso   1.00
H876   H     0.62832   0.45123   0.98498   0.00000  Uiso   1.00
C877   C     0.54337   0.49807   0.58940   0.00000  Uiso   1.00
C878   C     0.41079   0.50828   0.94102   0.00000  Uiso   1.00
C879   C     0.39852   0.51516   0.99618   0.00000  Uiso   1.00
C880   C     0.43244   0.50978   0.52102   0.00000  Uiso   1.00
C881   C     0.47868   0.49449   0.99140   0.00000  Uiso   1.00
C882   C     0.48770   0.48044   0.93792   0.00000  Uiso   1.00
C883   C     0.51580   0.49164   0.51341   0.00000  Uiso   1.00
C884   C     0.55919   0.47135   0.98419   0.00000  Uiso   1.00
C885   C     0.56470   0.45285   0.93461   0.00000  Uiso   1.00
C886   C     0.52826   0.45491   0.91279   0.00000  Uiso   1.00
C887   C     0.51072   0.50782   0.56427   0.00000  Uiso   1.00
C888   C     0.58678   0.47928   0.56015   0.00000  Uiso   1.00
C889   C     0.45616   0.49305   0.91107   0.00000  Uiso   1.00
H890   H     0.48000   0.52591   0.58690   0.00000  Uiso   1.00
H891   H     0.38552   0.51649   0.92146   0.00000  Uiso   1.00
H892   H     0.42090   0.51685   0.56364   0.00000  Uiso   1.00
H893   H     0.36337   0.52677   0.51928   0.00000  Uiso   1.00
C894   C     0.46799   0.64586   0.79667   0.00000  Uiso   1.00
C895   C     0.46571   0.35544   0.79208   0.00000  Uiso   1.00
H896   H     0.43977   0.37317   0.82368   0.00000  Uiso   1.00
C897   C     0.49922   0.37603   0.74857   0.00000  Uiso   1.00
C898   C     0.53342   0.35469   0.70729   0.00000  Uiso   1.00
H899   H     0.55933   0.37135   0.67379   0.00000  Uiso   1.00
C900   C     0.53321   0.64488   0.70889   0.00000  Uiso   1.00
H901   H     0.55845   0.62768   0.67596   0.00000  Uiso   1.00
C902   C     0.50036   0.62410   0.75311   0.00000  Uiso   1.00
C903   C     0.64787   0.46765   0.72823   0.00000  Uiso   1.00
H904   H     0.63306   0.44203   0.71174   0.00000  Uiso   1.00
C905   C     0.36230   0.46706   0.72731   0.00000  Uiso   1.00
N906   N     0.38093   0.50001   0.75002   0.00000  Uiso   1.00
C907   C     0.35134   0.53291   0.77099   0.00000  Uiso   1.00
H908   H     0.36453   0.55959   0.78703   0.00000  Uiso   1.00
C909   C     0.63687   0.53280   0.77131   0.00000  Uiso   1.00
H910   H     0.61422   0.55920   0.78850   0.00000  Uiso   1.00
N911   N     0.61906   0.49998   0.75001   0.00000  Uiso   1.00
S912   S     0.39275   0.42025   0.69809   0.00000  Uiso   1.00
O913   O     0.39242   0.39106   0.74294   0.00000  Uiso   1.00
O914   O     0.36639   0.39816   0.66591   0.00000  Uiso   1.00
O915   O     0.44910   0.42831   0.65602   0.00000  Uiso   1.00
H916   H     0.44597   0.43825   0.62176   0.00000  Uiso   1.00
N917   N     0.52908   0.42583   0.87072   0.00000  Uiso   1.00
O918   O     0.56959   0.41253   0.83704   0.00000  Uiso   1.00
O919   O     0.48980   0.40612   0.87340   0.00000  Uiso   1.00
S920   S     0.43586   0.62182   0.85964   0.00000  Uiso   1.00
O921   O     0.46787   0.59186   0.87447   0.00000  Uiso   1.00
O922   O     0.41924   0.65466   0.90307   0.00000  Uiso   1.00
O923   O     0.38802   0.59556   0.85545   0.00000  Uiso   1.00
H924   H     0.36865   0.58817   0.89329   0.00000  Uiso   1.00
O925   O     0.79512   0.56108   0.75000   0.00000  Uiso   1.00
O926   O     0.87157   0.56107   0.75000   0.00000  Uiso   1.00
C927   C     0.83315   0.57986   0.75182   0.00000  Uiso   1.00
O928   O     0.77613   0.50000   0.82681   0.00000  Uiso   1.00
O929   O     0.85258   0.49999   0.82681   0.00000  Uiso   1.00
C930   C     0.80670   0.49719   0.85199   0.00000  Uiso   1.00
Zn931  Zn    0.78229   0.50001   0.75000   0.00000  Uiso   1.00
Zn932  Zn    0.88438   0.49999   0.75000   0.00000  Uiso   1.00
O933   O     0.79510   0.43893   0.75000   0.00000  Uiso   1.00
O934   O     0.87154   0.43892   0.75000   0.00000  Uiso   1.00
O935   O     0.81409   0.50001   0.67319   0.00000  Uiso   1.00
O936   O     0.89053   0.50000   0.67319   0.00000  Uiso   1.00
C937   C     0.83344   0.42016   0.74847   0.00000  Uiso   1.00
C938   C     0.86006   0.50085   0.64799   0.00000  Uiso   1.00
C939   C     0.92851   0.46686   0.50695   0.00000  Uiso   1.00
H940   H     0.94607   0.47204   0.57919   0.00000  Uiso   1.00
H941   H     0.92939   0.43422   0.91466   0.00000  Uiso   1.00
H942   H     0.96166   0.45123   0.98498   0.00000  Uiso   1.00
C943   C     0.87671   0.49807   0.58940   0.00000  Uiso   1.00
C944   C     0.74412   0.50828   0.94102   0.00000  Uiso   1.00
C945   C     0.73185   0.51516   0.99618   0.00000  Uiso   1.00
C946   C     0.76577   0.50978   0.52102   0.00000  Uiso   1.00
C947   C     0.81202   0.49449   0.99140   0.00000  Uiso   1.00
C948   C     0.82104   0.48044   0.93792   0.00000  Uiso   1.00
C949   C     0.84913   0.49164   0.51341   0.00000  Uiso   1.00
C950   C     0.89253   0.47135   0.98419   0.00000  Uiso   1.00
C951   C     0.89803   0.45285   0.93461   0.00000  Uiso   1.00
C952   C     0.86159   0.45491   0.91279   0.00000  Uiso   1.00
C953   C     0.84405   0.50782   0.56427   0.00000  Uiso   1.00
C954   C     0.92012   0.47928   0.56015   0.00000  Uiso   1.00
C955   C     0.78949   0.49305   0.91107   0.00000  Uiso   1.00
H956   H     0.81333   0.52591   0.58690   0.00000  Uiso   1.00
H957   H     0.71885   0.51649   0.92146   0.00000  Uiso   1.00
H958   H     0.75423   0.51685   0.56364   0.00000  Uiso   1.00
H959   H     0.69671   0.52677   0.51928   0.00000  Uiso   1.00
C960   C     0.80133   0.64586   0.79667   0.00000  Uiso   1.00
C961   C     0.79904   0.35544   0.79208   0.00000  Uiso   1.00
H962   H     0.77311   0.37317   0.82368   0.00000  Uiso   1.00
C963   C     0.83255   0.37603   0.74857   0.00000  Uiso   1.00
C964   C     0.86676   0.35469   0.70729   0.00000  Uiso   1.00
H965   H     0.89266   0.37135   0.67379   0.00000  Uiso   1.00
C966   C     0.86654   0.64488   0.70889   0.00000  Uiso   1.00
H967   H     0.89179   0.62768   0.67596   0.00000  Uiso   1.00
C968   C     0.83370   0.62410   0.75311   0.00000  Uiso   1.00
C969   C     0.98121   0.46765   0.72823   0.00000  Uiso   1.00
H970   H     0.96639   0.44203   0.71174   0.00000  Uiso   1.00
C971   C     0.69563   0.46706   0.72731   0.00000  Uiso   1.00
N972   N     0.71426   0.50001   0.75002   0.00000  Uiso   1.00
C973   C     0.68467   0.53291   0.77099   0.00000  Uiso   1.00
H974   H     0.69786   0.55959   0.78703   0.00000  Uiso   1.00
C975   C     0.97021   0.53280   0.77131   0.00000  Uiso   1.00
H976   H     0.94755   0.55920   0.78850   0.00000  Uiso   1.00
N977   N     0.95239   0.49998   0.75001   0.00000  Uiso   1.00
S978   S     0.72608   0.42025   0.69809   0.00000  Uiso   1.00
O979   O     0.72576   0.39106   0.74294   0.00000  Uiso   1.00
O980   O     0.69972   0.39816   0.66591   0.00000  Uiso   1.00
O981   O     0.78243   0.42831   0.65602   0.00000  Uiso   1.00
H982   H     0.77930   0.43825   0.62176   0.00000  Uiso   1.00
N983   N     0.86241   0.42583   0.87072   0.00000  Uiso   1.00
O984   O     0.90292   0.41253   0.83704   0.00000  Uiso   1.00
O985   O     0.82313   0.40612   0.87340   0.00000  Uiso   1.00
S986   S     0.76920   0.62182   0.85964   0.00000  Uiso   1.00
O987   O     0.80120   0.59186   0.87447   0.00000  Uiso   1.00
O988   O     0.75257   0.65466   0.90307   0.00000  Uiso   1.00
O989   O     0.72135   0.59556   0.85545   0.00000  Uiso   1.00
H990   H     0.70198   0.58817   0.89329   0.00000  Uiso   1.00
O991   O     0.12846   0.89442   0.75000   0.00000  Uiso   1.00
O992   O     0.20490   0.89441   0.75000   0.00000  Uiso   1.00
C993   C     0.16649   0.91319   0.75182   0.00000  Uiso   1.00
O994   O     0.10947   0.83333   0.82681   0.00000  Uiso   1.00
O995   O     0.18591   0.83332   0.82681   0.00000  Uiso   1.00
C996   C     0.14003   0.83053   0.85199   0.00000  Uiso   1.00
Zn997  Zn    0.11562   0.83334   0.75000   0.00000  Uiso   1.00
Zn998  Zn    0.21771   0.83333   0.75000   0.00000  Uiso   1.00
O999   O     0.12843   0.77226   0.75000   0.00000  Uiso   1.00
O1000  O     0.20488   0.77225   0.75000   0.00000  Uiso   1.00
O1001  O     0.14742   0.83335   0.67319   0.00000  Uiso   1.00
O1002  O     0.22387   0.83334   0.67319   0.00000  Uiso   1.00
C1003  C     0.16678   0.75349   0.74847   0.00000  Uiso   1.00
C1004  C     0.19339   0.83418   0.64799   0.00000  Uiso   1.00
C1005  C     0.26184   0.80019   0.50695   0.00000  Uiso   1.00
H1006  H     0.27940   0.80537   0.57919   0.00000  Uiso   1.00
H1007  H     0.26273   0.76755   0.91466   0.00000  Uiso   1.00
H1008  H     0.29499   0.78456   0.98498   0.00000  Uiso   1.00
C1009  C     0.21004   0.83141   0.58940   0.00000  Uiso   1.00
C1010  C     0.07745   0.84162   0.94102   0.00000  Uiso   1.00
C1011  C     0.06519   0.84849   0.99618   0.00000  Uiso   1.00
C1012  C     0.09911   0.84312   0.52102   0.00000  Uiso   1.00
C1013  C     0.14535   0.82782   0.99140   0.00000  Uiso   1.00
C1014  C     0.15437   0.81378   0.93792   0.00000  Uiso   1.00
C1015  C     0.18247   0.82498   0.51341   0.00000  Uiso   1.00
C1016  C     0.22586   0.80468   0.98419   0.00000  Uiso   1.00
C1017  C     0.23136   0.78618   0.93461   0.00000  Uiso   1.00
C1018  C     0.19492   0.78824   0.91279   0.00000  Uiso   1.00
C1019  C     0.17739   0.84115   0.56427   0.00000  Uiso   1.00
C1020  C     0.25345   0.81262   0.56015   0.00000  Uiso   1.00
C1021  C     0.12282   0.82638   0.91107   0.00000  Uiso   1.00
H1022  H     0.14666   0.85925   0.58690   0.00000  Uiso   1.00
H1023  H     0.05219   0.84982   0.92146   0.00000  Uiso   1.00
H1024  H     0.08756   0.85018   0.56364   0.00000  Uiso   1.00
H1025  H     0.03004   0.86011   0.51928   0.00000  Uiso   1.00
C1026  C     0.13466   0.97919   0.79667   0.00000  Uiso   1.00
C1027  C     0.13238   0.68877   0.79208   0.00000  Uiso   1.00
H1028  H     0.10644   0.70651   0.82368   0.00000  Uiso   1.00
C1029  C     0.16588   0.70936   0.74857   0.00000  Uiso   1.00
C1030  C     0.20009   0.68802   0.70729   0.00000  Uiso   1.00
H1031  H     0.22600   0.70468   0.67379   0.00000  Uiso   1.00
C1032  C     0.19987   0.97821   0.70889   0.00000  Uiso   1.00
H1033  H     0.22512   0.96102   0.67596   0.00000  Uiso   1.00
C1034  C     0.16703   0.95743   0.75311   0.00000  Uiso   1.00
C1035  C     0.31454   0.80099   0.72823   0.00000  Uiso   1.00
H1036  H     0.29972   0.77537   0.71174   0.00000  Uiso   1.00
C1037  C     0.02897   0.80039   0.72731   0.00000  Uiso   1.00
N1038  N     0.04760   0.83334   0.75002   0.00000  Uiso   1.00
C1039  C     0.01800   0.86624   0.77099   0.00000  Uiso   1.00
H1040  H     0.03119   0.89293   0.78703   0.00000  Uiso   1.00
C1041  C     0.30354   0.86613   0.77131   0.00000  Uiso   1.00
H1042  H     0.28089   0.89253   0.78850   0.00000  Uiso   1.00
N1043  N     0.28573   0.83331   0.75001   0.00000  Uiso   1.00
S1044  S     0.05942   0.75359   0.69809   0.00000  Uiso   1.00
O1045  O     0.05909   0.72439   0.74294   0.00000  Uiso   1.00
O1046  O     0.03306   0.73149   0.66591   0.00000  Uiso   1.00
O1047  O     0.11577   0.76164   0.65602   0.00000  Uiso   1.00
H1048  H     0.11263   0.77158   0.62176   0.00000  Uiso   1.00
N1049  N     0.19574   0.75917   0.87072   0.00000  Uiso   1.00
O1050  O     0.23625   0.74587   0.83704   0.00000  Uiso   1.00
O1051  O     0.15647   0.73946   0.87340   0.00000  Uiso   1.00
S1052  S     0.10253   0.95515   0.85964   0.00000  Uiso   1.00
O1053  O     0.13454   0.92519   0.87447   0.00000  Uiso   1.00
O1054  O     0.08591   0.98799   0.90307   0.00000  Uiso   1.00
O1055  O     0.05468   0.92889   0.85545   0.00000  Uiso   1.00
H1056  H     0.03532   0.92150   0.89329   0.00000  Uiso   1.00
O1057  O     0.46179   0.89442   0.75000   0.00000  Uiso   1.00
O1058  O     0.53823   0.89441   0.75000   0.00000  Uiso   1.00
C1059  C     0.49982   0.91319   0.75182   0.00000  Uiso   1.00
O1060  O     0.44280   0.83333   0.82681   0.00000  Uiso   1.00
O1061  O     0.51924   0.83332   0.82681   0.00000  Uiso   1.00
C1062  C     0.47337   0.83053   0.85199   0.00000  Uiso   1.00
Zn1063 Zn    0.44896   0.83334   0.75000   0.00000  Uiso   1.00
Zn1064 Zn    0.55104   0.83333   0.75000   0.00000  Uiso   1.00
O1065  O     0.46177   0.77226   0.75000   0.00000  Uiso   1.00
O1066  O     0.53821   0.77225   0.75000   0.00000  Uiso   1.00
O1067  O     0.48076   0.83335   0.67319   0.00000  Uiso   1.00
O1068  O     0.55720   0.83334   0.67319   0.00000  Uiso   1.00
C1069  C     0.50011   0.75349   0.74847   0.00000  Uiso   1.00
C1070  C     0.52673   0.83418   0.64799   0.00000  Uiso   1.00
C1071  C     0.59517   0.80019   0.50695   0.00000  Uiso   1.00
H1072  H     0.61273   0.80537   0.57919   0.00000  Uiso   1.00
H1073  H     0.59606   0.76755   0.91466   0.00000  Uiso   1.00
H1074  H     0.62832   0.78456   0.98498   0.00000  Uiso   1.00
C1075  C     0.54337   0.83141   0.58940   0.00000  Uiso   1.00
C1076  C     0.41079   0.84162   0.94102   0.00000  Uiso   1.00
C1077  C     0.39852   0.84849   0.99618   0.00000  Uiso   1.00
C1078  C     0.43244   0.84312   0.52102   0.00000  Uiso   1.00
C1079  C     0.47868   0.82782   0.99140   0.00000  Uiso   1.00
C1080  C     0.48770   0.81378   0.93792   0.00000  Uiso   1.00
C1081  C     0.51580   0.82498   0.51341   0.00000  Uiso   1.00
C1082  C     0.55919   0.80468   0.98419   0.00000  Uiso   1.00
C1083  C     0.56470   0.78618   0.93461   0.00000  Uiso   1.00
C1084  C     0.52826   0.78824   0.91279   0.00000  Uiso   1.00
C1085  C     0.51072   0.84115   0.56427   0.00000  Uiso   1.00
C1086  C     0.58678   0.81262   0.56015   0.00000  Uiso   1.00
C1087  C     0.45616   0.82638   0.91107   0.00000  Uiso   1.00
H1088  H     0.48000   0.85925   0.58690   0.00000  Uiso   1.00
H1089  H     0.38552   0.84982   0.92146   0.00000  Uiso   1.00
H1090  H     0.42090   0.85018   0.56364   0.00000  Uiso   1.00
H1091  H     0.36337   0.86011   0.51928   0.00000  Uiso   1.00
C1092  C     0.46799   0.97919   0.79667   0.00000  Uiso   1.00
C1093  C     0.46571   0.68877   0.79208   0.00000  Uiso   1.00
H1094  H     0.43977   0.70651   0.82368   0.00000  Uiso   1.00
C1095  C     0.49922   0.70936   0.74857   0.00000  Uiso   1.00
C1096  C     0.53342   0.68802   0.70729   0.00000  Uiso   1.00
H1097  H     0.55933   0.70468   0.67379   0.00000  Uiso   1.00
C1098  C     0.53321   0.97821   0.70889   0.00000  Uiso   1.00
H1099  H     0.55845   0.96102   0.67596   0.00000  Uiso   1.00
C1100  C     0.50036   0.95743   0.75311   0.00000  Uiso   1.00
C1101  C     0.64787   0.80099   0.72823   0.00000  Uiso   1.00
H1102  H     0.63306   0.77537   0.71174   0.00000  Uiso   1.00
C1103  C     0.36230   0.80039   0.72731   0.00000  Uiso   1.00
N1104  N     0.38093   0.83334   0.75002   0.00000  Uiso   1.00
C1105  C     0.35134   0.86624   0.77099   0.00000  Uiso   1.00
H1106  H     0.36453   0.89293   0.78703   0.00000  Uiso   1.00
C1107  C     0.63687   0.86613   0.77131   0.00000  Uiso   1.00
H1108  H     0.61422   0.89253   0.78850   0.00000  Uiso   1.00
N1109  N     0.61906   0.83331   0.75001   0.00000  Uiso   1.00
S1110  S     0.39275   0.75359   0.69809   0.00000  Uiso   1.00
O1111  O     0.39242   0.72439   0.74294   0.00000  Uiso   1.00
O1112  O     0.36639   0.73149   0.66591   0.00000  Uiso   1.00
O1113  O     0.44910   0.76164   0.65602   0.00000  Uiso   1.00
H1114  H     0.44597   0.77158   0.62176   0.00000  Uiso   1.00
N1115  N     0.52908   0.75917   0.87072   0.00000  Uiso   1.00
O1116  O     0.56959   0.74587   0.83704   0.00000  Uiso   1.00
O1117  O     0.48980   0.73946   0.87340   0.00000  Uiso   1.00
S1118  S     0.43586   0.95515   0.85964   0.00000  Uiso   1.00
O1119  O     0.46787   0.92519   0.87447   0.00000  Uiso   1.00
O1120  O     0.41924   0.98799   0.90307   0.00000  Uiso   1.00
O1121  O     0.38802   0.92889   0.85545   0.00000  Uiso   1.00
H1122  H     0.36865   0.92150   0.89329   0.00000  Uiso   1.00
O1123  O     0.79512   0.89442   0.75000   0.00000  Uiso   1.00
O1124  O     0.87157   0.89441   0.75000   0.00000  Uiso   1.00
C1125  C     0.83315   0.91319   0.75182   0.00000  Uiso   1.00
O1126  O     0.77613   0.83333   0.82681   0.00000  Uiso   1.00
O1127  O     0.85258   0.83332   0.82681   0.00000  Uiso   1.00
C1128  C     0.80670   0.83053   0.85199   0.00000  Uiso   1.00
Zn1129 Zn    0.78229   0.83334   0.75000   0.00000  Uiso   1.00
Zn1130 Zn    0.88438   0.83333   0.75000   0.00000  Uiso   1.00
O1131  O     0.79510   0.77226   0.75000   0.00000  Uiso   1.00
O1132  O     0.87154   0.77225   0.75000   0.00000  Uiso   1.00
O1133  O     0.81409   0.83335   0.67319   0.00000  Uiso   1.00
O1134  O     0.89053   0.83334   0.67319   0.00000  Uiso   1.00
C1135  C     0.83344   0.75349   0.74847   0.00000  Uiso   1.00
C1136  C     0.86006   0.83418   0.64799   0.00000  Uiso   1.00
C1137  C     0.92851   0.80019   0.50695   0.00000  Uiso   1.00
H1138  H     0.94607   0.80537   0.57919   0.00000  Uiso   1.00
H1139  H     0.92939   0.76755   0.91466   0.00000  Uiso   1.00
H1140  H     0.96166   0.78456   0.98498   0.00000  Uiso   1.00
C1141  C     0.87671   0.83141   0.58940   0.00000  Uiso   1.00
C1142  C     0.74412   0.84162   0.94102   0.00000  Uiso   1.00
C1143  C     0.73185   0.84849   0.99618   0.00000  Uiso   1.00
C1144  C     0.76577   0.84312   0.52102   0.00000  Uiso   1.00
C1145  C     0.81202   0.82782   0.99140   0.00000  Uiso   1.00
C1146  C     0.82104   0.81378   0.93792   0.00000  Uiso   1.00
C1147  C     0.84913   0.82498   0.51341   0.00000  Uiso   1.00
C1148  C     0.89253   0.80468   0.98419   0.00000  Uiso   1.00
C1149  C     0.89803   0.78618   0.93461   0.00000  Uiso   1.00
C1150  C     0.86159   0.78824   0.91279   0.00000  Uiso   1.00
C1151  C     0.84405   0.84115   0.56427   0.00000  Uiso   1.00
C1152  C     0.92012   0.81262   0.56015   0.00000  Uiso   1.00
C1153  C     0.78949   0.82638   0.91107   0.00000  Uiso   1.00
H1154  H     0.81333   0.85925   0.58690   0.00000  Uiso   1.00
H1155  H     0.71885   0.84982   0.92146   0.00000  Uiso   1.00
H1156  H     0.75423   0.85018   0.56364   0.00000  Uiso   1.00
H1157  H     0.69671   0.86011   0.51928   0.00000  Uiso   1.00
C1158  C     0.80133   0.97919   0.79667   0.00000  Uiso   1.00
C1159  C     0.79904   0.68877   0.79208   0.00000  Uiso   1.00
H1160  H     0.77311   0.70651   0.82368   0.00000  Uiso   1.00
C1161  C     0.83255   0.70936   0.74857   0.00000  Uiso   1.00
C1162  C     0.86676   0.68802   0.70729   0.00000  Uiso   1.00
H1163  H     0.89266   0.70468   0.67379   0.00000  Uiso   1.00
C1164  C     0.86654   0.97821   0.70889   0.00000  Uiso   1.00
H1165  H     0.89179   0.96102   0.67596   0.00000  Uiso   1.00
C1166  C     0.83370   0.95743   0.75311   0.00000  Uiso   1.00
C1167  C     0.98121   0.80099   0.72823   0.00000  Uiso   1.00
H1168  H     0.96639   0.77537   0.71174   0.00000  Uiso   1.00
C1169  C     0.69563   0.80039   0.72731   0.00000  Uiso   1.00
N1170  N     0.71426   0.83334   0.75002   0.00000  Uiso   1.00
C1171  C     0.68467   0.86624   0.77099   0.00000  Uiso   1.00
H1172  H     0.69786   0.89293   0.78703   0.00000  Uiso   1.00
C1173  C     0.97021   0.86613   0.77131   0.00000  Uiso   1.00
H1174  H     0.94755   0.89253   0.78850   0.00000  Uiso   1.00
N1175  N     0.95239   0.83331   0.75001   0.00000  Uiso   1.00
S1176  S     0.72608   0.75359   0.69809   0.00000  Uiso   1.00
O1177  O     0.72576   0.72439   0.74294   0.00000  Uiso   1.00
O1178  O     0.69972   0.73149   0.66591   0.00000  Uiso   1.00
O1179  O     0.78243   0.76164   0.65602   0.00000  Uiso   1.00
H1180  H     0.77930   0.77158   0.62176   0.00000  Uiso   1.00
N1181  N     0.86241   0.75917   0.87072   0.00000  Uiso   1.00
O1182  O     0.90292   0.74587   0.83704   0.00000  Uiso   1.00
O1183  O     0.82313   0.73946   0.87340   0.00000  Uiso   1.00
S1184  S     0.76920   0.95515   0.85964   0.00000  Uiso   1.00
O1185  O     0.80120   0.92519   0.87447   0.00000  Uiso   1.00
O1186  O     0.75257   0.98799   0.90307   0.00000  Uiso   1.00
O1187  O     0.72135   0.92889   0.85545   0.00000  Uiso   1.00
H1188  H     0.70198   0.92150   0.89329   0.00000  Uiso   1.00
loop_
_geom_bond_atom_site_label_1
_geom_bond_atom_site_label_2
_geom_bond_distance
_geom_bond_site_symmetry_2
_ccdc_geom_bond_type
O1     Zn7     1.976   .     S
O1     C3      1.287   .     A
O2     C3      1.284   .     A
O2     Zn8     1.987   .     S
C3     C44     1.409   .     S
O4     Zn7     1.965   .     S
O4     C6      1.301   .     A
O5     Zn8     1.914   .     S
O5     C6      1.298   .     A
C6     C31     1.465   .     S
Zn7    N48     2.025   .     S
Zn7    O11     1.914   .     S
Zn7    O9      1.987   .     S
Zn8    N53     2.025   .     S
Zn8    O12     1.965   .     S
Zn8    O10     1.976   .     S
O9     C13     1.285   .     A
O10    C13     1.287   .     A
O11    C14     1.299   .     A
O12    C14     1.295   .     A
C13    C39     1.405   .     S
C14    C19     1.450   .     S
C15    C30     1.391   .     A
C15    H612    1.084   1_554 S
C15    C620    1.405   1_554 S
H16    C30     1.083   .     S
H17    C27     1.084   .     S
H18    C609    1.084   .     S
C19    C30     1.398   .     A
C19    C29     1.390   .     A
C20    H33     1.083   .     S
C20    C21     1.386   .     A
C20    C31     1.401   .     A
C21    C616    1.392   .     S
C21    H629    1.083   .     S
C22    H34     1.078   .     S
C22    C615    1.392   1_554 S
C22    C617    1.420   1_554 S
C23    C24     1.411   .     A
C23    C616    1.420   .     S
C23    C619    1.417   .     S
C24    C31     1.418   .     A
C24    C28     1.425   .     A
C25    C29     1.392   .     A
C25    C617    1.417   1_554 S
C25    C620    1.419   1_554 S
C26    C27     1.388   .     A
C26    C609    1.405   .     S
C26    C619    1.419   .     S
C27    C28     1.393   .     A
C28    N59     1.435   .     S
C29    H32     1.078   .     S
H35    C615    1.083   1_554 S
C36    S62     1.772   .     S
C36    C44     1.406   .     A
C36    C235    1.377   .     S
C37    H38     1.083   .     S
C37    C39     1.390   .     A
C37    C432    1.377   1_545 S
C39    C40     1.390   .     A
C40    H41     1.084   .     S
C40    C438    1.374   1_545 S
C42    C44     1.396   .     A
C42    H43     1.084   .     S
C42    C238    1.374   .     S
C45    N53     1.344   .     A
C45    H46     1.080   .     S
C45    C113    1.414   .     S
C47    N48     1.404   .     A
C47    S54     1.785   .     S
C47    C177    1.414   1_455 S
N48    C49     1.366   .     A
C49    H50     1.075   .     S
C49    C183    1.420   1_455 S
C51    H52     1.082   .     S
C51    N53     1.368   .     A
C51    C115    1.420   .     S
S54    O56     1.505   .     D
S54    O55     1.502   .     D
S54    O57     1.678   .     S
O57    H58     0.991   .     S
N59    O60     1.302   .     A
N59    O61     1.299   .     A
S62    O63     1.502   .     D
S62    O64     1.504   .     D
S62    O65     1.677   .     S
O65    H66     0.990   .     S
O67    Zn73    1.976   .     S
O67    C69     1.287   .     A
O68    C69     1.284   .     A
O68    Zn74    1.987   .     S
C69    C110    1.409   .     S
O70    Zn73    1.965   .     S
O70    C72     1.301   .     A
O71    Zn74    1.914   .     S
O71    C72     1.298   .     A
C72    C97     1.465   .     S
Zn73   N114    2.025   .     S
Zn73   O77     1.914   .     S
Zn73   O75     1.987   .     S
Zn74   N119    2.025   .     S
Zn74   O78     1.965   .     S
Zn74   O76     1.976   .     S
O75    C79     1.285   .     A
O76    C79     1.287   .     A
O77    C80     1.299   .     A
O78    C80     1.295   .     A
C79    C105    1.405   .     S
C80    C85     1.450   .     S
C81    C96     1.391   .     A
C81    H678    1.084   1_554 S
C81    C686    1.405   1_554 S
H82    C96     1.083   .     S
H83    C93     1.084   .     S
H84    C675    1.084   .     S
C85    C96     1.398   .     A
C85    C95     1.390   .     A
C86    H99     1.083   .     S
C86    C87     1.386   .     A
C86    C97     1.401   .     A
C87    C682    1.392   .     S
C87    H695    1.083   .     S
C88    H100    1.078   .     S
C88    C681    1.392   1_554 S
C88    C683    1.420   1_554 S
C89    C90     1.411   .     A
C89    C682    1.420   .     S
C89    C685    1.417   .     S
C90    C97     1.418   .     A
C90    C94     1.425   .     A
C91    C95     1.392   .     A
C91    C683    1.417   1_554 S
C91    C686    1.419   1_554 S
C92    C93     1.388   .     A
C92    C675    1.405   .     S
C92    C685    1.419   .     S
C93    C94     1.393   .     A
C94    N125    1.435   .     S
C95    H98     1.078   .     S
H101   C681    1.083   1_554 S
C102   S128    1.772   .     S
C102   C110    1.406   .     A
C102   C301    1.377   .     S
C103   H104    1.083   .     S
C103   C105    1.390   .     A
C103   C498    1.377   1_545 S
C105   C106    1.390   .     A
C106   H107    1.084   .     S
C106   C504    1.374   1_545 S
C108   C110    1.396   .     A
C108   H109    1.084   .     S
C108   C304    1.374   .     S
C111   N119    1.344   .     A
C111   H112    1.080   .     S
C111   C179    1.414   .     S
C113   N114    1.404   .     A
C113   S120    1.785   .     S
N114   C115    1.366   .     A
C115   H116    1.075   .     S
C117   H118    1.082   .     S
C117   N119    1.368   .     A
C117   C181    1.420   .     S
S120   O122    1.505   .     D
S120   O121    1.502   .     D
S120   O123    1.678   .     S
O123   H124    0.991   .     S
N125   O126    1.302   .     A
N125   O127    1.299   .     A
S128   O129    1.502   .     D
S128   O130    1.504   .     D
S128   O131    1.677   .     S
O131   H132    0.990   .     S
O133   Zn139   1.976   .     S
O133   C135    1.287   .     A
O134   C135    1.284   .     A
O134   Zn140   1.987   .     S
C135   C176    1.409   .     S
O136   Zn139   1.965   .     S
O136   C138    1.301   .     A
O137   Zn140   1.914   .     S
O137   C138    1.298   .     A
C138   C163    1.465   .     S
Zn139  N180    2.025   .     S
Zn139  O143    1.914   .     S
Zn139  O141    1.987   .     S
Zn140  N185    2.025   .     S
Zn140  O144    1.965   .     S
Zn140  O142    1.976   .     S
O141   C145    1.285   .     A
O142   C145    1.287   .     A
O143   C146    1.299   .     A
O144   C146    1.295   .     A
C145   C171    1.405   .     S
C146   C151    1.450   .     S
C147   C162    1.391   .     A
C147   H744    1.084   1_554 S
C147   C752    1.405   1_554 S
H148   C162    1.083   .     S
H149   C159    1.084   .     S
H150   C741    1.084   .     S
C151   C162    1.398   .     A
C151   C161    1.390   .     A
C152   H165    1.083   .     S
C152   C153    1.386   .     A
C152   C163    1.401   .     A
C153   C748    1.392   .     S
C153   H761    1.083   .     S
C154   H166    1.078   .     S
C154   C747    1.392   1_554 S
C154   C749    1.420   1_554 S
C155   C156    1.411   .     A
C155   C748    1.420   .     S
C155   C751    1.417   .     S
C156   C163    1.418   .     A
C156   C160    1.425   .     A
C157   C161    1.392   .     A
C157   C749    1.417   1_554 S
C157   C752    1.419   1_554 S
C158   C159    1.388   .     A
C158   C741    1.405   .     S
C158   C751    1.419   .     S
C159   C160    1.393   .     A
C160   N191    1.435   .     S
C161   H164    1.078   .     S
H167   C747    1.083   1_554 S
C168   S194    1.772   .     S
C168   C176    1.406   .     A
C168   C367    1.377   .     S
C169   H170    1.083   .     S
C169   C171    1.390   .     A
C169   C564    1.377   1_545 S
C171   C172    1.390   .     A
C172   H173    1.084   .     S
C172   C570    1.374   1_545 S
C174   C176    1.396   .     A
C174   H175    1.084   .     S
C174   C370    1.374   .     S
C177   N185    1.344   .     A
C177   H178    1.080   .     S
C177   C47     1.414   1_655 S
C179   N180    1.404   .     A
C179   S186    1.785   .     S
N180   C181    1.366   .     A
C181   H182    1.075   .     S
C183   H184    1.082   .     S
C183   N185    1.368   .     A
C183   C49     1.420   1_655 S
S186   O188    1.505   .     D
S186   O187    1.502   .     D
S186   O189    1.678   .     S
O189   H190    0.991   .     S
N191   O192    1.302   .     A
N191   O193    1.299   .     A
S194   O195    1.502   .     D
S194   O196    1.504   .     D
S194   O197    1.677   .     S
O197   H198    0.990   .     S
O199   Zn205   1.976   .     S
O199   C201    1.287   .     A
O200   C201    1.284   .     A
O200   Zn206   1.987   .     S
C201   C242    1.409   .     S
O202   Zn205   1.965   .     S
O202   C204    1.301   .     A
O203   Zn206   1.914   .     S
O203   C204    1.298   .     A
C204   C229    1.465   .     S
Zn205  N246    2.025   .     S
Zn205  O209    1.914   .     S
Zn205  O207    1.987   .     S
Zn206  N251    2.025   .     S
Zn206  O210    1.965   .     S
Zn206  O208    1.976   .     S
O207   C211    1.285   .     A
O208   C211    1.287   .     A
O209   C212    1.299   .     A
O210   C212    1.295   .     A
C211   C237    1.405   .     S
C212   C217    1.450   .     S
C213   C228    1.391   .     A
C213   H810    1.084   1_554 S
C213   C818    1.405   1_554 S
H214   C228    1.083   .     S
H215   C225    1.084   .     S
H216   C807    1.084   .     S
C217   C228    1.398   .     A
C217   C227    1.390   .     A
C218   H231    1.083   .     S
C218   C219    1.386   .     A
C218   C229    1.401   .     A
C219   C814    1.392   .     S
C219   H827    1.083   .     S
C220   H232    1.078   .     S
C220   C813    1.392   1_554 S
C220   C815    1.420   1_554 S
C221   C222    1.411   .     A
C221   C814    1.420   .     S
C221   C817    1.417   .     S
C222   C229    1.418   .     A
C222   C226    1.425   .     A
C223   C227    1.392   .     A
C223   C815    1.417   1_554 S
C223   C818    1.419   1_554 S
C224   C225    1.388   .     A
C224   C807    1.405   .     S
C224   C817    1.419   .     S
C225   C226    1.393   .     A
C226   N257    1.435   .     S
C227   H230    1.078   .     S
H233   C813    1.083   1_554 S
C234   S260    1.772   .     S
C234   C242    1.406   .     A
C234   C433    1.377   .     S
C235   H236    1.083   .     S
C235   C237    1.390   .     A
C237   C238    1.390   .     A
C238   H239    1.084   .     S
C240   C242    1.396   .     A
C240   H241    1.084   .     S
C240   C436    1.374   .     S
C243   N251    1.344   .     A
C243   H244    1.080   .     S
C243   C311    1.414   .     S
C245   N246    1.404   .     A
C245   S252    1.785   .     S
C245   C375    1.414   1_455 S
N246   C247    1.366   .     A
C247   H248    1.075   .     S
C247   C381    1.420   1_455 S
C249   H250    1.082   .     S
C249   N251    1.368   .     A
C249   C313    1.420   .     S
S252   O254    1.505   .     D
S252   O253    1.502   .     D
S252   O255    1.678   .     S
O255   H256    0.991   .     S
N257   O258    1.302   .     A
N257   O259    1.299   .     A
S260   O261    1.502   .     D
S260   O262    1.504   .     D
S260   O263    1.677   .     S
O263   H264    0.990   .     S
O265   Zn271   1.976   .     S
O265   C267    1.287   .     A
O266   C267    1.284   .     A
O266   Zn272   1.987   .     S
C267   C308    1.409   .     S
O268   Zn271   1.965   .     S
O268   C270    1.301   .     A
O269   Zn272   1.914   .     S
O269   C270    1.298   .     A
C270   C295    1.465   .     S
Zn271  N312    2.025   .     S
Zn271  O275    1.914   .     S
Zn271  O273    1.987   .     S
Zn272  N317    2.025   .     S
Zn272  O276    1.965   .     S
Zn272  O274    1.976   .     S
O273   C277    1.285   .     A
O274   C277    1.287   .     A
O275   C278    1.299   .     A
O276   C278    1.295   .     A
C277   C303    1.405   .     S
C278   C283    1.450   .     S
C279   C294    1.391   .     A
C279   H876    1.084   1_554 S
C279   C884    1.405   1_554 S
H280   C294    1.083   .     S
H281   C291    1.084   .     S
H282   C873    1.084   .     S
C283   C294    1.398   .     A
C283   C293    1.390   .     A
C284   H297    1.083   .     S
C284   C285    1.386   .     A
C284   C295    1.401   .     A
C285   C880    1.392   .     S
C285   H893    1.083   .     S
C286   H298    1.078   .     S
C286   C879    1.392   1_554 S
C286   C881    1.420   1_554 S
C287   C288    1.411   .     A
C287   C880    1.420   .     S
C287   C883    1.417   .     S
C288   C295    1.418   .     A
C288   C292    1.425   .     A
C289   C293    1.392   .     A
C289   C881    1.417   1_554 S
C289   C884    1.419   1_554 S
C290   C291    1.388   .     A
C290   C873    1.405   .     S
C290   C883    1.419   .     S
C291   C292    1.393   .     A
C292   N323    1.435   .     S
C293   H296    1.078   .     S
H299   C879    1.083   1_554 S
C300   S326    1.772   .     S
C300   C308    1.406   .     A
C300   C499    1.377   .     S
C301   H302    1.083   .     S
C301   C303    1.390   .     A
C303   C304    1.390   .     A
C304   H305    1.084   .     S
C306   C308    1.396   .     A
C306   H307    1.084   .     S
C306   C502    1.374   .     S
C309   N317    1.344   .     A
C309   H310    1.080   .     S
C309   C377    1.414   .     S
C311   N312    1.404   .     A
C311   S318    1.785   .     S
N312   C313    1.366   .     A
C313   H314    1.075   .     S
C315   H316    1.082   .     S
C315   N317    1.368   .     A
C315   C379    1.420   .     S
S318   O320    1.505   .     D
S318   O319    1.502   .     D
S318   O321    1.678   .     S
O321   H322    0.991   .     S
N323   O324    1.302   .     A
N323   O325    1.299   .     A
S326   O327    1.502   .     D
S326   O328    1.504   .     D
S326   O329    1.677   .     S
O329   H330    0.990   .     S
O331   Zn337   1.976   .     S
O331   C333    1.287   .     A
O332   C333    1.284   .     A
O332   Zn338   1.987   .     S
C333   C374    1.409   .     S
O334   Zn337   1.965   .     S
O334   C336    1.301   .     A
O335   Zn338   1.914   .     S
O335   C336    1.298   .     A
C336   C361    1.465   .     S
Zn337  N378    2.025   .     S
Zn337  O341    1.914   .     S
Zn337  O339    1.987   .     S
Zn338  N383    2.025   .     S
Zn338  O342    1.965   .     S
Zn338  O340    1.976   .     S
O339   C343    1.285   .     A
O340   C343    1.287   .     A
O341   C344    1.299   .     A
O342   C344    1.295   .     A
C343   C369    1.405   .     S
C344   C349    1.450   .     S
C345   C360    1.391   .     A
C345   H942    1.084   1_554 S
C345   C950    1.405   1_554 S
H346   C360    1.083   .     S
H347   C357    1.084   .     S
H348   C939    1.084   .     S
C349   C360    1.398   .     A
C349   C359    1.390   .     A
C350   H363    1.083   .     S
C350   C351    1.386   .     A
C350   C361    1.401   .     A
C351   C946    1.392   .     S
C351   H959    1.083   .     S
C352   H364    1.078   .     S
C352   C945    1.392   1_554 S
C352   C947    1.420   1_554 S
C353   C354    1.411   .     A
C353   C946    1.420   .     S
C353   C949    1.417   .     S
C354   C361    1.418   .     A
C354   C358    1.425   .     A
C355   C359    1.392   .     A
C355   C947    1.417   1_554 S
C355   C950    1.419   1_554 S
C356   C357    1.388   .     A
C356   C939    1.405   .     S
C356   C949    1.419   .     S
C357   C358    1.393   .     A
C358   N389    1.435   .     S
C359   H362    1.078   .     S
H365   C945    1.083   1_554 S
C366   S392    1.772   .     S
C366   C374    1.406   .     A
C366   C565    1.377   .     S
C367   H368    1.083   .     S
C367   C369    1.390   .     A
C369   C370    1.390   .     A
C370   H371    1.084   .     S
C372   C374    1.396   .     A
C372   H373    1.084   .     S
C372   C568    1.374   .     S
C375   N383    1.344   .     A
C375   H376    1.080   .     S
C375   C245    1.414   1_655 S
C377   N378    1.404   .     A
C377   S384    1.785   .     S
N378   C379    1.366   .     A
C379   H380    1.075   .     S
C381   H382    1.082   .     S
C381   N383    1.368   .     A
C381   C247    1.420   1_655 S
S384   O386    1.505   .     D
S384   O385    1.502   .     D
S384   O387    1.678   .     S
O387   H388    0.991   .     S
N389   O390    1.302   .     A
N389   O391    1.299   .     A
S392   O393    1.502   .     D
S392   O394    1.504   .     D
S392   O395    1.677   .     S
O395   H396    0.990   .     S
O397   Zn403   1.976   .     S
O397   C399    1.287   .     A
O398   C399    1.284   .     A
O398   Zn404   1.987   .     S
C399   C440    1.409   .     S
O400   Zn403   1.965   .     S
O400   C402    1.301   .     A
O401   Zn404   1.914   .     S
O401   C402    1.298   .     A
C402   C427    1.465   .     S
Zn403  N444    2.025   .     S
Zn403  O407    1.914   .     S
Zn403  O405    1.987   .     S
Zn404  N449    2.025   .     S
Zn404  O408    1.965   .     S
Zn404  O406    1.976   .     S
O405   C409    1.285   .     A
O406   C409    1.287   .     A
O407   C410    1.299   .     A
O408   C410    1.295   .     A
C409   C435    1.405   .     S
C410   C415    1.450   .     S
C411   C426    1.391   .     A
C411   H1008   1.084   1_554 S
C411   C1016   1.405   1_554 S
H412   C426    1.083   .     S
H413   C423    1.084   .     S
H414   C1005   1.084   .     S
C415   C426    1.398   .     A
C415   C425    1.390   .     A
C416   H429    1.083   .     S
C416   C417    1.386   .     A
C416   C427    1.401   .     A
C417   C1012   1.392   .     S
C417   H1025   1.083   .     S
C418   H430    1.078   .     S
C418   C1011   1.392   1_554 S
C418   C1013   1.420   1_554 S
C419   C420    1.411   .     A
C419   C1012   1.420   .     S
C419   C1015   1.417   .     S
C420   C427    1.418   .     A
C420   C424    1.425   .     A
C421   C425    1.392   .     A
C421   C1013   1.417   1_554 S
C421   C1016   1.419   1_554 S
C422   C423    1.388   .     A
C422   C1005   1.405   .     S
C422   C1015   1.419   .     S
C423   C424    1.393   .     A
C424   N455    1.435   .     S
C425   H428    1.078   .     S
H431   C1011   1.083   1_554 S
C432   S458    1.772   .     S
C432   C440    1.406   .     A
C432   C37     1.377   1_565 S
C433   H434    1.083   .     S
C433   C435    1.390   .     A
C435   C436    1.390   .     A
C436   H437    1.084   .     S
C438   C440    1.396   .     A
C438   H439    1.084   .     S
C438   C40     1.374   1_565 S
C441   N449    1.344   .     A
C441   H442    1.080   .     S
C441   C509    1.414   .     S
C443   N444    1.404   .     A
C443   S450    1.785   .     S
C443   C573    1.414   1_455 S
N444   C445    1.366   .     A
C445   H446    1.075   .     S
C445   C579    1.420   1_455 S
C447   H448    1.082   .     S
C447   N449    1.368   .     A
C447   C511    1.420   .     S
S450   O452    1.505   .     D
S450   O451    1.502   .     D
S450   O453    1.678   .     S
O453   H454    0.991   .     S
N455   O456    1.302   .     A
N455   O457    1.299   .     A
S458   O459    1.502   .     D
S458   O460    1.504   .     D
S458   O461    1.677   .     S
O461   H462    0.990   .     S
O463   Zn469   1.976   .     S
O463   C465    1.287   .     A
O464   C465    1.284   .     A
O464   Zn470   1.987   .     S
C465   C506    1.409   .     S
O466   Zn469   1.965   .     S
O466   C468    1.301   .     A
O467   Zn470   1.914   .     S
O467   C468    1.298   .     A
C468   C493    1.465   .     S
Zn469  N510    2.025   .     S
Zn469  O473    1.914   .     S
Zn469  O471    1.987   .     S
Zn470  N515    2.025   .     S
Zn470  O474    1.965   .     S
Zn470  O472    1.976   .     S
O471   C475    1.285   .     A
O472   C475    1.287   .     A
O473   C476    1.299   .     A
O474   C476    1.295   .     A
C475   C501    1.405   .     S
C476   C481    1.450   .     S
C477   C492    1.391   .     A
C477   H1074   1.084   1_554 S
C477   C1082   1.405   1_554 S
H478   C492    1.083   .     S
H479   C489    1.084   .     S
H480   C1071   1.084   .     S
C481   C492    1.398   .     A
C481   C491    1.390   .     A
C482   H495    1.083   .     S
C482   C483    1.386   .     A
C482   C493    1.401   .     A
C483   C1078   1.392   .     S
C483   H1091   1.083   .     S
C484   H496    1.078   .     S
C484   C1077   1.392   1_554 S
C484   C1079   1.420   1_554 S
C485   C486    1.411   .     A
C485   C1078   1.420   .     S
C485   C1081   1.417   .     S
C486   C493    1.418   .     A
C486   C490    1.425   .     A
C487   C491    1.392   .     A
C487   C1079   1.417   1_554 S
C487   C1082   1.419   1_554 S
C488   C489    1.388   .     A
C488   C1071   1.405   .     S
C488   C1081   1.419   .     S
C489   C490    1.393   .     A
C490   N521    1.435   .     S
C491   H494    1.078   .     S
H497   C1077   1.083   1_554 S
C498   S524    1.772   .     S
C498   C506    1.406   .     A
C498   C103    1.377   1_565 S
C499   H500    1.083   .     S
C499   C501    1.390   .     A
C501   C502    1.390   .     A
C502   H503    1.084   .     S
C504   C506    1.396   .     A
C504   H505    1.084   .     S
C504   C106    1.374   1_565 S
C507   N515    1.344   .     A
C507   H508    1.080   .     S
C507   C575    1.414   .     S
C509   N510    1.404   .     A
C509   S516    1.785   .     S
N510   C511    1.366   .     A
C511   H512    1.075   .     S
C513   H514    1.082   .     S
C513   N515    1.368   .     A
C513   C577    1.420   .     S
S516   O518    1.505   .     D
S516   O517    1.502   .     D
S516   O519    1.678   .     S
O519   H520    0.991   .     S
N521   O522    1.302   .     A
N521   O523    1.299   .     A
S524   O525    1.502   .     D
S524   O526    1.504   .     D
S524   O527    1.677   .     S
O527   H528    0.990   .     S
O529   Zn535   1.976   .     S
O529   C531    1.287   .     A
O530   C531    1.284   .     A
O530   Zn536   1.987   .     S
C531   C572    1.409   .     S
O532   Zn535   1.965   .     S
O532   C534    1.301   .     A
O533   Zn536   1.914   .     S
O533   C534    1.298   .     A
C534   C559    1.465   .     S
Zn535  N576    2.025   .     S
Zn535  O539    1.914   .     S
Zn535  O537    1.987   .     S
Zn536  N581    2.025   .     S
Zn536  O540    1.965   .     S
Zn536  O538    1.976   .     S
O537   C541    1.285   .     A
O538   C541    1.287   .     A
O539   C542    1.299   .     A
O540   C542    1.295   .     A
C541   C567    1.405   .     S
C542   C547    1.450   .     S
C543   C558    1.391   .     A
C543   H1140   1.084   1_554 S
C543   C1148   1.405   1_554 S
H544   C558    1.083   .     S
H545   C555    1.084   .     S
H546   C1137   1.084   .     S
C547   C558    1.398   .     A
C547   C557    1.390   .     A
C548   H561    1.083   .     S
C548   C549    1.386   .     A
C548   C559    1.401   .     A
C549   C1144   1.392   .     S
C549   H1157   1.083   .     S
C550   H562    1.078   .     S
C550   C1143   1.392   1_554 S
C550   C1145   1.420   1_554 S
C551   C552    1.411   .     A
C551   C1144   1.420   .     S
C551   C1147   1.417   .     S
C552   C559    1.418   .     A
C552   C556    1.425   .     A
C553   C557    1.392   .     A
C553   C1145   1.417   1_554 S
C553   C1148   1.419   1_554 S
C554   C555    1.388   .     A
C554   C1137   1.405   .     S
C554   C1147   1.419   .     S
C555   C556    1.393   .     A
C556   N587    1.435   .     S
C557   H560    1.078   .     S
H563   C1143   1.083   1_554 S
C564   S590    1.772   .     S
C564   C572    1.406   .     A
C564   C169    1.377   1_565 S
C565   H566    1.083   .     S
C565   C567    1.390   .     A
C567   C568    1.390   .     A
C568   H569    1.084   .     S
C570   C572    1.396   .     A
C570   H571    1.084   .     S
C570   C172    1.374   1_565 S
C573   N581    1.344   .     A
C573   H574    1.080   .     S
C573   C443    1.414   1_655 S
C575   N576    1.404   .     A
C575   S582    1.785   .     S
N576   C577    1.366   .     A
C577   H578    1.075   .     S
C579   H580    1.082   .     S
C579   N581    1.368   .     A
C579   C445    1.420   1_655 S
S582   O584    1.505   .     D
S582   O583    1.502   .     D
S582   O585    1.678   .     S
O585   H586    0.991   .     S
N587   O588    1.302   .     A
N587   O589    1.299   .     A
S590   O591    1.502   .     D
S590   O592    1.504   .     D
S590   O593    1.677   .     S
O593   H594    0.990   .     S
O595   Zn601   1.976   .     S
O595   C597    1.287   .     A
O596   C597    1.284   .     A
O596   Zn602   1.987   .     S
C597   C638    1.409   .     S
O598   Zn601   1.965   .     S
O598   C600    1.301   .     A
O599   Zn602   1.914   .     S
O599   C600    1.298   .     A
C600   C625    1.465   .     S
Zn601  N642    2.025   .     S
Zn601  O605    1.914   .     S
Zn601  O603    1.987   .     S
Zn602  N647    2.025   .     S
Zn602  O606    1.965   .     S
Zn602  O604    1.976   .     S
O603   C607    1.285   .     A
O604   C607    1.287   .     A
O605   C608    1.299   .     A
O606   C608    1.295   .     A
C607   C633    1.405   .     S
C608   C613    1.450   .     S
C609   C624    1.391   .     A
H610   C624    1.083   .     S
H611   C621    1.084   .     S
H612   C15     1.084   1_556 S
C613   C624    1.398   .     A
C613   C623    1.390   .     A
C614   H627    1.083   .     S
C614   C615    1.386   .     A
C614   C625    1.401   .     A
C615   C22     1.392   1_556 S
C615   H35     1.083   1_556 S
C616   H628    1.078   .     S
C617   C618    1.411   .     A
C617   C22     1.420   1_556 S
C617   C25     1.417   1_556 S
C618   C625    1.418   .     A
C618   C622    1.425   .     A
C619   C623    1.392   .     A
C620   C621    1.388   .     A
C620   C15     1.405   1_556 S
C620   C25     1.419   1_556 S
C621   C622    1.393   .     A
C622   N653    1.435   .     S
C623   H626    1.078   .     S
C630   S656    1.772   .     S
C630   C638    1.406   .     A
C630   C829    1.377   .     S
C631   H632    1.083   .     S
C631   C633    1.390   .     A
C631   C1026   1.377   1_545 S
C633   C634    1.390   .     A
C634   H635    1.084   .     S
C634   C1032   1.374   1_545 S
C636   C638    1.396   .     A
C636   H637    1.084   .     S
C636   C832    1.374   .     S
C639   N647    1.344   .     A
C639   H640    1.080   .     S
C639   C707    1.414   .     S
C641   N642    1.404   .     A
C641   S648    1.785   .     S
C641   C771    1.414   1_455 S
N642   C643    1.366   .     A
C643   H644    1.075   .     S
C643   C777    1.420   1_455 S
C645   H646    1.082   .     S
C645   N647    1.368   .     A
C645   C709    1.420   .     S
S648   O650    1.505   .     D
S648   O649    1.502   .     D
S648   O651    1.678   .     S
O651   H652    0.991   .     S
N653   O654    1.302   .     A
N653   O655    1.299   .     A
S656   O657    1.502   .     D
S656   O658    1.504   .     D
S656   O659    1.677   .     S
O659   H660    0.990   .     S
O661   Zn667   1.976   .     S
O661   C663    1.287   .     A
O662   C663    1.284   .     A
O662   Zn668   1.987   .     S
C663   C704    1.409   .     S
O664   Zn667   1.965   .     S
O664   C666    1.301   .     A
O665   Zn668   1.914   .     S
O665   C666    1.298   .     A
C666   C691    1.465   .     S
Zn667  N708    2.025   .     S
Zn667  O671    1.914   .     S
Zn667  O669    1.987   .     S
Zn668  N713    2.025   .     S
Zn668  O672    1.965   .     S
Zn668  O670    1.976   .     S
O669   C673    1.285   .     A
O670   C673    1.287   .     A
O671   C674    1.299   .     A
O672   C674    1.295   .     A
C673   C699    1.405   .     S
C674   C679    1.450   .     S
C675   C690    1.391   .     A
H676   C690    1.083   .     S
H677   C687    1.084   .     S
H678   C81     1.084   1_556 S
C679   C690    1.398   .     A
C679   C689    1.390   .     A
C680   H693    1.083   .     S
C680   C681    1.386   .     A
C680   C691    1.401   .     A
C681   C88     1.392   1_556 S
C681   H101    1.083   1_556 S
C682   H694    1.078   .     S
C683   C684    1.411   .     A
C683   C88     1.420   1_556 S
C683   C91     1.417   1_556 S
C684   C691    1.418   .     A
C684   C688    1.425   .     A
C685   C689    1.392   .     A
C686   C687    1.388   .     A
C686   C81     1.405   1_556 S
C686   C91     1.419   1_556 S
C687   C688    1.393   .     A
C688   N719    1.435   .     S
C689   H692    1.078   .     S
C696   S722    1.772   .     S
C696   C704    1.406   .     A
C696   C895    1.377   .     S
C697   H698    1.083   .     S
C697   C699    1.390   .     A
C697   C1092   1.377   1_545 S
C699   C700    1.390   .     A
C700   H701    1.084   .     S
C700   C1098   1.374   1_545 S
C702   C704    1.396   .     A
C702   H703    1.084   .     S
C702   C898    1.374   .     S
C705   N713    1.344   .     A
C705   H706    1.080   .     S
C705   C773    1.414   .     S
C707   N708    1.404   .     A
C707   S714    1.785   .     S
N708   C709    1.366   .     A
C709   H710    1.075   .     S
C711   H712    1.082   .     S
C711   N713    1.368   .     A
C711   C775    1.420   .     S
S714   O716    1.505   .     D
S714   O715    1.502   .     D
S714   O717    1.678   .     S
O717   H718    0.991   .     S
N719   O720    1.302   .     A
N719   O721    1.299   .     A
S722   O723    1.502   .     D
S722   O724    1.504   .     D
S722   O725    1.677   .     S
O725   H726    0.990   .     S
O727   Zn733   1.976   .     S
O727   C729    1.287   .     A
O728   C729    1.284   .     A
O728   Zn734   1.987   .     S
C729   C770    1.409   .     S
O730   Zn733   1.965   .     S
O730   C732    1.301   .     A
O731   Zn734   1.914   .     S
O731   C732    1.298   .     A
C732   C757    1.465   .     S
Zn733  N774    2.025   .     S
Zn733  O737    1.914   .     S
Zn733  O735    1.987   .     S
Zn734  N779    2.025   .     S
Zn734  O738    1.965   .     S
Zn734  O736    1.976   .     S
O735   C739    1.285   .     A
O736   C739    1.287   .     A
O737   C740    1.299   .     A
O738   C740    1.295   .     A
C739   C765    1.405   .     S
C740   C745    1.450   .     S
C741   C756    1.391   .     A
H742   C756    1.083   .     S
H743   C753    1.084   .     S
H744   C147    1.084   1_556 S
C745   C756    1.398   .     A
C745   C755    1.390   .     A
C746   H759    1.083   .     S
C746   C747    1.386   .     A
C746   C757    1.401   .     A
C747   C154    1.392   1_556 S
C747   H167    1.083   1_556 S
C748   H760    1.078   .     S
C749   C750    1.411   .     A
C749   C154    1.420   1_556 S
C749   C157    1.417   1_556 S
C750   C757    1.418   .     A
C750   C754    1.425   .     A
C751   C755    1.392   .     A
C752   C753    1.388   .     A
C752   C147    1.405   1_556 S
C752   C157    1.419   1_556 S
C753   C754    1.393   .     A
C754   N785    1.435   .     S
C755   H758    1.078   .     S
C762   S788    1.772   .     S
C762   C770    1.406   .     A
C762   C961    1.377   .     S
C763   H764    1.083   .     S
C763   C765    1.390   .     A
C763   C1158   1.377   1_545 S
C765   C766    1.390   .     A
C766   H767    1.084   .     S
C766   C1164   1.374   1_545 S
C768   C770    1.396   .     A
C768   H769    1.084   .     S
C768   C964    1.374   .     S
C771   N779    1.344   .     A
C771   H772    1.080   .     S
C771   C641    1.414   1_655 S
C773   N774    1.404   .     A
C773   S780    1.785   .     S
N774   C775    1.366   .     A
C775   H776    1.075   .     S
C777   H778    1.082   .     S
C777   N779    1.368   .     A
C777   C643    1.420   1_655 S
S780   O782    1.505   .     D
S780   O781    1.502   .     D
S780   O783    1.678   .     S
O783   H784    0.991   .     S
N785   O786    1.302   .     A
N785   O787    1.299   .     A
S788   O789    1.502   .     D
S788   O790    1.504   .     D
S788   O791    1.677   .     S
O791   H792    0.990   .     S
O793   Zn799   1.976   .     S
O793   C795    1.287   .     A
O794   C795    1.284   .     A
O794   Zn800   1.987   .     S
C795   C836    1.409   .     S
O796   Zn799   1.965   .     S
O796   C798    1.301   .     A
O797   Zn800   1.914   .     S
O797   C798    1.298   .     A
C798   C823    1.465   .     S
Zn799  N840    2.025   .     S
Zn799  O803    1.914   .     S
Zn799  O801    1.987   .     S
Zn800  N845    2.025   .     S
Zn800  O804    1.965   .     S
Zn800  O802    1.976   .     S
O801   C805    1.285   .     A
O802   C805    1.287   .     A
O803   C806    1.299   .     A
O804   C806    1.295   .     A
C805   C831    1.405   .     S
C806   C811    1.450   .     S
C807   C822    1.391   .     A
H808   C822    1.083   .     S
H809   C819    1.084   .     S
H810   C213    1.084   1_556 S
C811   C822    1.398   .     A
C811   C821    1.390   .     A
C812   H825    1.083   .     S
C812   C813    1.386   .     A
C812   C823    1.401   .     A
C813   C220    1.392   1_556 S
C813   H233    1.083   1_556 S
C814   H826    1.078   .     S
C815   C816    1.411   .     A
C815   C220    1.420   1_556 S
C815   C223    1.417   1_556 S
C816   C823    1.418   .     A
C816   C820    1.425   .     A
C817   C821    1.392   .     A
C818   C819    1.388   .     A
C818   C213    1.405   1_556 S
C818   C223    1.419   1_556 S
C819   C820    1.393   .     A
C820   N851    1.435   .     S
C821   H824    1.078   .     S
C828   S854    1.772   .     S
C828   C836    1.406   .     A
C828   C1027   1.377   .     S
C829   H830    1.083   .     S
C829   C831    1.390   .     A
C831   C832    1.390   .     A
C832   H833    1.084   .     S
C834   C836    1.396   .     A
C834   H835    1.084   .     S
C834   C1030   1.374   .     S
C837   N845    1.344   .     A
C837   H838    1.080   .     S
C837   C905    1.414   .     S
C839   N840    1.404   .     A
C839   S846    1.785   .     S
C839   C969    1.414   1_455 S
N840   C841    1.366   .     A
C841   H842    1.075   .     S
C841   C975    1.420   1_455 S
C843   H844    1.082   .     S
C843   N845    1.368   .     A
C843   C907    1.420   .     S
S846   O848    1.505   .     D
S846   O847    1.502   .     D
S846   O849    1.678   .     S
O849   H850    0.991   .     S
N851   O852    1.302   .     A
N851   O853    1.299   .     A
S854   O855    1.502   .     D
S854   O856    1.504   .     D
S854   O857    1.677   .     S
O857   H858    0.990   .     S
O859   Zn865   1.976   .     S
O859   C861    1.287   .     A
O860   C861    1.284   .     A
O860   Zn866   1.987   .     S
C861   C902    1.409   .     S
O862   Zn865   1.965   .     S
O862   C864    1.301   .     A
O863   Zn866   1.914   .     S
O863   C864    1.298   .     A
C864   C889    1.465   .     S
Zn865  N906    2.025   .     S
Zn865  O869    1.914   .     S
Zn865  O867    1.987   .     S
Zn866  N911    2.025   .     S
Zn866  O870    1.965   .     S
Zn866  O868    1.976   .     S
O867   C871    1.285   .     A
O868   C871    1.287   .     A
O869   C872    1.299   .     A
O870   C872    1.295   .     A
C871   C897    1.405   .     S
C872   C877    1.450   .     S
C873   C888    1.391   .     A
H874   C888    1.083   .     S
H875   C885    1.084   .     S
H876   C279    1.084   1_556 S
C877   C888    1.398   .     A
C877   C887    1.390   .     A
C878   H891    1.083   .     S
C878   C879    1.386   .     A
C878   C889    1.401   .     A
C879   C286    1.392   1_556 S
C879   H299    1.083   1_556 S
C880   H892    1.078   .     S
C881   C882    1.411   .     A
C881   C286    1.420   1_556 S
C881   C289    1.417   1_556 S
C882   C889    1.418   .     A
C882   C886    1.425   .     A
C883   C887    1.392   .     A
C884   C885    1.388   .     A
C884   C279    1.405   1_556 S
C884   C289    1.419   1_556 S
C885   C886    1.393   .     A
C886   N917    1.435   .     S
C887   H890    1.078   .     S
C894   S920    1.772   .     S
C894   C902    1.406   .     A
C894   C1093   1.377   .     S
C895   H896    1.083   .     S
C895   C897    1.390   .     A
C897   C898    1.390   .     A
C898   H899    1.084   .     S
C900   C902    1.396   .     A
C900   H901    1.084   .     S
C900   C1096   1.374   .     S
C903   N911    1.344   .     A
C903   H904    1.080   .     S
C903   C971    1.414   .     S
C905   N906    1.404   .     A
C905   S912    1.785   .     S
N906   C907    1.366   .     A
C907   H908    1.075   .     S
C909   H910    1.082   .     S
C909   N911    1.368   .     A
C909   C973    1.420   .     S
S912   O914    1.505   .     D
S912   O913    1.502   .     D
S912   O915    1.678   .     S
O915   H916    0.991   .     S
N917   O918    1.302   .     A
N917   O919    1.299   .     A
S920   O921    1.502   .     D
S920   O922    1.504   .     D
S920   O923    1.677   .     S
O923   H924    0.990   .     S
O925   Zn931   1.976   .     S
O925   C927    1.287   .     A
O926   C927    1.284   .     A
O926   Zn932   1.987   .     S
C927   C968    1.409   .     S
O928   Zn931   1.965   .     S
O928   C930    1.301   .     A
O929   Zn932   1.914   .     S
O929   C930    1.298   .     A
C930   C955    1.465   .     S
Zn931  N972    2.025   .     S
Zn931  O935    1.914   .     S
Zn931  O933    1.987   .     S
Zn932  N977    2.025   .     S
Zn932  O936    1.965   .     S
Zn932  O934    1.976   .     S
O933   C937    1.285   .     A
O934   C937    1.287   .     A
O935   C938    1.299   .     A
O936   C938    1.295   .     A
C937   C963    1.405   .     S
C938   C943    1.450   .     S
C939   C954    1.391   .     A
H940   C954    1.083   .     S
H941   C951    1.084   .     S
H942   C345    1.084   1_556 S
C943   C954    1.398   .     A
C943   C953    1.390   .     A
C944   H957    1.083   .     S
C944   C945    1.386   .     A
C944   C955    1.401   .     A
C945   C352    1.392   1_556 S
C945   H365    1.083   1_556 S
C946   H958    1.078   .     S
C947   C948    1.411   .     A
C947   C352    1.420   1_556 S
C947   C355    1.417   1_556 S
C948   C955    1.418   .     A
C948   C952    1.425   .     A
C949   C953    1.392   .     A
C950   C951    1.388   .     A
C950   C345    1.405   1_556 S
C950   C355    1.419   1_556 S
C951   C952    1.393   .     A
C952   N983    1.435   .     S
C953   H956    1.078   .     S
C960   S986    1.772   .     S
C960   C968    1.406   .     A
C960   C1159   1.377   .     S
C961   H962    1.083   .     S
C961   C963    1.390   .     A
C963   C964    1.390   .     A
C964   H965    1.084   .     S
C966   C968    1.396   .     A
C966   H967    1.084   .     S
C966   C1162   1.374   .     S
C969   N977    1.344   .     A
C969   H970    1.080   .     S
C969   C839    1.414   1_655 S
C971   N972    1.404   .     A
C971   S978    1.785   .     S
N972   C973    1.366   .     A
C973   H974    1.075   .     S
C975   H976    1.082   .     S
C975   N977    1.368   .     A
C975   C841    1.420   1_655 S
S978   O980    1.505   .     D
S978   O979    1.502   .     D
S978   O981    1.678   .     S
O981   H982    0.991   .     S
N983   O984    1.302   .     A
N983   O985    1.299   .     A
S986   O987    1.502   .     D
S986   O988    1.504   .     D
S986   O989    1.677   .     S
O989   H990    0.990   .     S
O991   Zn997   1.976   .     S
O991   C993    1.287   .     A
O992   C993    1.284   .     A
O992   Zn998   1.987   .     S
C993   C1034   1.409   .     S
O994   Zn997   1.965   .     S
O994   C996    1.301   .     A
O995   Zn998   1.914   .     S
O995   C996    1.298   .     A
C996   C1021   1.465   .     S
Zn997  N1038   2.025   .     S
Zn997  O1001   1.914   .     S
Zn997  O999    1.987   .     S
Zn998  N1043   2.025   .     S
Zn998  O1002   1.965   .     S
Zn998  O1000   1.976   .     S
O999   C1003   1.285   .     A
O1000  C1003   1.287   .     A
O1001  C1004   1.299   .     A
O1002  C1004   1.295   .     A
C1003  C1029   1.405   .     S
C1004  C1009   1.450   .     S
C1005  C1020   1.391   .     A
H1006  C1020   1.083   .     S
H1007  C1017   1.084   .     S
H1008  C411    1.084   1_556 S
C1009  C1020   1.398   .     A
C1009  C1019   1.390   .     A
C1010  H1023   1.083   .     S
C1010  C1011   1.386   .     A
C1010  C1021   1.401   .     A
C1011  C418    1.392   1_556 S
C1011  H431    1.083   1_556 S
C1012  H1024   1.078   .     S
C1013  C1014   1.411   .     A
C1013  C418    1.420   1_556 S
C1013  C421    1.417   1_556 S
C1014  C1021   1.418   .     A
C1014  C1018   1.425   .     A
C1015  C1019   1.392   .     A
C1016  C1017   1.388   .     A
C1016  C411    1.405   1_556 S
C1016  C421    1.419   1_556 S
C1017  C1018   1.393   .     A
C1018  N1049   1.435   .     S
C1019  H1022   1.078   .     S
C1026  S1052   1.772   .     S
C1026  C1034   1.406   .     A
C1026  C631    1.377   1_565 S
C1027  H1028   1.083   .     S
C1027  C1029   1.390   .     A
C1029  C1030   1.390   .     A
C1030  H1031   1.084   .     S
C1032  C1034   1.396   .     A
C1032  H1033   1.084   .     S
C1032  C634    1.374   1_565 S
C1035  N1043   1.344   .     A
C1035  H1036   1.080   .     S
C1035  C1103   1.414   .     S
C1037  N1038   1.404   .     A
C1037  S1044   1.785   .     S
C1037  C1167   1.414   1_455 S
N1038  C1039   1.366   .     A
C1039  H1040   1.075   .     S
C1039  C1173   1.420   1_455 S
C1041  H1042   1.082   .     S
C1041  N1043   1.368   .     A
C1041  C1105   1.420   .     S
S1044  O1046   1.505   .     D
S1044  O1045   1.502   .     D
S1044  O1047   1.678   .     S
O1047  H1048   0.991   .     S
N1049  O1050   1.302   .     A
N1049  O1051   1.299   .     A
S1052  O1053   1.502   .     D
S1052  O1054   1.504   .     D
S1052  O1055   1.677   .     S
O1055  H1056   0.990   .     S
O1057  Zn1063  1.976   .     S
O1057  C1059   1.287   .     A
O1058  C1059   1.284   .     A
O1058  Zn1064  1.987   .     S
C1059  C1100   1.409   .     S
O1060  Zn1063  1.965   .     S
O1060  C1062   1.301   .     A
O1061  Zn1064  1.914   .     S
O1061  C1062   1.298   .     A
C1062  C1087   1.465   .     S
Zn1063 N1104   2.025   .     S
Zn1063 O1067   1.914   .     S
Zn1063 O1065   1.987   .     S
Zn1064 N1109   2.025   .     S
Zn1064 O1068   1.965   .     S
Zn1064 O1066   1.976   .     S
O1065  C1069   1.285   .     A
O1066  C1069   1.287   .     A
O1067  C1070   1.299   .     A
O1068  C1070   1.295   .     A
C1069  C1095   1.405   .     S
C1070  C1075   1.450   .     S
C1071  C1086   1.391   .     A
H1072  C1086   1.083   .     S
H1073  C1083   1.084   .     S
H1074  C477    1.084   1_556 S
C1075  C1086   1.398   .     A
C1075  C1085   1.390   .     A
C1076  H1089   1.083   .     S
C1076  C1077   1.386   .     A
C1076  C1087   1.401   .     A
C1077  C484    1.392   1_556 S
C1077  H497    1.083   1_556 S
C1078  H1090   1.078   .     S
C1079  C1080   1.411   .     A
C1079  C484    1.420   1_556 S
C1079  C487    1.417   1_556 S
C1080  C1087   1.418   .     A
C1080  C1084   1.425   .     A
C1081  C1085   1.392   .     A
C1082  C1083   1.388   .     A
C1082  C477    1.405   1_556 S
C1082  C487    1.419   1_556 S
C1083  C1084   1.393   .     A
C1084  N1115   1.435   .     S
C1085  H1088   1.078   .     S
C1092  S1118   1.772   .     S
C1092  C1100   1.406   .     A
C1092  C697    1.377   1_565 S
C1093  H1094   1.083   .     S
C1093  C1095   1.390   .     A
C1095  C1096   1.390   .     A
C1096  H1097   1.084   .     S
C1098  C1100   1.396   .     A
C1098  H1099   1.084   .     S
C1098  C700    1.374   1_565 S
C1101  N1109   1.344   .     A
C1101  H1102   1.080   .     S
C1101  C1169   1.414   .     S
C1103  N1104   1.404   .     A
C1103  S1110   1.785   .     S
N1104  C1105   1.366   .     A
C1105  H1106   1.075   .     S
C1107  H1108   1.082   .     S
C1107  N1109   1.368   .     A
C1107  C1171   1.420   .     S
S1110  O1112   1.505   .     D
S1110  O1111   1.502   .     D
S1110  O1113   1.678   .     S
O1113  H1114   0.991   .     S
N1115  O1116   1.302   .     A
N1115  O1117   1.299   .     A
S1118  O1119   1.502   .     D
S1118  O1120   1.504   .     D
S1118  O1121   1.677   .     S
O1121  H1122   0.990   .     S
O1123  Zn1129  1.976   .     S
O1123  C1125   1.287   .     A
O1124  C1125   1.284   .     A
O1124  Zn1130  1.987   .     S
C1125  C1166   1.409   .     S
O1126  Zn1129  1.965   .     S
O1126  C1128   1.301   .     A
O1127  Zn1130  1.914   .     S
O1127  C1128   1.298   .     A
C1128  C1153   1.465   .     S
Zn1129 N1170   2.025   .     S
Zn1129 O1133   1.914   .     S
Zn1129 O1131   1.987   .     S
Zn1130 N1175   2.025   .     S
Zn1130 O1134   1.965   .     S
Zn1130 O1132   1.976   .     S
O1131  C1135   1.285   .     A
O1132  C1135   1.287   .     A
O1133  C1136   1.299   .     A
O1134  C1136   1.295   .     A
C1135  C1161   1.405   .     S
C1136  C1141   1.450   .     S
C1137  C1152   1.391   .     A
H1138  C1152   1.083   .     S
H1139  C1149   1.084   .     S
H1140  C543    1.084   1_556 S
C1141  C1152   1.398   .     A
C1141  C1151   1.390   .     A
C1142  H1155   1.083   .     S
C1142  C1143   1.386   .     A
C1142  C1153   1.401   .     A
C1143  C550    1.392   1_556 S
C1143  H563    1.083   1_556 S
C1144  H1156   1.078   .     S
C1145  C1146   1.411   .     A
C1145  C550    1.420   1_556 S
C1145  C553    1.417   1_556 S
C1146  C1153   1.418   .     A
C1146  C1150   1.425   .     A
C1147  C1151   1.392   .     A
C1148  C1149   1.388   .     A
C1148  C543    1.405   1_556 S
C1148  C553    1.419   1_556 S
C1149  C1150   1.393   .     A
C1150  N1181   1.435   .     S
C1151  H1154   1.078   .     S
C1158  S1184   1.772   .     S
C1158  C1166   1.406   .     A
C1158  C763    1.377   1_565 S
C1159  H1160   1.083   .     S
C1159  C1161   1.390   .     A
C1161  C1162   1.390   .     A
C1162  H1163   1.084   .     S
C1164  C1166   1.396   .     A
C1164  H1165   1.084   .     S
C1164  C766    1.374   1_565 S
C1167  N1175   1.344   .     A
C1167  H1168   1.080   .     S
C1167  C1037   1.414   1_655 S
C1169  N1170   1.404   .     A
C1169  S1176   1.785   .     S
N1170  C1171   1.366   .     A
C1171  H1172   1.075   .     S
C1173  H1174   1.082   .     S
C1173  N1175   1.368   .     A
C1173  C1039   1.420   1_655 S
S1176  O1178   1.505   .     D
S1176  O1177   1.502   .     D
S1176  O1179   1.678   .     S
O1179  H1180   0.991   .     S
N1181  O1182   1.302   .     A
N1181  O1183   1.299   .     A
S1184  O1185   1.502   .     D
S1184  O1186   1.504   .     D
S1184  O1187   1.677   .     S
O1187  H1188   0.990   .     S
