data_str_m3_o1_o17_pcu_sym.16
_audit_creation_date              2020-01-03
_audit_creation_method            'Materials Studio'
_symmetry_space_group_name_H-M    'P1'
_symmetry_Int_Tables_number       1
_symmetry_cell_setting            triclinic
loop_
_symmetry_equiv_pos_as_xyz
  x,y,z
_cell_length_a                    31.9950
_cell_length_b                    29.4660
_cell_length_c                    30.0213
_cell_angle_alpha                 89.8536
_cell_angle_beta                  89.8730
_cell_angle_gamma                 89.4469
loop_
_atom_site_label
_atom_site_type_symbol
_atom_site_fract_x
_atom_site_fract_y
_atom_site_fract_z
_atom_site_U_iso_or_equiv
_atom_site_adp_type
_atom_site_occupancy
C1     C     0.08671   0.16694   0.25013   0.00000  Uiso   1.00
C2     C     0.04259   0.16765   0.24941   0.00000  Uiso   1.00
C3     C     0.19255   0.02366   0.27773   0.00000  Uiso   1.00
C4     C     0.14078   0.30967   0.22227   0.00000  Uiso   1.00
C5     C     0.14078   0.02435   0.22226   0.00000  Uiso   1.00
C6     C     0.19255   0.30898   0.27774   0.00000  Uiso   1.00
C7     C     0.16650   0.16672   0.16327   0.00000  Uiso   1.00
C8     C     0.16684   0.16661   0.33674   0.00000  Uiso   1.00
C9     C     0.17111   0.20748   0.40741   0.00000  Uiso   1.00
C10    C     0.16228   0.12585   0.09259   0.00000  Uiso   1.00
C11    C     0.16719   0.16649   0.38466   0.00000  Uiso   1.00
C12    C     0.24662   0.16639   0.24987   0.00000  Uiso   1.00
C13    C     0.16616   0.16684   0.11534   0.00000  Uiso   1.00
C14    C     0.16341   0.12542   0.40761   0.00000  Uiso   1.00
C15    C     0.16993   0.20792   0.09239   0.00000  Uiso   1.00
C16    C     0.16305   0.12492   0.45381   0.00000  Uiso   1.00
C17    C     0.17032   0.20841   0.04619   0.00000  Uiso   1.00
C18    C     0.16690   0.16649   0.47683   0.00000  Uiso   1.00
C19    C     0.16648   0.16683   0.02317   0.00000  Uiso   1.00
C20    C     0.17104   0.20779   0.45344   0.00000  Uiso   1.00
C21    C     0.16236   0.12554   0.04656   0.00000  Uiso   1.00
C22    C     0.15832   0.08387   0.47731   0.00000  Uiso   1.00
C23    C     0.15861   0.08448   0.02378   0.00000  Uiso   1.00
C24    C     0.17506   0.24945   0.02269   0.00000  Uiso   1.00
C25    C     0.11532   0.02628   0.45774   0.00000  Uiso   1.00
C26    C     0.21825   0.30662   0.04280   0.00000  Uiso   1.00
C27    C     0.04981   0.13468   0.15088   0.00000  Uiso   1.00
C28    C     0.28353   0.19868   0.34912   0.00000  Uiso   1.00
C29    C     0.29312   0.06255   0.20983   0.00000  Uiso   1.00
C30    C     0.04022   0.27078   0.29018   0.00000  Uiso   1.00
C31    C     0.17480   0.24884   0.47622   0.00000  Uiso   1.00
C32    C     0.02207   0.13809   0.22042   0.00000  Uiso   1.00
C33    C     0.31126   0.19525   0.27958   0.00000  Uiso   1.00
C34    C     0.31229   0.13563   0.22238   0.00000  Uiso   1.00
C35    C     0.02104   0.19771   0.27762   0.00000  Uiso   1.00
C36    C     0.29074   0.16569   0.25059   0.00000  Uiso   1.00
H37    H     0.17426   0.23922   0.38937   0.00000  Uiso   1.00
H38    H     0.21322   0.29047   0.29990   0.00000  Uiso   1.00
H39    H     0.11284   0.32953   0.43579   0.00000  Uiso   1.00
H40    H     0.09188   0.05182   0.44600   0.00000  Uiso   1.00
H41    H     0.10790   0.01507   0.49224   0.00000  Uiso   1.00
H42    H     0.24125   0.28100   0.05532   0.00000  Uiso   1.00
H43    H     0.22059   0.00365   0.06442   0.00000  Uiso   1.00
H44    H     0.22636   0.31729   0.00830   0.00000  Uiso   1.00
H45    H     0.06798   0.11294   0.12760   0.00000  Uiso   1.00
H46    H     0.06791   0.16629   0.15607   0.00000  Uiso   1.00
H47    H     0.01928   0.14273   0.13484   0.00000  Uiso   1.00
H48    H     0.15913   0.09411   0.11064   0.00000  Uiso   1.00
H49    H     0.26537   0.16709   0.34394   0.00000  Uiso   1.00
H50    H     0.26538   0.22046   0.37241   0.00000  Uiso   1.00
H51    H     0.31406   0.19060   0.36513   0.00000  Uiso   1.00
H52    H     0.27113   0.04151   0.19045   0.00000  Uiso   1.00
H53    H     0.28365   0.06021   0.24549   0.00000  Uiso   1.00
H54    H     0.32493   0.04784   0.20526   0.00000  Uiso   1.00
H55    H     0.04964   0.27313   0.25451   0.00000  Uiso   1.00
H56    H     0.06224   0.29181   0.30953   0.00000  Uiso   1.00
H57    H     0.00841   0.28549   0.29480   0.00000  Uiso   1.00
H58    H     0.16026   0.09392   0.38940   0.00000  Uiso   1.00
H59    H     0.17306   0.23941   0.11059   0.00000  Uiso   1.00
H60    H     0.15602   0.05285   0.04201   0.00000  Uiso   1.00
H61    H     0.17745   0.28047   0.45800   0.00000  Uiso   1.00
H62    H     0.21323   0.04163   0.29988   0.00000  Uiso   1.00
H63    H     0.12010   0.29170   0.20012   0.00000  Uiso   1.00
H64    H     0.12011   0.04286   0.20010   0.00000  Uiso   1.00
N65    N     0.16667   0.28573   0.25000   0.00000  Uiso   1.00
N66    N     0.16667   0.04760   0.25000   0.00000  Uiso   1.00
O67    O     0.10559   0.20487   0.25000   0.00000  Uiso   1.00
O68    O     0.17701   0.29034   0.04516   0.00000  Uiso   1.00
O69    O     0.04419   0.11068   0.19110   0.00000  Uiso   1.00
O70    O     0.28914   0.22267   0.30889   0.00000  Uiso   1.00
O71    O     0.29087   0.10752   0.19358   0.00000  Uiso   1.00
O72    O     0.04246   0.22581   0.30642   0.00000  Uiso   1.00
O73    O     0.22774   0.12846   0.25001   0.00000  Uiso   1.00
O74    O     0.22774   0.20487   0.25001   0.00000  Uiso   1.00
O75    O     0.10559   0.12846   0.25000   0.00000  Uiso   1.00
O76    O     0.16666   0.20489   0.18393   0.00000  Uiso   1.00
O77    O     0.16667   0.12844   0.31608   0.00000  Uiso   1.00
O78    O     0.16667   0.20489   0.31608   0.00000  Uiso   1.00
O79    O     0.16666   0.12844   0.18393   0.00000  Uiso   1.00
O80    O     0.15639   0.04300   0.45480   0.00000  Uiso   1.00
Zn81   Zn    0.16667   0.21771   0.25000   0.00000  Uiso   1.00
Zn82   Zn    0.16667   0.11563   0.25000   0.00000  Uiso   1.00
C83    C     0.42005   0.16694   0.25013   0.00000  Uiso   1.00
C84    C     0.37593   0.16765   0.24941   0.00000  Uiso   1.00
C85    C     0.52589   0.02366   0.27773   0.00000  Uiso   1.00
C86    C     0.47411   0.30967   0.22227   0.00000  Uiso   1.00
C87    C     0.47412   0.02435   0.22226   0.00000  Uiso   1.00
C88    C     0.52588   0.30898   0.27774   0.00000  Uiso   1.00
C89    C     0.49983   0.16672   0.16327   0.00000  Uiso   1.00
C90    C     0.50017   0.16661   0.33674   0.00000  Uiso   1.00
C91    C     0.50444   0.20748   0.40741   0.00000  Uiso   1.00
C92    C     0.49561   0.12585   0.09259   0.00000  Uiso   1.00
C93    C     0.50053   0.16649   0.38466   0.00000  Uiso   1.00
C94    C     0.57995   0.16639   0.24987   0.00000  Uiso   1.00
C95    C     0.49949   0.16684   0.11534   0.00000  Uiso   1.00
C96    C     0.49675   0.12542   0.40761   0.00000  Uiso   1.00
C97    C     0.50327   0.20792   0.09239   0.00000  Uiso   1.00
C98    C     0.49638   0.12492   0.45381   0.00000  Uiso   1.00
C99    C     0.50365   0.20841   0.04619   0.00000  Uiso   1.00
C100   C     0.50023   0.16649   0.47683   0.00000  Uiso   1.00
C101   C     0.49982   0.16683   0.02317   0.00000  Uiso   1.00
C102   C     0.50437   0.20779   0.45344   0.00000  Uiso   1.00
C103   C     0.49569   0.12554   0.04656   0.00000  Uiso   1.00
C104   C     0.49165   0.08387   0.47731   0.00000  Uiso   1.00
C105   C     0.49195   0.08448   0.02378   0.00000  Uiso   1.00
C106   C     0.50839   0.24945   0.02269   0.00000  Uiso   1.00
C107   C     0.44865   0.02628   0.45774   0.00000  Uiso   1.00
C108   C     0.55158   0.30662   0.04280   0.00000  Uiso   1.00
C109   C     0.38314   0.13468   0.15088   0.00000  Uiso   1.00
C110   C     0.61686   0.19868   0.34912   0.00000  Uiso   1.00
C111   C     0.62645   0.06255   0.20983   0.00000  Uiso   1.00
C112   C     0.37355   0.27078   0.29018   0.00000  Uiso   1.00
C113   C     0.50813   0.24884   0.47622   0.00000  Uiso   1.00
C114   C     0.35540   0.13809   0.22042   0.00000  Uiso   1.00
C115   C     0.64460   0.19525   0.27958   0.00000  Uiso   1.00
C116   C     0.64562   0.13563   0.22238   0.00000  Uiso   1.00
C117   C     0.35438   0.19771   0.27762   0.00000  Uiso   1.00
C118   C     0.62407   0.16569   0.25059   0.00000  Uiso   1.00
H119   H     0.50760   0.23922   0.38937   0.00000  Uiso   1.00
H120   H     0.54655   0.29047   0.29990   0.00000  Uiso   1.00
H121   H     0.44618   0.32953   0.43579   0.00000  Uiso   1.00
H122   H     0.42521   0.05182   0.44600   0.00000  Uiso   1.00
H123   H     0.44123   0.01507   0.49224   0.00000  Uiso   1.00
H124   H     0.57459   0.28100   0.05532   0.00000  Uiso   1.00
H125   H     0.55393   0.00365   0.06442   0.00000  Uiso   1.00
H126   H     0.55969   0.31729   0.00830   0.00000  Uiso   1.00
H127   H     0.40132   0.11294   0.12760   0.00000  Uiso   1.00
H128   H     0.40125   0.16629   0.15607   0.00000  Uiso   1.00
H129   H     0.35262   0.14273   0.13484   0.00000  Uiso   1.00
H130   H     0.49247   0.09411   0.11064   0.00000  Uiso   1.00
H131   H     0.59871   0.16709   0.34394   0.00000  Uiso   1.00
H132   H     0.59872   0.22046   0.37241   0.00000  Uiso   1.00
H133   H     0.64739   0.19060   0.36513   0.00000  Uiso   1.00
H134   H     0.60446   0.04151   0.19045   0.00000  Uiso   1.00
H135   H     0.61699   0.06021   0.24549   0.00000  Uiso   1.00
H136   H     0.65827   0.04784   0.20526   0.00000  Uiso   1.00
H137   H     0.38298   0.27313   0.25451   0.00000  Uiso   1.00
H138   H     0.39557   0.29181   0.30953   0.00000  Uiso   1.00
H139   H     0.34175   0.28549   0.29480   0.00000  Uiso   1.00
H140   H     0.49359   0.09392   0.38940   0.00000  Uiso   1.00
H141   H     0.50640   0.23941   0.11059   0.00000  Uiso   1.00
H142   H     0.48935   0.05285   0.04201   0.00000  Uiso   1.00
H143   H     0.51078   0.28047   0.45800   0.00000  Uiso   1.00
H144   H     0.54656   0.04163   0.29988   0.00000  Uiso   1.00
H145   H     0.45344   0.29170   0.20012   0.00000  Uiso   1.00
H146   H     0.45345   0.04286   0.20010   0.00000  Uiso   1.00
N147   N     0.50000   0.28573   0.25000   0.00000  Uiso   1.00
N148   N     0.50000   0.04760   0.25000   0.00000  Uiso   1.00
O149   O     0.43892   0.20487   0.25000   0.00000  Uiso   1.00
O150   O     0.51034   0.29034   0.04516   0.00000  Uiso   1.00
O151   O     0.37753   0.11068   0.19110   0.00000  Uiso   1.00
O152   O     0.62247   0.22267   0.30889   0.00000  Uiso   1.00
O153   O     0.62421   0.10752   0.19358   0.00000  Uiso   1.00
O154   O     0.37580   0.22581   0.30642   0.00000  Uiso   1.00
O155   O     0.56108   0.12846   0.25001   0.00000  Uiso   1.00
O156   O     0.56108   0.20487   0.25001   0.00000  Uiso   1.00
O157   O     0.43892   0.12846   0.25000   0.00000  Uiso   1.00
O158   O     0.49999   0.20489   0.18393   0.00000  Uiso   1.00
O159   O     0.50001   0.12844   0.31608   0.00000  Uiso   1.00
O160   O     0.50001   0.20489   0.31608   0.00000  Uiso   1.00
O161   O     0.49999   0.12844   0.18393   0.00000  Uiso   1.00
O162   O     0.48972   0.04300   0.45480   0.00000  Uiso   1.00
Zn163  Zn    0.50000   0.21771   0.25000   0.00000  Uiso   1.00
Zn164  Zn    0.50000   0.11563   0.25000   0.00000  Uiso   1.00
C165   C     0.75338   0.16694   0.25013   0.00000  Uiso   1.00
C166   C     0.70926   0.16765   0.24941   0.00000  Uiso   1.00
C167   C     0.85922   0.02366   0.27773   0.00000  Uiso   1.00
C168   C     0.80745   0.30967   0.22227   0.00000  Uiso   1.00
C169   C     0.80745   0.02435   0.22226   0.00000  Uiso   1.00
C170   C     0.85922   0.30898   0.27774   0.00000  Uiso   1.00
C171   C     0.83317   0.16672   0.16327   0.00000  Uiso   1.00
C172   C     0.83350   0.16661   0.33674   0.00000  Uiso   1.00
C173   C     0.83777   0.20748   0.40741   0.00000  Uiso   1.00
C174   C     0.82895   0.12585   0.09259   0.00000  Uiso   1.00
C175   C     0.83386   0.16649   0.38466   0.00000  Uiso   1.00
C176   C     0.91329   0.16639   0.24987   0.00000  Uiso   1.00
C177   C     0.83283   0.16684   0.11534   0.00000  Uiso   1.00
C178   C     0.83008   0.12542   0.40761   0.00000  Uiso   1.00
C179   C     0.83660   0.20792   0.09239   0.00000  Uiso   1.00
C180   C     0.82972   0.12492   0.45381   0.00000  Uiso   1.00
C181   C     0.83699   0.20841   0.04619   0.00000  Uiso   1.00
C182   C     0.83357   0.16649   0.47683   0.00000  Uiso   1.00
C183   C     0.83315   0.16683   0.02317   0.00000  Uiso   1.00
C184   C     0.83770   0.20779   0.45344   0.00000  Uiso   1.00
C185   C     0.82902   0.12554   0.04656   0.00000  Uiso   1.00
C186   C     0.82499   0.08387   0.47731   0.00000  Uiso   1.00
C187   C     0.82528   0.08448   0.02378   0.00000  Uiso   1.00
C188   C     0.84173   0.24945   0.02269   0.00000  Uiso   1.00
C189   C     0.78199   0.02628   0.45774   0.00000  Uiso   1.00
C190   C     0.88491   0.30662   0.04280   0.00000  Uiso   1.00
C191   C     0.71647   0.13468   0.15088   0.00000  Uiso   1.00
C192   C     0.95019   0.19868   0.34912   0.00000  Uiso   1.00
C193   C     0.95979   0.06255   0.20983   0.00000  Uiso   1.00
C194   C     0.70688   0.27078   0.29018   0.00000  Uiso   1.00
C195   C     0.84147   0.24884   0.47622   0.00000  Uiso   1.00
C196   C     0.68874   0.13809   0.22042   0.00000  Uiso   1.00
C197   C     0.97793   0.19525   0.27958   0.00000  Uiso   1.00
C198   C     0.97896   0.13563   0.22238   0.00000  Uiso   1.00
C199   C     0.68771   0.19771   0.27762   0.00000  Uiso   1.00
C200   C     0.95741   0.16569   0.25059   0.00000  Uiso   1.00
H201   H     0.84093   0.23922   0.38937   0.00000  Uiso   1.00
H202   H     0.87989   0.29047   0.29990   0.00000  Uiso   1.00
H203   H     0.77951   0.32953   0.43579   0.00000  Uiso   1.00
H204   H     0.75855   0.05182   0.44600   0.00000  Uiso   1.00
H205   H     0.77457   0.01507   0.49224   0.00000  Uiso   1.00
H206   H     0.90792   0.28100   0.05532   0.00000  Uiso   1.00
H207   H     0.88726   0.00365   0.06442   0.00000  Uiso   1.00
H208   H     0.89303   0.31729   0.00830   0.00000  Uiso   1.00
H209   H     0.73465   0.11294   0.12760   0.00000  Uiso   1.00
H210   H     0.73458   0.16629   0.15607   0.00000  Uiso   1.00
H211   H     0.68595   0.14273   0.13484   0.00000  Uiso   1.00
H212   H     0.82580   0.09411   0.11064   0.00000  Uiso   1.00
H213   H     0.93204   0.16709   0.34394   0.00000  Uiso   1.00
H214   H     0.93205   0.22046   0.37241   0.00000  Uiso   1.00
H215   H     0.98072   0.19060   0.36513   0.00000  Uiso   1.00
H216   H     0.93779   0.04151   0.19045   0.00000  Uiso   1.00
H217   H     0.95032   0.06021   0.24549   0.00000  Uiso   1.00
H218   H     0.99160   0.04784   0.20526   0.00000  Uiso   1.00
H219   H     0.71631   0.27313   0.25451   0.00000  Uiso   1.00
H220   H     0.72891   0.29181   0.30953   0.00000  Uiso   1.00
H221   H     0.67508   0.28549   0.29480   0.00000  Uiso   1.00
H222   H     0.82693   0.09392   0.38940   0.00000  Uiso   1.00
H223   H     0.83973   0.23941   0.11059   0.00000  Uiso   1.00
H224   H     0.82269   0.05285   0.04201   0.00000  Uiso   1.00
H225   H     0.84412   0.28047   0.45800   0.00000  Uiso   1.00
H226   H     0.87990   0.04163   0.29988   0.00000  Uiso   1.00
H227   H     0.78677   0.29170   0.20012   0.00000  Uiso   1.00
H228   H     0.78678   0.04286   0.20010   0.00000  Uiso   1.00
N229   N     0.83333   0.28573   0.25000   0.00000  Uiso   1.00
N230   N     0.83333   0.04760   0.25000   0.00000  Uiso   1.00
O231   O     0.77226   0.20487   0.25000   0.00000  Uiso   1.00
O232   O     0.84367   0.29034   0.04516   0.00000  Uiso   1.00
O233   O     0.71086   0.11068   0.19110   0.00000  Uiso   1.00
O234   O     0.95581   0.22267   0.30889   0.00000  Uiso   1.00
O235   O     0.95754   0.10752   0.19358   0.00000  Uiso   1.00
O236   O     0.70913   0.22581   0.30642   0.00000  Uiso   1.00
O237   O     0.89441   0.12846   0.25001   0.00000  Uiso   1.00
O238   O     0.89441   0.20487   0.25001   0.00000  Uiso   1.00
O239   O     0.77226   0.12846   0.25000   0.00000  Uiso   1.00
O240   O     0.83333   0.20489   0.18393   0.00000  Uiso   1.00
O241   O     0.83334   0.12844   0.31608   0.00000  Uiso   1.00
O242   O     0.83334   0.20489   0.31608   0.00000  Uiso   1.00
O243   O     0.83333   0.12844   0.18393   0.00000  Uiso   1.00
O244   O     0.82306   0.04300   0.45480   0.00000  Uiso   1.00
Zn245  Zn    0.83333   0.21771   0.25000   0.00000  Uiso   1.00
Zn246  Zn    0.83333   0.11563   0.25000   0.00000  Uiso   1.00
C247   C     0.08671   0.50027   0.25013   0.00000  Uiso   1.00
C248   C     0.04259   0.50098   0.24941   0.00000  Uiso   1.00
C249   C     0.19255   0.35700   0.27773   0.00000  Uiso   1.00
C250   C     0.14078   0.64300   0.22227   0.00000  Uiso   1.00
C251   C     0.14078   0.35768   0.22226   0.00000  Uiso   1.00
C252   C     0.19255   0.64232   0.27774   0.00000  Uiso   1.00
C253   C     0.16650   0.50005   0.16327   0.00000  Uiso   1.00
C254   C     0.16684   0.49994   0.33674   0.00000  Uiso   1.00
C255   C     0.17111   0.54081   0.40741   0.00000  Uiso   1.00
C256   C     0.16228   0.45918   0.09259   0.00000  Uiso   1.00
C257   C     0.16719   0.49982   0.38466   0.00000  Uiso   1.00
C258   C     0.24662   0.49973   0.24987   0.00000  Uiso   1.00
C259   C     0.16616   0.50017   0.11534   0.00000  Uiso   1.00
C260   C     0.16341   0.45875   0.40761   0.00000  Uiso   1.00
C261   C     0.16993   0.54125   0.09239   0.00000  Uiso   1.00
C262   C     0.16305   0.45825   0.45381   0.00000  Uiso   1.00
C263   C     0.17032   0.54174   0.04619   0.00000  Uiso   1.00
C264   C     0.16690   0.49982   0.47683   0.00000  Uiso   1.00
C265   C     0.16648   0.50017   0.02317   0.00000  Uiso   1.00
C266   C     0.17104   0.54112   0.45344   0.00000  Uiso   1.00
C267   C     0.16236   0.45887   0.04656   0.00000  Uiso   1.00
C268   C     0.15832   0.41721   0.47731   0.00000  Uiso   1.00
C269   C     0.15861   0.41781   0.02378   0.00000  Uiso   1.00
C270   C     0.17506   0.58278   0.02269   0.00000  Uiso   1.00
C271   C     0.11532   0.35961   0.45774   0.00000  Uiso   1.00
C272   C     0.21825   0.63996   0.04280   0.00000  Uiso   1.00
C273   C     0.04981   0.46802   0.15088   0.00000  Uiso   1.00
C274   C     0.28353   0.53202   0.34912   0.00000  Uiso   1.00
C275   C     0.29312   0.39589   0.20983   0.00000  Uiso   1.00
C276   C     0.04022   0.60411   0.29018   0.00000  Uiso   1.00
C277   C     0.17480   0.58218   0.47622   0.00000  Uiso   1.00
C278   C     0.02207   0.47142   0.22042   0.00000  Uiso   1.00
C279   C     0.31126   0.52858   0.27958   0.00000  Uiso   1.00
C280   C     0.31229   0.46896   0.22238   0.00000  Uiso   1.00
C281   C     0.02104   0.53104   0.27762   0.00000  Uiso   1.00
C282   C     0.29074   0.49902   0.25059   0.00000  Uiso   1.00
H283   H     0.17426   0.57255   0.38937   0.00000  Uiso   1.00
H284   H     0.21322   0.62380   0.29990   0.00000  Uiso   1.00
H285   H     0.11284   0.66286   0.43579   0.00000  Uiso   1.00
H286   H     0.09188   0.38515   0.44600   0.00000  Uiso   1.00
H287   H     0.10790   0.34840   0.49224   0.00000  Uiso   1.00
H288   H     0.24125   0.61433   0.05532   0.00000  Uiso   1.00
H289   H     0.22059   0.33698   0.06442   0.00000  Uiso   1.00
H290   H     0.22636   0.65063   0.00830   0.00000  Uiso   1.00
H291   H     0.06798   0.44628   0.12760   0.00000  Uiso   1.00
H292   H     0.06791   0.49962   0.15607   0.00000  Uiso   1.00
H293   H     0.01928   0.47606   0.13484   0.00000  Uiso   1.00
H294   H     0.15913   0.42744   0.11064   0.00000  Uiso   1.00
H295   H     0.26537   0.50043   0.34394   0.00000  Uiso   1.00
H296   H     0.26538   0.55379   0.37241   0.00000  Uiso   1.00
H297   H     0.31406   0.52393   0.36513   0.00000  Uiso   1.00
H298   H     0.27113   0.37484   0.19045   0.00000  Uiso   1.00
H299   H     0.28365   0.39354   0.24549   0.00000  Uiso   1.00
H300   H     0.32493   0.38118   0.20526   0.00000  Uiso   1.00
H301   H     0.04964   0.60646   0.25451   0.00000  Uiso   1.00
H302   H     0.06224   0.62514   0.30953   0.00000  Uiso   1.00
H303   H     0.00841   0.61883   0.29480   0.00000  Uiso   1.00
H304   H     0.16026   0.42726   0.38940   0.00000  Uiso   1.00
H305   H     0.17306   0.57275   0.11059   0.00000  Uiso   1.00
H306   H     0.15602   0.38618   0.04201   0.00000  Uiso   1.00
H307   H     0.17745   0.61381   0.45800   0.00000  Uiso   1.00
H308   H     0.21323   0.37497   0.29988   0.00000  Uiso   1.00
H309   H     0.12010   0.62503   0.20012   0.00000  Uiso   1.00
H310   H     0.12011   0.37620   0.20010   0.00000  Uiso   1.00
N311   N     0.16667   0.61907   0.25000   0.00000  Uiso   1.00
N312   N     0.16667   0.38093   0.25000   0.00000  Uiso   1.00
O313   O     0.10559   0.53821   0.25000   0.00000  Uiso   1.00
O314   O     0.17701   0.62367   0.04516   0.00000  Uiso   1.00
O315   O     0.04419   0.44401   0.19110   0.00000  Uiso   1.00
O316   O     0.28914   0.55600   0.30889   0.00000  Uiso   1.00
O317   O     0.29087   0.44086   0.19358   0.00000  Uiso   1.00
O318   O     0.04246   0.55914   0.30642   0.00000  Uiso   1.00
O319   O     0.22774   0.46179   0.25001   0.00000  Uiso   1.00
O320   O     0.22774   0.53821   0.25001   0.00000  Uiso   1.00
O321   O     0.10559   0.46179   0.25000   0.00000  Uiso   1.00
O322   O     0.16666   0.53823   0.18393   0.00000  Uiso   1.00
O323   O     0.16667   0.46177   0.31608   0.00000  Uiso   1.00
O324   O     0.16667   0.53823   0.31608   0.00000  Uiso   1.00
O325   O     0.16666   0.46177   0.18393   0.00000  Uiso   1.00
O326   O     0.15639   0.37633   0.45480   0.00000  Uiso   1.00
Zn327  Zn    0.16667   0.55104   0.25000   0.00000  Uiso   1.00
Zn328  Zn    0.16667   0.44896   0.25000   0.00000  Uiso   1.00
C329   C     0.42005   0.50027   0.25013   0.00000  Uiso   1.00
C330   C     0.37593   0.50098   0.24941   0.00000  Uiso   1.00
C331   C     0.52589   0.35700   0.27773   0.00000  Uiso   1.00
C332   C     0.47411   0.64300   0.22227   0.00000  Uiso   1.00
C333   C     0.47412   0.35768   0.22226   0.00000  Uiso   1.00
C334   C     0.52588   0.64232   0.27774   0.00000  Uiso   1.00
C335   C     0.49983   0.50005   0.16327   0.00000  Uiso   1.00
C336   C     0.50017   0.49994   0.33674   0.00000  Uiso   1.00
C337   C     0.50444   0.54081   0.40741   0.00000  Uiso   1.00
C338   C     0.49561   0.45918   0.09259   0.00000  Uiso   1.00
C339   C     0.50053   0.49982   0.38466   0.00000  Uiso   1.00
C340   C     0.57995   0.49973   0.24987   0.00000  Uiso   1.00
C341   C     0.49949   0.50017   0.11534   0.00000  Uiso   1.00
C342   C     0.49675   0.45875   0.40761   0.00000  Uiso   1.00
C343   C     0.50327   0.54125   0.09239   0.00000  Uiso   1.00
C344   C     0.49638   0.45825   0.45381   0.00000  Uiso   1.00
C345   C     0.50365   0.54174   0.04619   0.00000  Uiso   1.00
C346   C     0.50023   0.49982   0.47683   0.00000  Uiso   1.00
C347   C     0.49982   0.50017   0.02317   0.00000  Uiso   1.00
C348   C     0.50437   0.54112   0.45344   0.00000  Uiso   1.00
C349   C     0.49569   0.45887   0.04656   0.00000  Uiso   1.00
C350   C     0.49165   0.41721   0.47731   0.00000  Uiso   1.00
C351   C     0.49195   0.41781   0.02378   0.00000  Uiso   1.00
C352   C     0.50839   0.58278   0.02269   0.00000  Uiso   1.00
C353   C     0.44865   0.35961   0.45774   0.00000  Uiso   1.00
C354   C     0.55158   0.63996   0.04280   0.00000  Uiso   1.00
C355   C     0.38314   0.46802   0.15088   0.00000  Uiso   1.00
C356   C     0.61686   0.53202   0.34912   0.00000  Uiso   1.00
C357   C     0.62645   0.39589   0.20983   0.00000  Uiso   1.00
C358   C     0.37355   0.60411   0.29018   0.00000  Uiso   1.00
C359   C     0.50813   0.58218   0.47622   0.00000  Uiso   1.00
C360   C     0.35540   0.47142   0.22042   0.00000  Uiso   1.00
C361   C     0.64460   0.52858   0.27958   0.00000  Uiso   1.00
C362   C     0.64562   0.46896   0.22238   0.00000  Uiso   1.00
C363   C     0.35438   0.53104   0.27762   0.00000  Uiso   1.00
C364   C     0.62407   0.49902   0.25059   0.00000  Uiso   1.00
H365   H     0.50760   0.57255   0.38937   0.00000  Uiso   1.00
H366   H     0.54655   0.62380   0.29990   0.00000  Uiso   1.00
H367   H     0.44618   0.66286   0.43579   0.00000  Uiso   1.00
H368   H     0.42521   0.38515   0.44600   0.00000  Uiso   1.00
H369   H     0.44123   0.34840   0.49224   0.00000  Uiso   1.00
H370   H     0.57459   0.61433   0.05532   0.00000  Uiso   1.00
H371   H     0.55393   0.33698   0.06442   0.00000  Uiso   1.00
H372   H     0.55969   0.65063   0.00830   0.00000  Uiso   1.00
H373   H     0.40132   0.44628   0.12760   0.00000  Uiso   1.00
H374   H     0.40125   0.49962   0.15607   0.00000  Uiso   1.00
H375   H     0.35262   0.47606   0.13484   0.00000  Uiso   1.00
H376   H     0.49247   0.42744   0.11064   0.00000  Uiso   1.00
H377   H     0.59871   0.50043   0.34394   0.00000  Uiso   1.00
H378   H     0.59872   0.55379   0.37241   0.00000  Uiso   1.00
H379   H     0.64739   0.52393   0.36513   0.00000  Uiso   1.00
H380   H     0.60446   0.37484   0.19045   0.00000  Uiso   1.00
H381   H     0.61699   0.39354   0.24549   0.00000  Uiso   1.00
H382   H     0.65827   0.38118   0.20526   0.00000  Uiso   1.00
H383   H     0.38298   0.60646   0.25451   0.00000  Uiso   1.00
H384   H     0.39557   0.62514   0.30953   0.00000  Uiso   1.00
H385   H     0.34175   0.61883   0.29480   0.00000  Uiso   1.00
H386   H     0.49359   0.42726   0.38940   0.00000  Uiso   1.00
H387   H     0.50640   0.57275   0.11059   0.00000  Uiso   1.00
H388   H     0.48935   0.38618   0.04201   0.00000  Uiso   1.00
H389   H     0.51078   0.61381   0.45800   0.00000  Uiso   1.00
H390   H     0.54656   0.37497   0.29988   0.00000  Uiso   1.00
H391   H     0.45344   0.62503   0.20012   0.00000  Uiso   1.00
H392   H     0.45345   0.37620   0.20010   0.00000  Uiso   1.00
N393   N     0.50000   0.61907   0.25000   0.00000  Uiso   1.00
N394   N     0.50000   0.38093   0.25000   0.00000  Uiso   1.00
O395   O     0.43892   0.53821   0.25000   0.00000  Uiso   1.00
O396   O     0.51034   0.62367   0.04516   0.00000  Uiso   1.00
O397   O     0.37753   0.44401   0.19110   0.00000  Uiso   1.00
O398   O     0.62247   0.55600   0.30889   0.00000  Uiso   1.00
O399   O     0.62421   0.44086   0.19358   0.00000  Uiso   1.00
O400   O     0.37580   0.55914   0.30642   0.00000  Uiso   1.00
O401   O     0.56108   0.46179   0.25001   0.00000  Uiso   1.00
O402   O     0.56108   0.53821   0.25001   0.00000  Uiso   1.00
O403   O     0.43892   0.46179   0.25000   0.00000  Uiso   1.00
O404   O     0.49999   0.53823   0.18393   0.00000  Uiso   1.00
O405   O     0.50001   0.46177   0.31608   0.00000  Uiso   1.00
O406   O     0.50001   0.53823   0.31608   0.00000  Uiso   1.00
O407   O     0.49999   0.46177   0.18393   0.00000  Uiso   1.00
O408   O     0.48972   0.37633   0.45480   0.00000  Uiso   1.00
Zn409  Zn    0.50000   0.55104   0.25000   0.00000  Uiso   1.00
Zn410  Zn    0.50000   0.44896   0.25000   0.00000  Uiso   1.00
C411   C     0.75338   0.50027   0.25013   0.00000  Uiso   1.00
C412   C     0.70926   0.50098   0.24941   0.00000  Uiso   1.00
C413   C     0.85922   0.35700   0.27773   0.00000  Uiso   1.00
C414   C     0.80745   0.64300   0.22227   0.00000  Uiso   1.00
C415   C     0.80745   0.35768   0.22226   0.00000  Uiso   1.00
C416   C     0.85922   0.64232   0.27774   0.00000  Uiso   1.00
C417   C     0.83317   0.50005   0.16327   0.00000  Uiso   1.00
C418   C     0.83350   0.49994   0.33674   0.00000  Uiso   1.00
C419   C     0.83777   0.54081   0.40741   0.00000  Uiso   1.00
C420   C     0.82895   0.45918   0.09259   0.00000  Uiso   1.00
C421   C     0.83386   0.49982   0.38466   0.00000  Uiso   1.00
C422   C     0.91329   0.49973   0.24987   0.00000  Uiso   1.00
C423   C     0.83283   0.50017   0.11534   0.00000  Uiso   1.00
C424   C     0.83008   0.45875   0.40761   0.00000  Uiso   1.00
C425   C     0.83660   0.54125   0.09239   0.00000  Uiso   1.00
C426   C     0.82972   0.45825   0.45381   0.00000  Uiso   1.00
C427   C     0.83699   0.54174   0.04619   0.00000  Uiso   1.00
C428   C     0.83357   0.49982   0.47683   0.00000  Uiso   1.00
C429   C     0.83315   0.50017   0.02317   0.00000  Uiso   1.00
C430   C     0.83770   0.54112   0.45344   0.00000  Uiso   1.00
C431   C     0.82902   0.45887   0.04656   0.00000  Uiso   1.00
C432   C     0.82499   0.41721   0.47731   0.00000  Uiso   1.00
C433   C     0.82528   0.41781   0.02378   0.00000  Uiso   1.00
C434   C     0.84173   0.58278   0.02269   0.00000  Uiso   1.00
C435   C     0.78199   0.35961   0.45774   0.00000  Uiso   1.00
C436   C     0.88491   0.63996   0.04280   0.00000  Uiso   1.00
C437   C     0.71647   0.46802   0.15088   0.00000  Uiso   1.00
C438   C     0.95019   0.53202   0.34912   0.00000  Uiso   1.00
C439   C     0.95979   0.39589   0.20983   0.00000  Uiso   1.00
C440   C     0.70688   0.60411   0.29018   0.00000  Uiso   1.00
C441   C     0.84147   0.58218   0.47622   0.00000  Uiso   1.00
C442   C     0.68874   0.47142   0.22042   0.00000  Uiso   1.00
C443   C     0.97793   0.52858   0.27958   0.00000  Uiso   1.00
C444   C     0.97896   0.46896   0.22238   0.00000  Uiso   1.00
C445   C     0.68771   0.53104   0.27762   0.00000  Uiso   1.00
C446   C     0.95741   0.49902   0.25059   0.00000  Uiso   1.00
H447   H     0.84093   0.57255   0.38937   0.00000  Uiso   1.00
H448   H     0.87989   0.62380   0.29990   0.00000  Uiso   1.00
H449   H     0.77951   0.66286   0.43579   0.00000  Uiso   1.00
H450   H     0.75855   0.38515   0.44600   0.00000  Uiso   1.00
H451   H     0.77457   0.34840   0.49224   0.00000  Uiso   1.00
H452   H     0.90792   0.61433   0.05532   0.00000  Uiso   1.00
H453   H     0.88726   0.33698   0.06442   0.00000  Uiso   1.00
H454   H     0.89303   0.65063   0.00830   0.00000  Uiso   1.00
H455   H     0.73465   0.44628   0.12760   0.00000  Uiso   1.00
H456   H     0.73458   0.49962   0.15607   0.00000  Uiso   1.00
H457   H     0.68595   0.47606   0.13484   0.00000  Uiso   1.00
H458   H     0.82580   0.42744   0.11064   0.00000  Uiso   1.00
H459   H     0.93204   0.50043   0.34394   0.00000  Uiso   1.00
H460   H     0.93205   0.55379   0.37241   0.00000  Uiso   1.00
H461   H     0.98072   0.52393   0.36513   0.00000  Uiso   1.00
H462   H     0.93779   0.37484   0.19045   0.00000  Uiso   1.00
H463   H     0.95032   0.39354   0.24549   0.00000  Uiso   1.00
H464   H     0.99160   0.38118   0.20526   0.00000  Uiso   1.00
H465   H     0.71631   0.60646   0.25451   0.00000  Uiso   1.00
H466   H     0.72891   0.62514   0.30953   0.00000  Uiso   1.00
H467   H     0.67508   0.61883   0.29480   0.00000  Uiso   1.00
H468   H     0.82693   0.42726   0.38940   0.00000  Uiso   1.00
H469   H     0.83973   0.57275   0.11059   0.00000  Uiso   1.00
H470   H     0.82269   0.38618   0.04201   0.00000  Uiso   1.00
H471   H     0.84412   0.61381   0.45800   0.00000  Uiso   1.00
H472   H     0.87990   0.37497   0.29988   0.00000  Uiso   1.00
H473   H     0.78677   0.62503   0.20012   0.00000  Uiso   1.00
H474   H     0.78678   0.37620   0.20010   0.00000  Uiso   1.00
N475   N     0.83333   0.61907   0.25000   0.00000  Uiso   1.00
N476   N     0.83333   0.38093   0.25000   0.00000  Uiso   1.00
O477   O     0.77226   0.53821   0.25000   0.00000  Uiso   1.00
O478   O     0.84367   0.62367   0.04516   0.00000  Uiso   1.00
O479   O     0.71086   0.44401   0.19110   0.00000  Uiso   1.00
O480   O     0.95581   0.55600   0.30889   0.00000  Uiso   1.00
O481   O     0.95754   0.44086   0.19358   0.00000  Uiso   1.00
O482   O     0.70913   0.55914   0.30642   0.00000  Uiso   1.00
O483   O     0.89441   0.46179   0.25001   0.00000  Uiso   1.00
O484   O     0.89441   0.53821   0.25001   0.00000  Uiso   1.00
O485   O     0.77226   0.46179   0.25000   0.00000  Uiso   1.00
O486   O     0.83333   0.53823   0.18393   0.00000  Uiso   1.00
O487   O     0.83334   0.46177   0.31608   0.00000  Uiso   1.00
O488   O     0.83334   0.53823   0.31608   0.00000  Uiso   1.00
O489   O     0.83333   0.46177   0.18393   0.00000  Uiso   1.00
O490   O     0.82306   0.37633   0.45480   0.00000  Uiso   1.00
Zn491  Zn    0.83333   0.55104   0.25000   0.00000  Uiso   1.00
Zn492  Zn    0.83333   0.44896   0.25000   0.00000  Uiso   1.00
C493   C     0.08671   0.83361   0.25013   0.00000  Uiso   1.00
C494   C     0.04259   0.83431   0.24941   0.00000  Uiso   1.00
C495   C     0.19255   0.69033   0.27773   0.00000  Uiso   1.00
C496   C     0.14078   0.97634   0.22227   0.00000  Uiso   1.00
C497   C     0.14078   0.69102   0.22226   0.00000  Uiso   1.00
C498   C     0.19255   0.97565   0.27774   0.00000  Uiso   1.00
C499   C     0.16650   0.83339   0.16327   0.00000  Uiso   1.00
C500   C     0.16684   0.83328   0.33674   0.00000  Uiso   1.00
C501   C     0.17111   0.87415   0.40741   0.00000  Uiso   1.00
C502   C     0.16228   0.79251   0.09259   0.00000  Uiso   1.00
C503   C     0.16719   0.83316   0.38466   0.00000  Uiso   1.00
C504   C     0.24662   0.83306   0.24987   0.00000  Uiso   1.00
C505   C     0.16616   0.83351   0.11534   0.00000  Uiso   1.00
C506   C     0.16341   0.79208   0.40761   0.00000  Uiso   1.00
C507   C     0.16993   0.87458   0.09239   0.00000  Uiso   1.00
C508   C     0.16305   0.79159   0.45381   0.00000  Uiso   1.00
C509   C     0.17032   0.87507   0.04619   0.00000  Uiso   1.00
C510   C     0.16690   0.83316   0.47683   0.00000  Uiso   1.00
C511   C     0.16648   0.83350   0.02317   0.00000  Uiso   1.00
C512   C     0.17104   0.87445   0.45344   0.00000  Uiso   1.00
C513   C     0.16236   0.79220   0.04656   0.00000  Uiso   1.00
C514   C     0.15832   0.75054   0.47731   0.00000  Uiso   1.00
C515   C     0.15861   0.75115   0.02378   0.00000  Uiso   1.00
C516   C     0.17506   0.91612   0.02269   0.00000  Uiso   1.00
C517   C     0.11532   0.69295   0.45774   0.00000  Uiso   1.00
C518   C     0.21825   0.97329   0.04280   0.00000  Uiso   1.00
C519   C     0.04981   0.80135   0.15088   0.00000  Uiso   1.00
C520   C     0.28353   0.86535   0.34912   0.00000  Uiso   1.00
C521   C     0.29312   0.72922   0.20983   0.00000  Uiso   1.00
C522   C     0.04022   0.93744   0.29018   0.00000  Uiso   1.00
C523   C     0.17480   0.91551   0.47622   0.00000  Uiso   1.00
C524   C     0.02207   0.80475   0.22042   0.00000  Uiso   1.00
C525   C     0.31126   0.86192   0.27958   0.00000  Uiso   1.00
C526   C     0.31229   0.80229   0.22238   0.00000  Uiso   1.00
C527   C     0.02104   0.86437   0.27762   0.00000  Uiso   1.00
C528   C     0.29074   0.83235   0.25059   0.00000  Uiso   1.00
H529   H     0.17426   0.90588   0.38937   0.00000  Uiso   1.00
H530   H     0.21322   0.95714   0.29990   0.00000  Uiso   1.00
H531   H     0.11284   0.99619   0.43579   0.00000  Uiso   1.00
H532   H     0.09188   0.71848   0.44600   0.00000  Uiso   1.00
H533   H     0.10790   0.68174   0.49224   0.00000  Uiso   1.00
H534   H     0.24125   0.94767   0.05532   0.00000  Uiso   1.00
H535   H     0.22059   0.67031   0.06442   0.00000  Uiso   1.00
H536   H     0.22636   0.98396   0.00830   0.00000  Uiso   1.00
H537   H     0.06798   0.77961   0.12760   0.00000  Uiso   1.00
H538   H     0.06791   0.83296   0.15607   0.00000  Uiso   1.00
H539   H     0.01928   0.80940   0.13484   0.00000  Uiso   1.00
H540   H     0.15913   0.76078   0.11064   0.00000  Uiso   1.00
H541   H     0.26537   0.83376   0.34394   0.00000  Uiso   1.00
H542   H     0.26538   0.88712   0.37241   0.00000  Uiso   1.00
H543   H     0.31406   0.85726   0.36513   0.00000  Uiso   1.00
H544   H     0.27113   0.70817   0.19045   0.00000  Uiso   1.00
H545   H     0.28365   0.72688   0.24549   0.00000  Uiso   1.00
H546   H     0.32493   0.71451   0.20526   0.00000  Uiso   1.00
H547   H     0.04964   0.93980   0.25451   0.00000  Uiso   1.00
H548   H     0.06224   0.95848   0.30953   0.00000  Uiso   1.00
H549   H     0.00841   0.95216   0.29480   0.00000  Uiso   1.00
H550   H     0.16026   0.76059   0.38940   0.00000  Uiso   1.00
H551   H     0.17306   0.90608   0.11059   0.00000  Uiso   1.00
H552   H     0.15602   0.71952   0.04201   0.00000  Uiso   1.00
H553   H     0.17745   0.94714   0.45800   0.00000  Uiso   1.00
H554   H     0.21323   0.70830   0.29988   0.00000  Uiso   1.00
H555   H     0.12010   0.95837   0.20012   0.00000  Uiso   1.00
H556   H     0.12011   0.70953   0.20010   0.00000  Uiso   1.00
N557   N     0.16667   0.95240   0.25000   0.00000  Uiso   1.00
N558   N     0.16667   0.71427   0.25000   0.00000  Uiso   1.00
O559   O     0.10559   0.87154   0.25000   0.00000  Uiso   1.00
O560   O     0.17701   0.95701   0.04516   0.00000  Uiso   1.00
O561   O     0.04419   0.77735   0.19110   0.00000  Uiso   1.00
O562   O     0.28914   0.88934   0.30889   0.00000  Uiso   1.00
O563   O     0.29087   0.77419   0.19358   0.00000  Uiso   1.00
O564   O     0.04246   0.89247   0.30642   0.00000  Uiso   1.00
O565   O     0.22774   0.79513   0.25001   0.00000  Uiso   1.00
O566   O     0.22774   0.87154   0.25001   0.00000  Uiso   1.00
O567   O     0.10559   0.79513   0.25000   0.00000  Uiso   1.00
O568   O     0.16666   0.87156   0.18393   0.00000  Uiso   1.00
O569   O     0.16667   0.79511   0.31608   0.00000  Uiso   1.00
O570   O     0.16667   0.87156   0.31608   0.00000  Uiso   1.00
O571   O     0.16666   0.79511   0.18393   0.00000  Uiso   1.00
O572   O     0.15639   0.70967   0.45480   0.00000  Uiso   1.00
Zn573  Zn    0.16667   0.88437   0.25000   0.00000  Uiso   1.00
Zn574  Zn    0.16667   0.78229   0.25000   0.00000  Uiso   1.00
C575   C     0.42005   0.83361   0.25013   0.00000  Uiso   1.00
C576   C     0.37593   0.83431   0.24941   0.00000  Uiso   1.00
C577   C     0.52589   0.69033   0.27773   0.00000  Uiso   1.00
C578   C     0.47411   0.97634   0.22227   0.00000  Uiso   1.00
C579   C     0.47412   0.69102   0.22226   0.00000  Uiso   1.00
C580   C     0.52588   0.97565   0.27774   0.00000  Uiso   1.00
C581   C     0.49983   0.83339   0.16327   0.00000  Uiso   1.00
C582   C     0.50017   0.83328   0.33674   0.00000  Uiso   1.00
C583   C     0.50444   0.87415   0.40741   0.00000  Uiso   1.00
C584   C     0.49561   0.79251   0.09259   0.00000  Uiso   1.00
C585   C     0.50053   0.83316   0.38466   0.00000  Uiso   1.00
C586   C     0.57995   0.83306   0.24987   0.00000  Uiso   1.00
C587   C     0.49949   0.83351   0.11534   0.00000  Uiso   1.00
C588   C     0.49675   0.79208   0.40761   0.00000  Uiso   1.00
C589   C     0.50327   0.87458   0.09239   0.00000  Uiso   1.00
C590   C     0.49638   0.79159   0.45381   0.00000  Uiso   1.00
C591   C     0.50365   0.87507   0.04619   0.00000  Uiso   1.00
C592   C     0.50023   0.83316   0.47683   0.00000  Uiso   1.00
C593   C     0.49982   0.83350   0.02317   0.00000  Uiso   1.00
C594   C     0.50437   0.87445   0.45344   0.00000  Uiso   1.00
C595   C     0.49569   0.79220   0.04656   0.00000  Uiso   1.00
C596   C     0.49165   0.75054   0.47731   0.00000  Uiso   1.00
C597   C     0.49195   0.75115   0.02378   0.00000  Uiso   1.00
C598   C     0.50839   0.91612   0.02269   0.00000  Uiso   1.00
C599   C     0.44865   0.69295   0.45774   0.00000  Uiso   1.00
C600   C     0.55158   0.97329   0.04280   0.00000  Uiso   1.00
C601   C     0.38314   0.80135   0.15088   0.00000  Uiso   1.00
C602   C     0.61686   0.86535   0.34912   0.00000  Uiso   1.00
C603   C     0.62645   0.72922   0.20983   0.00000  Uiso   1.00
C604   C     0.37355   0.93744   0.29018   0.00000  Uiso   1.00
C605   C     0.50813   0.91551   0.47622   0.00000  Uiso   1.00
C606   C     0.35540   0.80475   0.22042   0.00000  Uiso   1.00
C607   C     0.64460   0.86192   0.27958   0.00000  Uiso   1.00
C608   C     0.64562   0.80229   0.22238   0.00000  Uiso   1.00
C609   C     0.35438   0.86437   0.27762   0.00000  Uiso   1.00
C610   C     0.62407   0.83235   0.25059   0.00000  Uiso   1.00
H611   H     0.50760   0.90588   0.38937   0.00000  Uiso   1.00
H612   H     0.54655   0.95714   0.29990   0.00000  Uiso   1.00
H613   H     0.44618   0.99619   0.43579   0.00000  Uiso   1.00
H614   H     0.42521   0.71848   0.44600   0.00000  Uiso   1.00
H615   H     0.44123   0.68174   0.49224   0.00000  Uiso   1.00
H616   H     0.57459   0.94767   0.05532   0.00000  Uiso   1.00
H617   H     0.55393   0.67031   0.06442   0.00000  Uiso   1.00
H618   H     0.55969   0.98396   0.00830   0.00000  Uiso   1.00
H619   H     0.40132   0.77961   0.12760   0.00000  Uiso   1.00
H620   H     0.40125   0.83296   0.15607   0.00000  Uiso   1.00
H621   H     0.35262   0.80940   0.13484   0.00000  Uiso   1.00
H622   H     0.49247   0.76078   0.11064   0.00000  Uiso   1.00
H623   H     0.59871   0.83376   0.34394   0.00000  Uiso   1.00
H624   H     0.59872   0.88712   0.37241   0.00000  Uiso   1.00
H625   H     0.64739   0.85726   0.36513   0.00000  Uiso   1.00
H626   H     0.60446   0.70817   0.19045   0.00000  Uiso   1.00
H627   H     0.61699   0.72688   0.24549   0.00000  Uiso   1.00
H628   H     0.65827   0.71451   0.20526   0.00000  Uiso   1.00
H629   H     0.38298   0.93980   0.25451   0.00000  Uiso   1.00
H630   H     0.39557   0.95848   0.30953   0.00000  Uiso   1.00
H631   H     0.34175   0.95216   0.29480   0.00000  Uiso   1.00
H632   H     0.49359   0.76059   0.38940   0.00000  Uiso   1.00
H633   H     0.50640   0.90608   0.11059   0.00000  Uiso   1.00
H634   H     0.48935   0.71952   0.04201   0.00000  Uiso   1.00
H635   H     0.51078   0.94714   0.45800   0.00000  Uiso   1.00
H636   H     0.54656   0.70830   0.29988   0.00000  Uiso   1.00
H637   H     0.45344   0.95837   0.20012   0.00000  Uiso   1.00
H638   H     0.45345   0.70953   0.20010   0.00000  Uiso   1.00
N639   N     0.50000   0.95240   0.25000   0.00000  Uiso   1.00
N640   N     0.50000   0.71427   0.25000   0.00000  Uiso   1.00
O641   O     0.43892   0.87154   0.25000   0.00000  Uiso   1.00
O642   O     0.51034   0.95701   0.04516   0.00000  Uiso   1.00
O643   O     0.37753   0.77735   0.19110   0.00000  Uiso   1.00
O644   O     0.62247   0.88934   0.30889   0.00000  Uiso   1.00
O645   O     0.62421   0.77419   0.19358   0.00000  Uiso   1.00
O646   O     0.37580   0.89247   0.30642   0.00000  Uiso   1.00
O647   O     0.56108   0.79513   0.25001   0.00000  Uiso   1.00
O648   O     0.56108   0.87154   0.25001   0.00000  Uiso   1.00
O649   O     0.43892   0.79513   0.25000   0.00000  Uiso   1.00
O650   O     0.49999   0.87156   0.18393   0.00000  Uiso   1.00
O651   O     0.50001   0.79511   0.31608   0.00000  Uiso   1.00
O652   O     0.50001   0.87156   0.31608   0.00000  Uiso   1.00
O653   O     0.49999   0.79511   0.18393   0.00000  Uiso   1.00
O654   O     0.48972   0.70967   0.45480   0.00000  Uiso   1.00
Zn655  Zn    0.50000   0.88437   0.25000   0.00000  Uiso   1.00
Zn656  Zn    0.50000   0.78229   0.25000   0.00000  Uiso   1.00
C657   C     0.75338   0.83361   0.25013   0.00000  Uiso   1.00
C658   C     0.70926   0.83431   0.24941   0.00000  Uiso   1.00
C659   C     0.85922   0.69033   0.27773   0.00000  Uiso   1.00
C660   C     0.80745   0.97634   0.22227   0.00000  Uiso   1.00
C661   C     0.80745   0.69102   0.22226   0.00000  Uiso   1.00
C662   C     0.85922   0.97565   0.27774   0.00000  Uiso   1.00
C663   C     0.83317   0.83339   0.16327   0.00000  Uiso   1.00
C664   C     0.83350   0.83328   0.33674   0.00000  Uiso   1.00
C665   C     0.83777   0.87415   0.40741   0.00000  Uiso   1.00
C666   C     0.82895   0.79251   0.09259   0.00000  Uiso   1.00
C667   C     0.83386   0.83316   0.38466   0.00000  Uiso   1.00
C668   C     0.91329   0.83306   0.24987   0.00000  Uiso   1.00
C669   C     0.83283   0.83351   0.11534   0.00000  Uiso   1.00
C670   C     0.83008   0.79208   0.40761   0.00000  Uiso   1.00
C671   C     0.83660   0.87458   0.09239   0.00000  Uiso   1.00
C672   C     0.82972   0.79159   0.45381   0.00000  Uiso   1.00
C673   C     0.83699   0.87507   0.04619   0.00000  Uiso   1.00
C674   C     0.83357   0.83316   0.47683   0.00000  Uiso   1.00
C675   C     0.83315   0.83350   0.02317   0.00000  Uiso   1.00
C676   C     0.83770   0.87445   0.45344   0.00000  Uiso   1.00
C677   C     0.82902   0.79220   0.04656   0.00000  Uiso   1.00
C678   C     0.82499   0.75054   0.47731   0.00000  Uiso   1.00
C679   C     0.82528   0.75115   0.02378   0.00000  Uiso   1.00
C680   C     0.84173   0.91612   0.02269   0.00000  Uiso   1.00
C681   C     0.78199   0.69295   0.45774   0.00000  Uiso   1.00
C682   C     0.88491   0.97329   0.04280   0.00000  Uiso   1.00
C683   C     0.71647   0.80135   0.15088   0.00000  Uiso   1.00
C684   C     0.95019   0.86535   0.34912   0.00000  Uiso   1.00
C685   C     0.95979   0.72922   0.20983   0.00000  Uiso   1.00
C686   C     0.70688   0.93744   0.29018   0.00000  Uiso   1.00
C687   C     0.84147   0.91551   0.47622   0.00000  Uiso   1.00
C688   C     0.68874   0.80475   0.22042   0.00000  Uiso   1.00
C689   C     0.97793   0.86192   0.27958   0.00000  Uiso   1.00
C690   C     0.97896   0.80229   0.22238   0.00000  Uiso   1.00
C691   C     0.68771   0.86437   0.27762   0.00000  Uiso   1.00
C692   C     0.95741   0.83235   0.25059   0.00000  Uiso   1.00
H693   H     0.84093   0.90588   0.38937   0.00000  Uiso   1.00
H694   H     0.87989   0.95714   0.29990   0.00000  Uiso   1.00
H695   H     0.77951   0.99619   0.43579   0.00000  Uiso   1.00
H696   H     0.75855   0.71848   0.44600   0.00000  Uiso   1.00
H697   H     0.77457   0.68174   0.49224   0.00000  Uiso   1.00
H698   H     0.90792   0.94767   0.05532   0.00000  Uiso   1.00
H699   H     0.88726   0.67031   0.06442   0.00000  Uiso   1.00
H700   H     0.89303   0.98396   0.00830   0.00000  Uiso   1.00
H701   H     0.73465   0.77961   0.12760   0.00000  Uiso   1.00
H702   H     0.73458   0.83296   0.15607   0.00000  Uiso   1.00
H703   H     0.68595   0.80940   0.13484   0.00000  Uiso   1.00
H704   H     0.82580   0.76078   0.11064   0.00000  Uiso   1.00
H705   H     0.93204   0.83376   0.34394   0.00000  Uiso   1.00
H706   H     0.93205   0.88712   0.37241   0.00000  Uiso   1.00
H707   H     0.98072   0.85726   0.36513   0.00000  Uiso   1.00
H708   H     0.93779   0.70817   0.19045   0.00000  Uiso   1.00
H709   H     0.95032   0.72688   0.24549   0.00000  Uiso   1.00
H710   H     0.99160   0.71451   0.20526   0.00000  Uiso   1.00
H711   H     0.71631   0.93980   0.25451   0.00000  Uiso   1.00
H712   H     0.72891   0.95848   0.30953   0.00000  Uiso   1.00
H713   H     0.67508   0.95216   0.29480   0.00000  Uiso   1.00
H714   H     0.82693   0.76059   0.38940   0.00000  Uiso   1.00
H715   H     0.83973   0.90608   0.11059   0.00000  Uiso   1.00
H716   H     0.82269   0.71952   0.04201   0.00000  Uiso   1.00
H717   H     0.84412   0.94714   0.45800   0.00000  Uiso   1.00
H718   H     0.87990   0.70830   0.29988   0.00000  Uiso   1.00
H719   H     0.78677   0.95837   0.20012   0.00000  Uiso   1.00
H720   H     0.78678   0.70953   0.20010   0.00000  Uiso   1.00
N721   N     0.83333   0.95240   0.25000   0.00000  Uiso   1.00
N722   N     0.83333   0.71427   0.25000   0.00000  Uiso   1.00
O723   O     0.77226   0.87154   0.25000   0.00000  Uiso   1.00
O724   O     0.84367   0.95701   0.04516   0.00000  Uiso   1.00
O725   O     0.71086   0.77735   0.19110   0.00000  Uiso   1.00
O726   O     0.95581   0.88934   0.30889   0.00000  Uiso   1.00
O727   O     0.95754   0.77419   0.19358   0.00000  Uiso   1.00
O728   O     0.70913   0.89247   0.30642   0.00000  Uiso   1.00
O729   O     0.89441   0.79513   0.25001   0.00000  Uiso   1.00
O730   O     0.89441   0.87154   0.25001   0.00000  Uiso   1.00
O731   O     0.77226   0.79513   0.25000   0.00000  Uiso   1.00
O732   O     0.83333   0.87156   0.18393   0.00000  Uiso   1.00
O733   O     0.83334   0.79511   0.31608   0.00000  Uiso   1.00
O734   O     0.83334   0.87156   0.31608   0.00000  Uiso   1.00
O735   O     0.83333   0.79511   0.18393   0.00000  Uiso   1.00
O736   O     0.82306   0.70967   0.45480   0.00000  Uiso   1.00
Zn737  Zn    0.83333   0.88437   0.25000   0.00000  Uiso   1.00
Zn738  Zn    0.83333   0.78229   0.25000   0.00000  Uiso   1.00
C739   C     0.08671   0.16694   0.75013   0.00000  Uiso   1.00
C740   C     0.04259   0.16765   0.74941   0.00000  Uiso   1.00
C741   C     0.19255   0.02366   0.77773   0.00000  Uiso   1.00
C742   C     0.14078   0.30967   0.72227   0.00000  Uiso   1.00
C743   C     0.14078   0.02435   0.72226   0.00000  Uiso   1.00
C744   C     0.19255   0.30898   0.77774   0.00000  Uiso   1.00
C745   C     0.16650   0.16672   0.66327   0.00000  Uiso   1.00
C746   C     0.16684   0.16661   0.83674   0.00000  Uiso   1.00
C747   C     0.17111   0.20748   0.90741   0.00000  Uiso   1.00
C748   C     0.16228   0.12585   0.59259   0.00000  Uiso   1.00
C749   C     0.16719   0.16649   0.88466   0.00000  Uiso   1.00
C750   C     0.24662   0.16639   0.74987   0.00000  Uiso   1.00
C751   C     0.16616   0.16684   0.61534   0.00000  Uiso   1.00
C752   C     0.16341   0.12542   0.90761   0.00000  Uiso   1.00
C753   C     0.16993   0.20792   0.59239   0.00000  Uiso   1.00
C754   C     0.16305   0.12492   0.95381   0.00000  Uiso   1.00
C755   C     0.17032   0.20841   0.54619   0.00000  Uiso   1.00
C756   C     0.16690   0.16649   0.97683   0.00000  Uiso   1.00
C757   C     0.16648   0.16683   0.52317   0.00000  Uiso   1.00
C758   C     0.17104   0.20779   0.95344   0.00000  Uiso   1.00
C759   C     0.16236   0.12554   0.54656   0.00000  Uiso   1.00
C760   C     0.15832   0.08387   0.97731   0.00000  Uiso   1.00
C761   C     0.15861   0.08448   0.52378   0.00000  Uiso   1.00
C762   C     0.17506   0.24945   0.52269   0.00000  Uiso   1.00
C763   C     0.11532   0.02628   0.95774   0.00000  Uiso   1.00
C764   C     0.21825   0.30662   0.54280   0.00000  Uiso   1.00
C765   C     0.04981   0.13468   0.65088   0.00000  Uiso   1.00
C766   C     0.28353   0.19868   0.84912   0.00000  Uiso   1.00
C767   C     0.29312   0.06255   0.70983   0.00000  Uiso   1.00
C768   C     0.04022   0.27078   0.79018   0.00000  Uiso   1.00
C769   C     0.17480   0.24884   0.97622   0.00000  Uiso   1.00
C770   C     0.02207   0.13809   0.72042   0.00000  Uiso   1.00
C771   C     0.31126   0.19525   0.77958   0.00000  Uiso   1.00
C772   C     0.31229   0.13563   0.72238   0.00000  Uiso   1.00
C773   C     0.02104   0.19771   0.77762   0.00000  Uiso   1.00
C774   C     0.29074   0.16569   0.75059   0.00000  Uiso   1.00
H775   H     0.17426   0.23922   0.88937   0.00000  Uiso   1.00
H776   H     0.21322   0.29047   0.79990   0.00000  Uiso   1.00
H777   H     0.11284   0.32953   0.93579   0.00000  Uiso   1.00
H778   H     0.09188   0.05182   0.94600   0.00000  Uiso   1.00
H779   H     0.10790   0.01507   0.99224   0.00000  Uiso   1.00
H780   H     0.24125   0.28100   0.55532   0.00000  Uiso   1.00
H781   H     0.22059   0.00365   0.56442   0.00000  Uiso   1.00
H782   H     0.22636   0.31729   0.50830   0.00000  Uiso   1.00
H783   H     0.06798   0.11294   0.62760   0.00000  Uiso   1.00
H784   H     0.06791   0.16629   0.65607   0.00000  Uiso   1.00
H785   H     0.01928   0.14273   0.63484   0.00000  Uiso   1.00
H786   H     0.15913   0.09411   0.61064   0.00000  Uiso   1.00
H787   H     0.26537   0.16709   0.84394   0.00000  Uiso   1.00
H788   H     0.26538   0.22046   0.87241   0.00000  Uiso   1.00
H789   H     0.31406   0.19060   0.86513   0.00000  Uiso   1.00
H790   H     0.27113   0.04151   0.69045   0.00000  Uiso   1.00
H791   H     0.28365   0.06021   0.74549   0.00000  Uiso   1.00
H792   H     0.32493   0.04784   0.70526   0.00000  Uiso   1.00
H793   H     0.04964   0.27313   0.75451   0.00000  Uiso   1.00
H794   H     0.06224   0.29181   0.80953   0.00000  Uiso   1.00
H795   H     0.00841   0.28549   0.79480   0.00000  Uiso   1.00
H796   H     0.16026   0.09392   0.88940   0.00000  Uiso   1.00
H797   H     0.17306   0.23941   0.61059   0.00000  Uiso   1.00
H798   H     0.15602   0.05285   0.54201   0.00000  Uiso   1.00
H799   H     0.17745   0.28047   0.95800   0.00000  Uiso   1.00
H800   H     0.21323   0.04163   0.79988   0.00000  Uiso   1.00
H801   H     0.12010   0.29170   0.70012   0.00000  Uiso   1.00
H802   H     0.12011   0.04286   0.70010   0.00000  Uiso   1.00
N803   N     0.16667   0.28573   0.75000   0.00000  Uiso   1.00
N804   N     0.16667   0.04760   0.75000   0.00000  Uiso   1.00
O805   O     0.10559   0.20487   0.75000   0.00000  Uiso   1.00
O806   O     0.17701   0.29034   0.54516   0.00000  Uiso   1.00
O807   O     0.04419   0.11068   0.69110   0.00000  Uiso   1.00
O808   O     0.28914   0.22267   0.80889   0.00000  Uiso   1.00
O809   O     0.29087   0.10752   0.69358   0.00000  Uiso   1.00
O810   O     0.04246   0.22581   0.80642   0.00000  Uiso   1.00
O811   O     0.22774   0.12846   0.75001   0.00000  Uiso   1.00
O812   O     0.22774   0.20487   0.75001   0.00000  Uiso   1.00
O813   O     0.10559   0.12846   0.75000   0.00000  Uiso   1.00
O814   O     0.16666   0.20489   0.68393   0.00000  Uiso   1.00
O815   O     0.16667   0.12844   0.81608   0.00000  Uiso   1.00
O816   O     0.16667   0.20489   0.81608   0.00000  Uiso   1.00
O817   O     0.16666   0.12844   0.68393   0.00000  Uiso   1.00
O818   O     0.15639   0.04300   0.95480   0.00000  Uiso   1.00
Zn819  Zn    0.16667   0.21771   0.75000   0.00000  Uiso   1.00
Zn820  Zn    0.16667   0.11563   0.75000   0.00000  Uiso   1.00
C821   C     0.42005   0.16694   0.75013   0.00000  Uiso   1.00
C822   C     0.37593   0.16765   0.74941   0.00000  Uiso   1.00
C823   C     0.52589   0.02366   0.77773   0.00000  Uiso   1.00
C824   C     0.47411   0.30967   0.72227   0.00000  Uiso   1.00
C825   C     0.47412   0.02435   0.72226   0.00000  Uiso   1.00
C826   C     0.52588   0.30898   0.77774   0.00000  Uiso   1.00
C827   C     0.49983   0.16672   0.66327   0.00000  Uiso   1.00
C828   C     0.50017   0.16661   0.83674   0.00000  Uiso   1.00
C829   C     0.50444   0.20748   0.90741   0.00000  Uiso   1.00
C830   C     0.49561   0.12585   0.59259   0.00000  Uiso   1.00
C831   C     0.50053   0.16649   0.88466   0.00000  Uiso   1.00
C832   C     0.57995   0.16639   0.74987   0.00000  Uiso   1.00
C833   C     0.49949   0.16684   0.61534   0.00000  Uiso   1.00
C834   C     0.49675   0.12542   0.90761   0.00000  Uiso   1.00
C835   C     0.50327   0.20792   0.59239   0.00000  Uiso   1.00
C836   C     0.49638   0.12492   0.95381   0.00000  Uiso   1.00
C837   C     0.50365   0.20841   0.54619   0.00000  Uiso   1.00
C838   C     0.50023   0.16649   0.97683   0.00000  Uiso   1.00
C839   C     0.49982   0.16683   0.52317   0.00000  Uiso   1.00
C840   C     0.50437   0.20779   0.95344   0.00000  Uiso   1.00
C841   C     0.49569   0.12554   0.54656   0.00000  Uiso   1.00
C842   C     0.49165   0.08387   0.97731   0.00000  Uiso   1.00
C843   C     0.49195   0.08448   0.52378   0.00000  Uiso   1.00
C844   C     0.50839   0.24945   0.52269   0.00000  Uiso   1.00
C845   C     0.44865   0.02628   0.95774   0.00000  Uiso   1.00
C846   C     0.55158   0.30662   0.54280   0.00000  Uiso   1.00
C847   C     0.38314   0.13468   0.65088   0.00000  Uiso   1.00
C848   C     0.61686   0.19868   0.84912   0.00000  Uiso   1.00
C849   C     0.62645   0.06255   0.70983   0.00000  Uiso   1.00
C850   C     0.37355   0.27078   0.79018   0.00000  Uiso   1.00
C851   C     0.50813   0.24884   0.97622   0.00000  Uiso   1.00
C852   C     0.35540   0.13809   0.72042   0.00000  Uiso   1.00
C853   C     0.64460   0.19525   0.77958   0.00000  Uiso   1.00
C854   C     0.64562   0.13563   0.72238   0.00000  Uiso   1.00
C855   C     0.35438   0.19771   0.77762   0.00000  Uiso   1.00
C856   C     0.62407   0.16569   0.75059   0.00000  Uiso   1.00
H857   H     0.50760   0.23922   0.88937   0.00000  Uiso   1.00
H858   H     0.54655   0.29047   0.79990   0.00000  Uiso   1.00
H859   H     0.44618   0.32953   0.93579   0.00000  Uiso   1.00
H860   H     0.42521   0.05182   0.94600   0.00000  Uiso   1.00
H861   H     0.44123   0.01507   0.99224   0.00000  Uiso   1.00
H862   H     0.57459   0.28100   0.55532   0.00000  Uiso   1.00
H863   H     0.55393   0.00365   0.56442   0.00000  Uiso   1.00
H864   H     0.55969   0.31729   0.50830   0.00000  Uiso   1.00
H865   H     0.40132   0.11294   0.62760   0.00000  Uiso   1.00
H866   H     0.40125   0.16629   0.65607   0.00000  Uiso   1.00
H867   H     0.35262   0.14273   0.63484   0.00000  Uiso   1.00
H868   H     0.49247   0.09411   0.61064   0.00000  Uiso   1.00
H869   H     0.59871   0.16709   0.84394   0.00000  Uiso   1.00
H870   H     0.59872   0.22046   0.87241   0.00000  Uiso   1.00
H871   H     0.64739   0.19060   0.86513   0.00000  Uiso   1.00
H872   H     0.60446   0.04151   0.69045   0.00000  Uiso   1.00
H873   H     0.61699   0.06021   0.74549   0.00000  Uiso   1.00
H874   H     0.65827   0.04784   0.70526   0.00000  Uiso   1.00
H875   H     0.38298   0.27313   0.75451   0.00000  Uiso   1.00
H876   H     0.39557   0.29181   0.80953   0.00000  Uiso   1.00
H877   H     0.34175   0.28549   0.79480   0.00000  Uiso   1.00
H878   H     0.49359   0.09392   0.88940   0.00000  Uiso   1.00
H879   H     0.50640   0.23941   0.61059   0.00000  Uiso   1.00
H880   H     0.48935   0.05285   0.54201   0.00000  Uiso   1.00
H881   H     0.51078   0.28047   0.95800   0.00000  Uiso   1.00
H882   H     0.54656   0.04163   0.79988   0.00000  Uiso   1.00
H883   H     0.45344   0.29170   0.70012   0.00000  Uiso   1.00
H884   H     0.45345   0.04286   0.70010   0.00000  Uiso   1.00
N885   N     0.50000   0.28573   0.75000   0.00000  Uiso   1.00
N886   N     0.50000   0.04760   0.75000   0.00000  Uiso   1.00
O887   O     0.43892   0.20487   0.75000   0.00000  Uiso   1.00
O888   O     0.51034   0.29034   0.54516   0.00000  Uiso   1.00
O889   O     0.37753   0.11068   0.69110   0.00000  Uiso   1.00
O890   O     0.62247   0.22267   0.80889   0.00000  Uiso   1.00
O891   O     0.62421   0.10752   0.69358   0.00000  Uiso   1.00
O892   O     0.37580   0.22581   0.80642   0.00000  Uiso   1.00
O893   O     0.56108   0.12846   0.75001   0.00000  Uiso   1.00
O894   O     0.56108   0.20487   0.75001   0.00000  Uiso   1.00
O895   O     0.43892   0.12846   0.75000   0.00000  Uiso   1.00
O896   O     0.49999   0.20489   0.68393   0.00000  Uiso   1.00
O897   O     0.50001   0.12844   0.81608   0.00000  Uiso   1.00
O898   O     0.50001   0.20489   0.81608   0.00000  Uiso   1.00
O899   O     0.49999   0.12844   0.68393   0.00000  Uiso   1.00
O900   O     0.48972   0.04300   0.95480   0.00000  Uiso   1.00
Zn901  Zn    0.50000   0.21771   0.75000   0.00000  Uiso   1.00
Zn902  Zn    0.50000   0.11563   0.75000   0.00000  Uiso   1.00
C903   C     0.75338   0.16694   0.75013   0.00000  Uiso   1.00
C904   C     0.70926   0.16765   0.74941   0.00000  Uiso   1.00
C905   C     0.85922   0.02366   0.77773   0.00000  Uiso   1.00
C906   C     0.80745   0.30967   0.72227   0.00000  Uiso   1.00
C907   C     0.80745   0.02435   0.72226   0.00000  Uiso   1.00
C908   C     0.85922   0.30898   0.77774   0.00000  Uiso   1.00
C909   C     0.83317   0.16672   0.66327   0.00000  Uiso   1.00
C910   C     0.83350   0.16661   0.83674   0.00000  Uiso   1.00
C911   C     0.83777   0.20748   0.90741   0.00000  Uiso   1.00
C912   C     0.82895   0.12585   0.59259   0.00000  Uiso   1.00
C913   C     0.83386   0.16649   0.88466   0.00000  Uiso   1.00
C914   C     0.91329   0.16639   0.74987   0.00000  Uiso   1.00
C915   C     0.83283   0.16684   0.61534   0.00000  Uiso   1.00
C916   C     0.83008   0.12542   0.90761   0.00000  Uiso   1.00
C917   C     0.83660   0.20792   0.59239   0.00000  Uiso   1.00
C918   C     0.82972   0.12492   0.95381   0.00000  Uiso   1.00
C919   C     0.83699   0.20841   0.54619   0.00000  Uiso   1.00
C920   C     0.83357   0.16649   0.97683   0.00000  Uiso   1.00
C921   C     0.83315   0.16683   0.52317   0.00000  Uiso   1.00
C922   C     0.83770   0.20779   0.95344   0.00000  Uiso   1.00
C923   C     0.82902   0.12554   0.54656   0.00000  Uiso   1.00
C924   C     0.82499   0.08387   0.97731   0.00000  Uiso   1.00
C925   C     0.82528   0.08448   0.52378   0.00000  Uiso   1.00
C926   C     0.84173   0.24945   0.52269   0.00000  Uiso   1.00
C927   C     0.78199   0.02628   0.95774   0.00000  Uiso   1.00
C928   C     0.88491   0.30662   0.54280   0.00000  Uiso   1.00
C929   C     0.71647   0.13468   0.65088   0.00000  Uiso   1.00
C930   C     0.95019   0.19868   0.84912   0.00000  Uiso   1.00
C931   C     0.95979   0.06255   0.70983   0.00000  Uiso   1.00
C932   C     0.70688   0.27078   0.79018   0.00000  Uiso   1.00
C933   C     0.84147   0.24884   0.97622   0.00000  Uiso   1.00
C934   C     0.68874   0.13809   0.72042   0.00000  Uiso   1.00
C935   C     0.97793   0.19525   0.77958   0.00000  Uiso   1.00
C936   C     0.97896   0.13563   0.72238   0.00000  Uiso   1.00
C937   C     0.68771   0.19771   0.77762   0.00000  Uiso   1.00
C938   C     0.95741   0.16569   0.75059   0.00000  Uiso   1.00
H939   H     0.84093   0.23922   0.88937   0.00000  Uiso   1.00
H940   H     0.87989   0.29047   0.79990   0.00000  Uiso   1.00
H941   H     0.77951   0.32953   0.93579   0.00000  Uiso   1.00
H942   H     0.75855   0.05182   0.94600   0.00000  Uiso   1.00
H943   H     0.77457   0.01507   0.99224   0.00000  Uiso   1.00
H944   H     0.90792   0.28100   0.55532   0.00000  Uiso   1.00
H945   H     0.88726   0.00365   0.56442   0.00000  Uiso   1.00
H946   H     0.89303   0.31729   0.50830   0.00000  Uiso   1.00
H947   H     0.73465   0.11294   0.62760   0.00000  Uiso   1.00
H948   H     0.73458   0.16629   0.65607   0.00000  Uiso   1.00
H949   H     0.68595   0.14273   0.63484   0.00000  Uiso   1.00
H950   H     0.82580   0.09411   0.61064   0.00000  Uiso   1.00
H951   H     0.93204   0.16709   0.84394   0.00000  Uiso   1.00
H952   H     0.93205   0.22046   0.87241   0.00000  Uiso   1.00
H953   H     0.98072   0.19060   0.86513   0.00000  Uiso   1.00
H954   H     0.93779   0.04151   0.69045   0.00000  Uiso   1.00
H955   H     0.95032   0.06021   0.74549   0.00000  Uiso   1.00
H956   H     0.99160   0.04784   0.70526   0.00000  Uiso   1.00
H957   H     0.71631   0.27313   0.75451   0.00000  Uiso   1.00
H958   H     0.72891   0.29181   0.80953   0.00000  Uiso   1.00
H959   H     0.67508   0.28549   0.79480   0.00000  Uiso   1.00
H960   H     0.82693   0.09392   0.88940   0.00000  Uiso   1.00
H961   H     0.83973   0.23941   0.61059   0.00000  Uiso   1.00
H962   H     0.82269   0.05285   0.54201   0.00000  Uiso   1.00
H963   H     0.84412   0.28047   0.95800   0.00000  Uiso   1.00
H964   H     0.87990   0.04163   0.79988   0.00000  Uiso   1.00
H965   H     0.78677   0.29170   0.70012   0.00000  Uiso   1.00
H966   H     0.78678   0.04286   0.70010   0.00000  Uiso   1.00
N967   N     0.83333   0.28573   0.75000   0.00000  Uiso   1.00
N968   N     0.83333   0.04760   0.75000   0.00000  Uiso   1.00
O969   O     0.77226   0.20487   0.75000   0.00000  Uiso   1.00
O970   O     0.84367   0.29034   0.54516   0.00000  Uiso   1.00
O971   O     0.71086   0.11068   0.69110   0.00000  Uiso   1.00
O972   O     0.95581   0.22267   0.80889   0.00000  Uiso   1.00
O973   O     0.95754   0.10752   0.69358   0.00000  Uiso   1.00
O974   O     0.70913   0.22581   0.80642   0.00000  Uiso   1.00
O975   O     0.89441   0.12846   0.75001   0.00000  Uiso   1.00
O976   O     0.89441   0.20487   0.75001   0.00000  Uiso   1.00
O977   O     0.77226   0.12846   0.75000   0.00000  Uiso   1.00
O978   O     0.83333   0.20489   0.68393   0.00000  Uiso   1.00
O979   O     0.83334   0.12844   0.81608   0.00000  Uiso   1.00
O980   O     0.83334   0.20489   0.81608   0.00000  Uiso   1.00
O981   O     0.83333   0.12844   0.68393   0.00000  Uiso   1.00
O982   O     0.82306   0.04300   0.95480   0.00000  Uiso   1.00
Zn983  Zn    0.83333   0.21771   0.75000   0.00000  Uiso   1.00
Zn984  Zn    0.83333   0.11563   0.75000   0.00000  Uiso   1.00
C985   C     0.08671   0.50027   0.75013   0.00000  Uiso   1.00
C986   C     0.04259   0.50098   0.74941   0.00000  Uiso   1.00
C987   C     0.19255   0.35700   0.77773   0.00000  Uiso   1.00
C988   C     0.14078   0.64300   0.72227   0.00000  Uiso   1.00
C989   C     0.14078   0.35768   0.72226   0.00000  Uiso   1.00
C990   C     0.19255   0.64232   0.77774   0.00000  Uiso   1.00
C991   C     0.16650   0.50005   0.66327   0.00000  Uiso   1.00
C992   C     0.16684   0.49994   0.83674   0.00000  Uiso   1.00
C993   C     0.17111   0.54081   0.90741   0.00000  Uiso   1.00
C994   C     0.16228   0.45918   0.59259   0.00000  Uiso   1.00
C995   C     0.16719   0.49982   0.88466   0.00000  Uiso   1.00
C996   C     0.24662   0.49973   0.74987   0.00000  Uiso   1.00
C997   C     0.16616   0.50017   0.61534   0.00000  Uiso   1.00
C998   C     0.16341   0.45875   0.90761   0.00000  Uiso   1.00
C999   C     0.16993   0.54125   0.59239   0.00000  Uiso   1.00
C1000  C     0.16305   0.45825   0.95381   0.00000  Uiso   1.00
C1001  C     0.17032   0.54174   0.54619   0.00000  Uiso   1.00
C1002  C     0.16690   0.49982   0.97683   0.00000  Uiso   1.00
C1003  C     0.16648   0.50017   0.52317   0.00000  Uiso   1.00
C1004  C     0.17104   0.54112   0.95344   0.00000  Uiso   1.00
C1005  C     0.16236   0.45887   0.54656   0.00000  Uiso   1.00
C1006  C     0.15832   0.41721   0.97731   0.00000  Uiso   1.00
C1007  C     0.15861   0.41781   0.52378   0.00000  Uiso   1.00
C1008  C     0.17506   0.58278   0.52269   0.00000  Uiso   1.00
C1009  C     0.11532   0.35961   0.95774   0.00000  Uiso   1.00
C1010  C     0.21825   0.63996   0.54280   0.00000  Uiso   1.00
C1011  C     0.04981   0.46802   0.65088   0.00000  Uiso   1.00
C1012  C     0.28353   0.53202   0.84912   0.00000  Uiso   1.00
C1013  C     0.29312   0.39589   0.70983   0.00000  Uiso   1.00
C1014  C     0.04022   0.60411   0.79018   0.00000  Uiso   1.00
C1015  C     0.17480   0.58218   0.97622   0.00000  Uiso   1.00
C1016  C     0.02207   0.47142   0.72042   0.00000  Uiso   1.00
C1017  C     0.31126   0.52858   0.77958   0.00000  Uiso   1.00
C1018  C     0.31229   0.46896   0.72238   0.00000  Uiso   1.00
C1019  C     0.02104   0.53104   0.77762   0.00000  Uiso   1.00
C1020  C     0.29074   0.49902   0.75059   0.00000  Uiso   1.00
H1021  H     0.17426   0.57255   0.88937   0.00000  Uiso   1.00
H1022  H     0.21322   0.62380   0.79990   0.00000  Uiso   1.00
H1023  H     0.11284   0.66286   0.93579   0.00000  Uiso   1.00
H1024  H     0.09188   0.38515   0.94600   0.00000  Uiso   1.00
H1025  H     0.10790   0.34840   0.99224   0.00000  Uiso   1.00
H1026  H     0.24125   0.61433   0.55532   0.00000  Uiso   1.00
H1027  H     0.22059   0.33698   0.56442   0.00000  Uiso   1.00
H1028  H     0.22636   0.65063   0.50830   0.00000  Uiso   1.00
H1029  H     0.06798   0.44628   0.62760   0.00000  Uiso   1.00
H1030  H     0.06791   0.49962   0.65607   0.00000  Uiso   1.00
H1031  H     0.01928   0.47606   0.63484   0.00000  Uiso   1.00
H1032  H     0.15913   0.42744   0.61064   0.00000  Uiso   1.00
H1033  H     0.26537   0.50043   0.84394   0.00000  Uiso   1.00
H1034  H     0.26538   0.55379   0.87241   0.00000  Uiso   1.00
H1035  H     0.31406   0.52393   0.86513   0.00000  Uiso   1.00
H1036  H     0.27113   0.37484   0.69045   0.00000  Uiso   1.00
H1037  H     0.28365   0.39354   0.74549   0.00000  Uiso   1.00
H1038  H     0.32493   0.38118   0.70526   0.00000  Uiso   1.00
H1039  H     0.04964   0.60646   0.75451   0.00000  Uiso   1.00
H1040  H     0.06224   0.62514   0.80953   0.00000  Uiso   1.00
H1041  H     0.00841   0.61883   0.79480   0.00000  Uiso   1.00
H1042  H     0.16026   0.42726   0.88940   0.00000  Uiso   1.00
H1043  H     0.17306   0.57275   0.61059   0.00000  Uiso   1.00
H1044  H     0.15602   0.38618   0.54201   0.00000  Uiso   1.00
H1045  H     0.17745   0.61381   0.95800   0.00000  Uiso   1.00
H1046  H     0.21323   0.37497   0.79988   0.00000  Uiso   1.00
H1047  H     0.12010   0.62503   0.70012   0.00000  Uiso   1.00
H1048  H     0.12011   0.37620   0.70010   0.00000  Uiso   1.00
N1049  N     0.16667   0.61907   0.75000   0.00000  Uiso   1.00
N1050  N     0.16667   0.38093   0.75000   0.00000  Uiso   1.00
O1051  O     0.10559   0.53821   0.75000   0.00000  Uiso   1.00
O1052  O     0.17701   0.62367   0.54516   0.00000  Uiso   1.00
O1053  O     0.04419   0.44401   0.69110   0.00000  Uiso   1.00
O1054  O     0.28914   0.55600   0.80889   0.00000  Uiso   1.00
O1055  O     0.29087   0.44086   0.69358   0.00000  Uiso   1.00
O1056  O     0.04246   0.55914   0.80642   0.00000  Uiso   1.00
O1057  O     0.22774   0.46179   0.75001   0.00000  Uiso   1.00
O1058  O     0.22774   0.53821   0.75001   0.00000  Uiso   1.00
O1059  O     0.10559   0.46179   0.75000   0.00000  Uiso   1.00
O1060  O     0.16666   0.53823   0.68393   0.00000  Uiso   1.00
O1061  O     0.16667   0.46177   0.81608   0.00000  Uiso   1.00
O1062  O     0.16667   0.53823   0.81608   0.00000  Uiso   1.00
O1063  O     0.16666   0.46177   0.68393   0.00000  Uiso   1.00
O1064  O     0.15639   0.37633   0.95480   0.00000  Uiso   1.00
Zn1065 Zn    0.16667   0.55104   0.75000   0.00000  Uiso   1.00
Zn1066 Zn    0.16667   0.44896   0.75000   0.00000  Uiso   1.00
C1067  C     0.42005   0.50027   0.75013   0.00000  Uiso   1.00
C1068  C     0.37593   0.50098   0.74941   0.00000  Uiso   1.00
C1069  C     0.52589   0.35700   0.77773   0.00000  Uiso   1.00
C1070  C     0.47411   0.64300   0.72227   0.00000  Uiso   1.00
C1071  C     0.47412   0.35768   0.72226   0.00000  Uiso   1.00
C1072  C     0.52588   0.64232   0.77774   0.00000  Uiso   1.00
C1073  C     0.49983   0.50005   0.66327   0.00000  Uiso   1.00
C1074  C     0.50017   0.49994   0.83674   0.00000  Uiso   1.00
C1075  C     0.50444   0.54081   0.90741   0.00000  Uiso   1.00
C1076  C     0.49561   0.45918   0.59259   0.00000  Uiso   1.00
C1077  C     0.50053   0.49982   0.88466   0.00000  Uiso   1.00
C1078  C     0.57995   0.49973   0.74987   0.00000  Uiso   1.00
C1079  C     0.49949   0.50017   0.61534   0.00000  Uiso   1.00
C1080  C     0.49675   0.45875   0.90761   0.00000  Uiso   1.00
C1081  C     0.50327   0.54125   0.59239   0.00000  Uiso   1.00
C1082  C     0.49638   0.45825   0.95381   0.00000  Uiso   1.00
C1083  C     0.50365   0.54174   0.54619   0.00000  Uiso   1.00
C1084  C     0.50023   0.49982   0.97683   0.00000  Uiso   1.00
C1085  C     0.49982   0.50017   0.52317   0.00000  Uiso   1.00
C1086  C     0.50437   0.54112   0.95344   0.00000  Uiso   1.00
C1087  C     0.49569   0.45887   0.54656   0.00000  Uiso   1.00
C1088  C     0.49165   0.41721   0.97731   0.00000  Uiso   1.00
C1089  C     0.49195   0.41781   0.52378   0.00000  Uiso   1.00
C1090  C     0.50839   0.58278   0.52269   0.00000  Uiso   1.00
C1091  C     0.44865   0.35961   0.95774   0.00000  Uiso   1.00
C1092  C     0.55158   0.63996   0.54280   0.00000  Uiso   1.00
C1093  C     0.38314   0.46802   0.65088   0.00000  Uiso   1.00
C1094  C     0.61686   0.53202   0.84912   0.00000  Uiso   1.00
C1095  C     0.62645   0.39589   0.70983   0.00000  Uiso   1.00
C1096  C     0.37355   0.60411   0.79018   0.00000  Uiso   1.00
C1097  C     0.50813   0.58218   0.97622   0.00000  Uiso   1.00
C1098  C     0.35540   0.47142   0.72042   0.00000  Uiso   1.00
C1099  C     0.64460   0.52858   0.77958   0.00000  Uiso   1.00
C1100  C     0.64562   0.46896   0.72238   0.00000  Uiso   1.00
C1101  C     0.35438   0.53104   0.77762   0.00000  Uiso   1.00
C1102  C     0.62407   0.49902   0.75059   0.00000  Uiso   1.00
H1103  H     0.50760   0.57255   0.88937   0.00000  Uiso   1.00
H1104  H     0.54655   0.62380   0.79990   0.00000  Uiso   1.00
H1105  H     0.44618   0.66286   0.93579   0.00000  Uiso   1.00
H1106  H     0.42521   0.38515   0.94600   0.00000  Uiso   1.00
H1107  H     0.44123   0.34840   0.99224   0.00000  Uiso   1.00
H1108  H     0.57459   0.61433   0.55532   0.00000  Uiso   1.00
H1109  H     0.55393   0.33698   0.56442   0.00000  Uiso   1.00
H1110  H     0.55969   0.65063   0.50830   0.00000  Uiso   1.00
H1111  H     0.40132   0.44628   0.62760   0.00000  Uiso   1.00
H1112  H     0.40125   0.49962   0.65607   0.00000  Uiso   1.00
H1113  H     0.35262   0.47606   0.63484   0.00000  Uiso   1.00
H1114  H     0.49247   0.42744   0.61064   0.00000  Uiso   1.00
H1115  H     0.59871   0.50043   0.84394   0.00000  Uiso   1.00
H1116  H     0.59872   0.55379   0.87241   0.00000  Uiso   1.00
H1117  H     0.64739   0.52393   0.86513   0.00000  Uiso   1.00
H1118  H     0.60446   0.37484   0.69045   0.00000  Uiso   1.00
H1119  H     0.61699   0.39354   0.74549   0.00000  Uiso   1.00
H1120  H     0.65827   0.38118   0.70526   0.00000  Uiso   1.00
H1121  H     0.38298   0.60646   0.75451   0.00000  Uiso   1.00
H1122  H     0.39557   0.62514   0.80953   0.00000  Uiso   1.00
H1123  H     0.34175   0.61883   0.79480   0.00000  Uiso   1.00
H1124  H     0.49359   0.42726   0.88940   0.00000  Uiso   1.00
H1125  H     0.50640   0.57275   0.61059   0.00000  Uiso   1.00
H1126  H     0.48935   0.38618   0.54201   0.00000  Uiso   1.00
H1127  H     0.51078   0.61381   0.95800   0.00000  Uiso   1.00
H1128  H     0.54656   0.37497   0.79988   0.00000  Uiso   1.00
H1129  H     0.45344   0.62503   0.70012   0.00000  Uiso   1.00
H1130  H     0.45345   0.37620   0.70010   0.00000  Uiso   1.00
N1131  N     0.50000   0.61907   0.75000   0.00000  Uiso   1.00
N1132  N     0.50000   0.38093   0.75000   0.00000  Uiso   1.00
O1133  O     0.43892   0.53821   0.75000   0.00000  Uiso   1.00
O1134  O     0.51034   0.62367   0.54516   0.00000  Uiso   1.00
O1135  O     0.37753   0.44401   0.69110   0.00000  Uiso   1.00
O1136  O     0.62247   0.55600   0.80889   0.00000  Uiso   1.00
O1137  O     0.62421   0.44086   0.69358   0.00000  Uiso   1.00
O1138  O     0.37580   0.55914   0.80642   0.00000  Uiso   1.00
O1139  O     0.56108   0.46179   0.75001   0.00000  Uiso   1.00
O1140  O     0.56108   0.53821   0.75001   0.00000  Uiso   1.00
O1141  O     0.43892   0.46179   0.75000   0.00000  Uiso   1.00
O1142  O     0.49999   0.53823   0.68393   0.00000  Uiso   1.00
O1143  O     0.50001   0.46177   0.81608   0.00000  Uiso   1.00
O1144  O     0.50001   0.53823   0.81608   0.00000  Uiso   1.00
O1145  O     0.49999   0.46177   0.68393   0.00000  Uiso   1.00
O1146  O     0.48972   0.37633   0.95480   0.00000  Uiso   1.00
Zn1147 Zn    0.50000   0.55104   0.75000   0.00000  Uiso   1.00
Zn1148 Zn    0.50000   0.44896   0.75000   0.00000  Uiso   1.00
C1149  C     0.75338   0.50027   0.75013   0.00000  Uiso   1.00
C1150  C     0.70926   0.50098   0.74941   0.00000  Uiso   1.00
C1151  C     0.85922   0.35700   0.77773   0.00000  Uiso   1.00
C1152  C     0.80745   0.64300   0.72227   0.00000  Uiso   1.00
C1153  C     0.80745   0.35768   0.72226   0.00000  Uiso   1.00
C1154  C     0.85922   0.64232   0.77774   0.00000  Uiso   1.00
C1155  C     0.83317   0.50005   0.66327   0.00000  Uiso   1.00
C1156  C     0.83350   0.49994   0.83674   0.00000  Uiso   1.00
C1157  C     0.83777   0.54081   0.90741   0.00000  Uiso   1.00
C1158  C     0.82895   0.45918   0.59259   0.00000  Uiso   1.00
C1159  C     0.83386   0.49982   0.88466   0.00000  Uiso   1.00
C1160  C     0.91329   0.49973   0.74987   0.00000  Uiso   1.00
C1161  C     0.83283   0.50017   0.61534   0.00000  Uiso   1.00
C1162  C     0.83008   0.45875   0.90761   0.00000  Uiso   1.00
C1163  C     0.83660   0.54125   0.59239   0.00000  Uiso   1.00
C1164  C     0.82972   0.45825   0.95381   0.00000  Uiso   1.00
C1165  C     0.83699   0.54174   0.54619   0.00000  Uiso   1.00
C1166  C     0.83357   0.49982   0.97683   0.00000  Uiso   1.00
C1167  C     0.83315   0.50017   0.52317   0.00000  Uiso   1.00
C1168  C     0.83770   0.54112   0.95344   0.00000  Uiso   1.00
C1169  C     0.82902   0.45887   0.54656   0.00000  Uiso   1.00
C1170  C     0.82499   0.41721   0.97731   0.00000  Uiso   1.00
C1171  C     0.82528   0.41781   0.52378   0.00000  Uiso   1.00
C1172  C     0.84173   0.58278   0.52269   0.00000  Uiso   1.00
C1173  C     0.78199   0.35961   0.95774   0.00000  Uiso   1.00
C1174  C     0.88491   0.63996   0.54280   0.00000  Uiso   1.00
C1175  C     0.71647   0.46802   0.65088   0.00000  Uiso   1.00
C1176  C     0.95019   0.53202   0.84912   0.00000  Uiso   1.00
C1177  C     0.95979   0.39589   0.70983   0.00000  Uiso   1.00
C1178  C     0.70688   0.60411   0.79018   0.00000  Uiso   1.00
C1179  C     0.84147   0.58218   0.97622   0.00000  Uiso   1.00
C1180  C     0.68874   0.47142   0.72042   0.00000  Uiso   1.00
C1181  C     0.97793   0.52858   0.77958   0.00000  Uiso   1.00
C1182  C     0.97896   0.46896   0.72238   0.00000  Uiso   1.00
C1183  C     0.68771   0.53104   0.77762   0.00000  Uiso   1.00
C1184  C     0.95741   0.49902   0.75059   0.00000  Uiso   1.00
H1185  H     0.84093   0.57255   0.88937   0.00000  Uiso   1.00
H1186  H     0.87989   0.62380   0.79990   0.00000  Uiso   1.00
H1187  H     0.77951   0.66286   0.93579   0.00000  Uiso   1.00
H1188  H     0.75855   0.38515   0.94600   0.00000  Uiso   1.00
H1189  H     0.77457   0.34840   0.99224   0.00000  Uiso   1.00
H1190  H     0.90792   0.61433   0.55532   0.00000  Uiso   1.00
H1191  H     0.88726   0.33698   0.56442   0.00000  Uiso   1.00
H1192  H     0.89303   0.65063   0.50830   0.00000  Uiso   1.00
H1193  H     0.73465   0.44628   0.62760   0.00000  Uiso   1.00
H1194  H     0.73458   0.49962   0.65607   0.00000  Uiso   1.00
H1195  H     0.68595   0.47606   0.63484   0.00000  Uiso   1.00
H1196  H     0.82580   0.42744   0.61064   0.00000  Uiso   1.00
H1197  H     0.93204   0.50043   0.84394   0.00000  Uiso   1.00
H1198  H     0.93205   0.55379   0.87241   0.00000  Uiso   1.00
H1199  H     0.98072   0.52393   0.86513   0.00000  Uiso   1.00
H1200  H     0.93779   0.37484   0.69045   0.00000  Uiso   1.00
H1201  H     0.95032   0.39354   0.74549   0.00000  Uiso   1.00
H1202  H     0.99160   0.38118   0.70526   0.00000  Uiso   1.00
H1203  H     0.71631   0.60646   0.75451   0.00000  Uiso   1.00
H1204  H     0.72891   0.62514   0.80953   0.00000  Uiso   1.00
H1205  H     0.67508   0.61883   0.79480   0.00000  Uiso   1.00
H1206  H     0.82693   0.42726   0.88940   0.00000  Uiso   1.00
H1207  H     0.83973   0.57275   0.61059   0.00000  Uiso   1.00
H1208  H     0.82269   0.38618   0.54201   0.00000  Uiso   1.00
H1209  H     0.84412   0.61381   0.95800   0.00000  Uiso   1.00
H1210  H     0.87990   0.37497   0.79988   0.00000  Uiso   1.00
H1211  H     0.78677   0.62503   0.70012   0.00000  Uiso   1.00
H1212  H     0.78678   0.37620   0.70010   0.00000  Uiso   1.00
N1213  N     0.83333   0.61907   0.75000   0.00000  Uiso   1.00
N1214  N     0.83333   0.38093   0.75000   0.00000  Uiso   1.00
O1215  O     0.77226   0.53821   0.75000   0.00000  Uiso   1.00
O1216  O     0.84367   0.62367   0.54516   0.00000  Uiso   1.00
O1217  O     0.71086   0.44401   0.69110   0.00000  Uiso   1.00
O1218  O     0.95581   0.55600   0.80889   0.00000  Uiso   1.00
O1219  O     0.95754   0.44086   0.69358   0.00000  Uiso   1.00
O1220  O     0.70913   0.55914   0.80642   0.00000  Uiso   1.00
O1221  O     0.89441   0.46179   0.75001   0.00000  Uiso   1.00
O1222  O     0.89441   0.53821   0.75001   0.00000  Uiso   1.00
O1223  O     0.77226   0.46179   0.75000   0.00000  Uiso   1.00
O1224  O     0.83333   0.53823   0.68393   0.00000  Uiso   1.00
O1225  O     0.83334   0.46177   0.81608   0.00000  Uiso   1.00
O1226  O     0.83334   0.53823   0.81608   0.00000  Uiso   1.00
O1227  O     0.83333   0.46177   0.68393   0.00000  Uiso   1.00
O1228  O     0.82306   0.37633   0.95480   0.00000  Uiso   1.00
Zn1229 Zn    0.83333   0.55104   0.75000   0.00000  Uiso   1.00
Zn1230 Zn    0.83333   0.44896   0.75000   0.00000  Uiso   1.00
C1231  C     0.08671   0.83361   0.75013   0.00000  Uiso   1.00
C1232  C     0.04259   0.83431   0.74941   0.00000  Uiso   1.00
C1233  C     0.19255   0.69033   0.77773   0.00000  Uiso   1.00
C1234  C     0.14078   0.97634   0.72227   0.00000  Uiso   1.00
C1235  C     0.14078   0.69102   0.72226   0.00000  Uiso   1.00
C1236  C     0.19255   0.97565   0.77774   0.00000  Uiso   1.00
C1237  C     0.16650   0.83339   0.66327   0.00000  Uiso   1.00
C1238  C     0.16684   0.83328   0.83674   0.00000  Uiso   1.00
C1239  C     0.17111   0.87415   0.90741   0.00000  Uiso   1.00
C1240  C     0.16228   0.79251   0.59259   0.00000  Uiso   1.00
C1241  C     0.16719   0.83316   0.88466   0.00000  Uiso   1.00
C1242  C     0.24662   0.83306   0.74987   0.00000  Uiso   1.00
C1243  C     0.16616   0.83351   0.61534   0.00000  Uiso   1.00
C1244  C     0.16341   0.79208   0.90761   0.00000  Uiso   1.00
C1245  C     0.16993   0.87458   0.59239   0.00000  Uiso   1.00
C1246  C     0.16305   0.79159   0.95381   0.00000  Uiso   1.00
C1247  C     0.17032   0.87507   0.54619   0.00000  Uiso   1.00
C1248  C     0.16690   0.83316   0.97683   0.00000  Uiso   1.00
C1249  C     0.16648   0.83350   0.52317   0.00000  Uiso   1.00
C1250  C     0.17104   0.87445   0.95344   0.00000  Uiso   1.00
C1251  C     0.16236   0.79220   0.54656   0.00000  Uiso   1.00
C1252  C     0.15832   0.75054   0.97731   0.00000  Uiso   1.00
C1253  C     0.15861   0.75115   0.52378   0.00000  Uiso   1.00
C1254  C     0.17506   0.91612   0.52269   0.00000  Uiso   1.00
C1255  C     0.11532   0.69295   0.95774   0.00000  Uiso   1.00
C1256  C     0.21825   0.97329   0.54280   0.00000  Uiso   1.00
C1257  C     0.04981   0.80135   0.65088   0.00000  Uiso   1.00
C1258  C     0.28353   0.86535   0.84912   0.00000  Uiso   1.00
C1259  C     0.29312   0.72922   0.70983   0.00000  Uiso   1.00
C1260  C     0.04022   0.93744   0.79018   0.00000  Uiso   1.00
C1261  C     0.17480   0.91551   0.97622   0.00000  Uiso   1.00
C1262  C     0.02207   0.80475   0.72042   0.00000  Uiso   1.00
C1263  C     0.31126   0.86192   0.77958   0.00000  Uiso   1.00
C1264  C     0.31229   0.80229   0.72238   0.00000  Uiso   1.00
C1265  C     0.02104   0.86437   0.77762   0.00000  Uiso   1.00
C1266  C     0.29074   0.83235   0.75059   0.00000  Uiso   1.00
H1267  H     0.17426   0.90588   0.88937   0.00000  Uiso   1.00
H1268  H     0.21322   0.95714   0.79990   0.00000  Uiso   1.00
H1269  H     0.11284   0.99619   0.93579   0.00000  Uiso   1.00
H1270  H     0.09188   0.71848   0.94600   0.00000  Uiso   1.00
H1271  H     0.10790   0.68174   0.99224   0.00000  Uiso   1.00
H1272  H     0.24125   0.94767   0.55532   0.00000  Uiso   1.00
H1273  H     0.22059   0.67031   0.56442   0.00000  Uiso   1.00
H1274  H     0.22636   0.98396   0.50830   0.00000  Uiso   1.00
H1275  H     0.06798   0.77961   0.62760   0.00000  Uiso   1.00
H1276  H     0.06791   0.83296   0.65607   0.00000  Uiso   1.00
H1277  H     0.01928   0.80940   0.63484   0.00000  Uiso   1.00
H1278  H     0.15913   0.76078   0.61064   0.00000  Uiso   1.00
H1279  H     0.26537   0.83376   0.84394   0.00000  Uiso   1.00
H1280  H     0.26538   0.88712   0.87241   0.00000  Uiso   1.00
H1281  H     0.31406   0.85726   0.86513   0.00000  Uiso   1.00
H1282  H     0.27113   0.70817   0.69045   0.00000  Uiso   1.00
H1283  H     0.28365   0.72688   0.74549   0.00000  Uiso   1.00
H1284  H     0.32493   0.71451   0.70526   0.00000  Uiso   1.00
H1285  H     0.04964   0.93980   0.75451   0.00000  Uiso   1.00
H1286  H     0.06224   0.95848   0.80953   0.00000  Uiso   1.00
H1287  H     0.00841   0.95216   0.79480   0.00000  Uiso   1.00
H1288  H     0.16026   0.76059   0.88940   0.00000  Uiso   1.00
H1289  H     0.17306   0.90608   0.61059   0.00000  Uiso   1.00
H1290  H     0.15602   0.71952   0.54201   0.00000  Uiso   1.00
H1291  H     0.17745   0.94714   0.95800   0.00000  Uiso   1.00
H1292  H     0.21323   0.70830   0.79988   0.00000  Uiso   1.00
H1293  H     0.12010   0.95837   0.70012   0.00000  Uiso   1.00
H1294  H     0.12011   0.70953   0.70010   0.00000  Uiso   1.00
N1295  N     0.16667   0.95240   0.75000   0.00000  Uiso   1.00
N1296  N     0.16667   0.71427   0.75000   0.00000  Uiso   1.00
O1297  O     0.10559   0.87154   0.75000   0.00000  Uiso   1.00
O1298  O     0.17701   0.95701   0.54516   0.00000  Uiso   1.00
O1299  O     0.04419   0.77735   0.69110   0.00000  Uiso   1.00
O1300  O     0.28914   0.88934   0.80889   0.00000  Uiso   1.00
O1301  O     0.29087   0.77419   0.69358   0.00000  Uiso   1.00
O1302  O     0.04246   0.89247   0.80642   0.00000  Uiso   1.00
O1303  O     0.22774   0.79513   0.75001   0.00000  Uiso   1.00
O1304  O     0.22774   0.87154   0.75001   0.00000  Uiso   1.00
O1305  O     0.10559   0.79513   0.75000   0.00000  Uiso   1.00
O1306  O     0.16666   0.87156   0.68393   0.00000  Uiso   1.00
O1307  O     0.16667   0.79511   0.81608   0.00000  Uiso   1.00
O1308  O     0.16667   0.87156   0.81608   0.00000  Uiso   1.00
O1309  O     0.16666   0.79511   0.68393   0.00000  Uiso   1.00
O1310  O     0.15639   0.70967   0.95480   0.00000  Uiso   1.00
Zn1311 Zn    0.16667   0.88437   0.75000   0.00000  Uiso   1.00
Zn1312 Zn    0.16667   0.78229   0.75000   0.00000  Uiso   1.00
C1313  C     0.42005   0.83361   0.75013   0.00000  Uiso   1.00
C1314  C     0.37593   0.83431   0.74941   0.00000  Uiso   1.00
C1315  C     0.52589   0.69033   0.77773   0.00000  Uiso   1.00
C1316  C     0.47411   0.97634   0.72227   0.00000  Uiso   1.00
C1317  C     0.47412   0.69102   0.72226   0.00000  Uiso   1.00
C1318  C     0.52588   0.97565   0.77774   0.00000  Uiso   1.00
C1319  C     0.49983   0.83339   0.66327   0.00000  Uiso   1.00
C1320  C     0.50017   0.83328   0.83674   0.00000  Uiso   1.00
C1321  C     0.50444   0.87415   0.90741   0.00000  Uiso   1.00
C1322  C     0.49561   0.79251   0.59259   0.00000  Uiso   1.00
C1323  C     0.50053   0.83316   0.88466   0.00000  Uiso   1.00
C1324  C     0.57995   0.83306   0.74987   0.00000  Uiso   1.00
C1325  C     0.49949   0.83351   0.61534   0.00000  Uiso   1.00
C1326  C     0.49675   0.79208   0.90761   0.00000  Uiso   1.00
C1327  C     0.50327   0.87458   0.59239   0.00000  Uiso   1.00
C1328  C     0.49638   0.79159   0.95381   0.00000  Uiso   1.00
C1329  C     0.50365   0.87507   0.54619   0.00000  Uiso   1.00
C1330  C     0.50023   0.83316   0.97683   0.00000  Uiso   1.00
C1331  C     0.49982   0.83350   0.52317   0.00000  Uiso   1.00
C1332  C     0.50437   0.87445   0.95344   0.00000  Uiso   1.00
C1333  C     0.49569   0.79220   0.54656   0.00000  Uiso   1.00
C1334  C     0.49165   0.75054   0.97731   0.00000  Uiso   1.00
C1335  C     0.49195   0.75115   0.52378   0.00000  Uiso   1.00
C1336  C     0.50839   0.91612   0.52269   0.00000  Uiso   1.00
C1337  C     0.44865   0.69295   0.95774   0.00000  Uiso   1.00
C1338  C     0.55158   0.97329   0.54280   0.00000  Uiso   1.00
C1339  C     0.38314   0.80135   0.65088   0.00000  Uiso   1.00
C1340  C     0.61686   0.86535   0.84912   0.00000  Uiso   1.00
C1341  C     0.62645   0.72922   0.70983   0.00000  Uiso   1.00
C1342  C     0.37355   0.93744   0.79018   0.00000  Uiso   1.00
C1343  C     0.50813   0.91551   0.97622   0.00000  Uiso   1.00
C1344  C     0.35540   0.80475   0.72042   0.00000  Uiso   1.00
C1345  C     0.64460   0.86192   0.77958   0.00000  Uiso   1.00
C1346  C     0.64562   0.80229   0.72238   0.00000  Uiso   1.00
C1347  C     0.35438   0.86437   0.77762   0.00000  Uiso   1.00
C1348  C     0.62407   0.83235   0.75059   0.00000  Uiso   1.00
H1349  H     0.50760   0.90588   0.88937   0.00000  Uiso   1.00
H1350  H     0.54655   0.95714   0.79990   0.00000  Uiso   1.00
H1351  H     0.44618   0.99619   0.93579   0.00000  Uiso   1.00
H1352  H     0.42521   0.71848   0.94600   0.00000  Uiso   1.00
H1353  H     0.44123   0.68174   0.99224   0.00000  Uiso   1.00
H1354  H     0.57459   0.94767   0.55532   0.00000  Uiso   1.00
H1355  H     0.55393   0.67031   0.56442   0.00000  Uiso   1.00
H1356  H     0.55969   0.98396   0.50830   0.00000  Uiso   1.00
H1357  H     0.40132   0.77961   0.62760   0.00000  Uiso   1.00
H1358  H     0.40125   0.83296   0.65607   0.00000  Uiso   1.00
H1359  H     0.35262   0.80940   0.63484   0.00000  Uiso   1.00
H1360  H     0.49247   0.76078   0.61064   0.00000  Uiso   1.00
H1361  H     0.59871   0.83376   0.84394   0.00000  Uiso   1.00
H1362  H     0.59872   0.88712   0.87241   0.00000  Uiso   1.00
H1363  H     0.64739   0.85726   0.86513   0.00000  Uiso   1.00
H1364  H     0.60446   0.70817   0.69045   0.00000  Uiso   1.00
H1365  H     0.61699   0.72688   0.74549   0.00000  Uiso   1.00
H1366  H     0.65827   0.71451   0.70526   0.00000  Uiso   1.00
H1367  H     0.38298   0.93980   0.75451   0.00000  Uiso   1.00
H1368  H     0.39557   0.95848   0.80953   0.00000  Uiso   1.00
H1369  H     0.34175   0.95216   0.79480   0.00000  Uiso   1.00
H1370  H     0.49359   0.76059   0.88940   0.00000  Uiso   1.00
H1371  H     0.50640   0.90608   0.61059   0.00000  Uiso   1.00
H1372  H     0.48935   0.71952   0.54201   0.00000  Uiso   1.00
H1373  H     0.51078   0.94714   0.95800   0.00000  Uiso   1.00
H1374  H     0.54656   0.70830   0.79988   0.00000  Uiso   1.00
H1375  H     0.45344   0.95837   0.70012   0.00000  Uiso   1.00
H1376  H     0.45345   0.70953   0.70010   0.00000  Uiso   1.00
N1377  N     0.50000   0.95240   0.75000   0.00000  Uiso   1.00
N1378  N     0.50000   0.71427   0.75000   0.00000  Uiso   1.00
O1379  O     0.43892   0.87154   0.75000   0.00000  Uiso   1.00
O1380  O     0.51034   0.95701   0.54516   0.00000  Uiso   1.00
O1381  O     0.37753   0.77735   0.69110   0.00000  Uiso   1.00
O1382  O     0.62247   0.88934   0.80889   0.00000  Uiso   1.00
O1383  O     0.62421   0.77419   0.69358   0.00000  Uiso   1.00
O1384  O     0.37580   0.89247   0.80642   0.00000  Uiso   1.00
O1385  O     0.56108   0.79513   0.75001   0.00000  Uiso   1.00
O1386  O     0.56108   0.87154   0.75001   0.00000  Uiso   1.00
O1387  O     0.43892   0.79513   0.75000   0.00000  Uiso   1.00
O1388  O     0.49999   0.87156   0.68393   0.00000  Uiso   1.00
O1389  O     0.50001   0.79511   0.81608   0.00000  Uiso   1.00
O1390  O     0.50001   0.87156   0.81608   0.00000  Uiso   1.00
O1391  O     0.49999   0.79511   0.68393   0.00000  Uiso   1.00
O1392  O     0.48972   0.70967   0.95480   0.00000  Uiso   1.00
Zn1393 Zn    0.50000   0.88437   0.75000   0.00000  Uiso   1.00
Zn1394 Zn    0.50000   0.78229   0.75000   0.00000  Uiso   1.00
C1395  C     0.75338   0.83361   0.75013   0.00000  Uiso   1.00
C1396  C     0.70926   0.83431   0.74941   0.00000  Uiso   1.00
C1397  C     0.85922   0.69033   0.77773   0.00000  Uiso   1.00
C1398  C     0.80745   0.97634   0.72227   0.00000  Uiso   1.00
C1399  C     0.80745   0.69102   0.72226   0.00000  Uiso   1.00
C1400  C     0.85922   0.97565   0.77774   0.00000  Uiso   1.00
C1401  C     0.83317   0.83339   0.66327   0.00000  Uiso   1.00
C1402  C     0.83350   0.83328   0.83674   0.00000  Uiso   1.00
C1403  C     0.83777   0.87415   0.90741   0.00000  Uiso   1.00
C1404  C     0.82895   0.79251   0.59259   0.00000  Uiso   1.00
C1405  C     0.83386   0.83316   0.88466   0.00000  Uiso   1.00
C1406  C     0.91329   0.83306   0.74987   0.00000  Uiso   1.00
C1407  C     0.83283   0.83351   0.61534   0.00000  Uiso   1.00
C1408  C     0.83008   0.79208   0.90761   0.00000  Uiso   1.00
C1409  C     0.83660   0.87458   0.59239   0.00000  Uiso   1.00
C1410  C     0.82972   0.79159   0.95381   0.00000  Uiso   1.00
C1411  C     0.83699   0.87507   0.54619   0.00000  Uiso   1.00
C1412  C     0.83357   0.83316   0.97683   0.00000  Uiso   1.00
C1413  C     0.83315   0.83350   0.52317   0.00000  Uiso   1.00
C1414  C     0.83770   0.87445   0.95344   0.00000  Uiso   1.00
C1415  C     0.82902   0.79220   0.54656   0.00000  Uiso   1.00
C1416  C     0.82499   0.75054   0.97731   0.00000  Uiso   1.00
C1417  C     0.82528   0.75115   0.52378   0.00000  Uiso   1.00
C1418  C     0.84173   0.91612   0.52269   0.00000  Uiso   1.00
C1419  C     0.78199   0.69295   0.95774   0.00000  Uiso   1.00
C1420  C     0.88491   0.97329   0.54280   0.00000  Uiso   1.00
C1421  C     0.71647   0.80135   0.65088   0.00000  Uiso   1.00
C1422  C     0.95019   0.86535   0.84912   0.00000  Uiso   1.00
C1423  C     0.95979   0.72922   0.70983   0.00000  Uiso   1.00
C1424  C     0.70688   0.93744   0.79018   0.00000  Uiso   1.00
C1425  C     0.84147   0.91551   0.97622   0.00000  Uiso   1.00
C1426  C     0.68874   0.80475   0.72042   0.00000  Uiso   1.00
C1427  C     0.97793   0.86192   0.77958   0.00000  Uiso   1.00
C1428  C     0.97896   0.80229   0.72238   0.00000  Uiso   1.00
C1429  C     0.68771   0.86437   0.77762   0.00000  Uiso   1.00
C1430  C     0.95741   0.83235   0.75059   0.00000  Uiso   1.00
H1431  H     0.84093   0.90588   0.88937   0.00000  Uiso   1.00
H1432  H     0.87989   0.95714   0.79990   0.00000  Uiso   1.00
H1433  H     0.77951   0.99619   0.93579   0.00000  Uiso   1.00
H1434  H     0.75855   0.71848   0.94600   0.00000  Uiso   1.00
H1435  H     0.77457   0.68174   0.99224   0.00000  Uiso   1.00
H1436  H     0.90792   0.94767   0.55532   0.00000  Uiso   1.00
H1437  H     0.88726   0.67031   0.56442   0.00000  Uiso   1.00
H1438  H     0.89303   0.98396   0.50830   0.00000  Uiso   1.00
H1439  H     0.73465   0.77961   0.62760   0.00000  Uiso   1.00
H1440  H     0.73458   0.83296   0.65607   0.00000  Uiso   1.00
H1441  H     0.68595   0.80940   0.63484   0.00000  Uiso   1.00
H1442  H     0.82580   0.76078   0.61064   0.00000  Uiso   1.00
H1443  H     0.93204   0.83376   0.84394   0.00000  Uiso   1.00
H1444  H     0.93205   0.88712   0.87241   0.00000  Uiso   1.00
H1445  H     0.98072   0.85726   0.86513   0.00000  Uiso   1.00
H1446  H     0.93779   0.70817   0.69045   0.00000  Uiso   1.00
H1447  H     0.95032   0.72688   0.74549   0.00000  Uiso   1.00
H1448  H     0.99160   0.71451   0.70526   0.00000  Uiso   1.00
H1449  H     0.71631   0.93980   0.75451   0.00000  Uiso   1.00
H1450  H     0.72891   0.95848   0.80953   0.00000  Uiso   1.00
H1451  H     0.67508   0.95216   0.79480   0.00000  Uiso   1.00
H1452  H     0.82693   0.76059   0.88940   0.00000  Uiso   1.00
H1453  H     0.83973   0.90608   0.61059   0.00000  Uiso   1.00
H1454  H     0.82269   0.71952   0.54201   0.00000  Uiso   1.00
H1455  H     0.84412   0.94714   0.95800   0.00000  Uiso   1.00
H1456  H     0.87990   0.70830   0.79988   0.00000  Uiso   1.00
H1457  H     0.78677   0.95837   0.70012   0.00000  Uiso   1.00
H1458  H     0.78678   0.70953   0.70010   0.00000  Uiso   1.00
N1459  N     0.83333   0.95240   0.75000   0.00000  Uiso   1.00
N1460  N     0.83333   0.71427   0.75000   0.00000  Uiso   1.00
O1461  O     0.77226   0.87154   0.75000   0.00000  Uiso   1.00
O1462  O     0.84367   0.95701   0.54516   0.00000  Uiso   1.00
O1463  O     0.71086   0.77735   0.69110   0.00000  Uiso   1.00
O1464  O     0.95581   0.88934   0.80889   0.00000  Uiso   1.00
O1465  O     0.95754   0.77419   0.69358   0.00000  Uiso   1.00
O1466  O     0.70913   0.89247   0.80642   0.00000  Uiso   1.00
O1467  O     0.89441   0.79513   0.75001   0.00000  Uiso   1.00
O1468  O     0.89441   0.87154   0.75001   0.00000  Uiso   1.00
O1469  O     0.77226   0.79513   0.75000   0.00000  Uiso   1.00
O1470  O     0.83333   0.87156   0.68393   0.00000  Uiso   1.00
O1471  O     0.83334   0.79511   0.81608   0.00000  Uiso   1.00
O1472  O     0.83334   0.87156   0.81608   0.00000  Uiso   1.00
O1473  O     0.83333   0.79511   0.68393   0.00000  Uiso   1.00
O1474  O     0.82306   0.70967   0.95480   0.00000  Uiso   1.00
Zn1475 Zn    0.83333   0.88437   0.75000   0.00000  Uiso   1.00
Zn1476 Zn    0.83333   0.78229   0.75000   0.00000  Uiso   1.00
loop_
_geom_bond_atom_site_label_1
_geom_bond_atom_site_label_2
_geom_bond_distance
_geom_bond_site_symmetry_2
_ccdc_geom_bond_type
C1     C2      1.412   .     S
C1     O75     1.280   .     A
C1     O67     1.276   .     A
C2     C35     1.402   .     A
C2     C32     1.402   .     A
C3     N66     1.366   .     A
C3     H62     1.082   .     S
C3     C498    1.415   1_545 S
C4     H63     1.082   .     S
C4     N65     1.366   .     A
C4     C251    1.415   .     S
C5     H64     1.082   .     S
C5     N66     1.366   .     A
C5     C496    1.415   1_545 S
C6     N65     1.366   .     A
C6     H38     1.082   .     S
C6     C249    1.415   .     S
C7     C13     1.439   .     S
C7     O76     1.286   .     A
C7     O79     1.286   .     A
C8     O78     1.286   .     A
C8     O77     1.286   .     A
C8     C11     1.439   .     S
C9     C20     1.382   .     A
C9     H37     1.085   .     S
C9     C11     1.396   .     A
C10    C21     1.382   .     A
C10    H48     1.085   .     S
C10    C13     1.396   .     A
C11    C14     1.397   .     A
C12    O74     1.280   .     A
C12    C36     1.412   .     S
C12    O73     1.276   .     A
C13    C15     1.397   .     A
C14    H58     1.084   .     S
C14    C16     1.387   .     A
C15    C17     1.387   .     A
C15    H59     1.084   .     S
C16    C22     1.408   .     A
C16    C18     1.415   .     A
C17    C24     1.408   .     A
C17    C19     1.415   .     A
C18    C20     1.411   .     A
C18    C757    1.391   .     S
C19    C21     1.410   .     A
C19    C756    1.391   1_554 S
C20    C31     1.398   .     A
C21    C23     1.398   .     A
C22    O80     1.384   .     S
C22    C761    1.395   .     S
C23    H60     1.083   .     S
C23    C760    1.395   1_554 S
C24    O68     1.384   .     S
C24    C769    1.395   1_554 S
C25    O80     1.410   .     S
C25    H40     1.114   .     S
C25    H41     1.112   .     S
C25    H531    1.109   1_545 S
C26    H44     1.112   .     S
C26    H42     1.115   .     S
C26    O68     1.410   .     S
C26    H289    1.110   .     S
C27    O69     1.410   .     S
C27    H45     1.109   .     S
C27    H46     1.113   .     S
C27    H47     1.113   .     S
C28    H51     1.113   .     S
C28    H50     1.109   .     S
C28    H49     1.113   .     S
C28    O70     1.410   .     S
C29    H54     1.111   .     S
C29    H53     1.114   .     S
C29    O71     1.412   .     S
C29    H52     1.109   .     S
C30    H57     1.111   .     S
C30    H56     1.109   .     S
C30    O72     1.412   .     S
C30    H55     1.114   .     S
C31    H61     1.083   .     S
C31    C762    1.395   .     S
C32    O69     1.385   .     S
C32    C198    1.383   1_455 S
C33    C36     1.402   .     A
C33    O70     1.385   .     S
C33    C117    1.383   .     S
C34    C36     1.402   .     A
C34    O71     1.386   .     S
C34    C114    1.383   .     S
C35    O72     1.386   .     S
C35    C197    1.383   1_455 S
H39    C271    1.109   .     S
H43    C518    1.110   1_545 S
N65    Zn81    2.004   .     S
N66    Zn82    2.004   .     S
O67    Zn81    1.994   .     S
O73    Zn82    1.994   .     S
O74    Zn81    1.987   .     S
O75    Zn82    1.987   .     S
O76    Zn81    2.020   .     S
O77    Zn82    2.020   .     S
O78    Zn81    2.018   .     S
O79    Zn82    2.018   .     S
C83    C84     1.412   .     S
C83    O157    1.280   .     A
C83    O149    1.276   .     A
C84    C117    1.402   .     A
C84    C114    1.402   .     A
C85    N148    1.366   .     A
C85    H144    1.082   .     S
C85    C580    1.415   1_545 S
C86    H145    1.082   .     S
C86    N147    1.366   .     A
C86    C333    1.415   .     S
C87    H146    1.082   .     S
C87    N148    1.366   .     A
C87    C578    1.415   1_545 S
C88    N147    1.366   .     A
C88    H120    1.082   .     S
C88    C331    1.415   .     S
C89    C95     1.439   .     S
C89    O158    1.286   .     A
C89    O161    1.286   .     A
C90    O160    1.286   .     A
C90    O159    1.286   .     A
C90    C93     1.439   .     S
C91    C102    1.382   .     A
C91    H119    1.085   .     S
C91    C93     1.396   .     A
C92    C103    1.382   .     A
C92    H130    1.085   .     S
C92    C95     1.396   .     A
C93    C96     1.397   .     A
C94    O156    1.280   .     A
C94    C118    1.412   .     S
C94    O155    1.276   .     A
C95    C97     1.397   .     A
C96    H140    1.084   .     S
C96    C98     1.387   .     A
C97    C99     1.387   .     A
C97    H141    1.084   .     S
C98    C104    1.408   .     A
C98    C100    1.415   .     A
C99    C106    1.408   .     A
C99    C101    1.415   .     A
C100   C102    1.411   .     A
C100   C839    1.391   .     S
C101   C103    1.410   .     A
C101   C838    1.391   1_554 S
C102   C113    1.398   .     A
C103   C105    1.398   .     A
C104   O162    1.384   .     S
C104   C843    1.395   .     S
C105   H142    1.083   .     S
C105   C842    1.395   1_554 S
C106   O150    1.384   .     S
C106   C851    1.395   1_554 S
C107   O162    1.410   .     S
C107   H122    1.114   .     S
C107   H123    1.112   .     S
C107   H613    1.109   1_545 S
C108   H126    1.112   .     S
C108   H124    1.115   .     S
C108   O150    1.410   .     S
C108   H371    1.110   .     S
C109   O151    1.410   .     S
C109   H127    1.109   .     S
C109   H128    1.113   .     S
C109   H129    1.113   .     S
C110   H133    1.113   .     S
C110   H132    1.109   .     S
C110   H131    1.113   .     S
C110   O152    1.410   .     S
C111   H136    1.111   .     S
C111   H135    1.114   .     S
C111   O153    1.412   .     S
C111   H134    1.109   .     S
C112   H139    1.111   .     S
C112   H138    1.109   .     S
C112   O154    1.412   .     S
C112   H137    1.114   .     S
C113   H143    1.083   .     S
C113   C844    1.395   .     S
C114   O151    1.385   .     S
C115   C118    1.402   .     A
C115   O152    1.385   .     S
C115   C199    1.383   .     S
C116   C118    1.402   .     A
C116   O153    1.386   .     S
C116   C196    1.383   .     S
C117   O154    1.386   .     S
H121   C353    1.109   .     S
H125   C600    1.110   1_545 S
N147   Zn163   2.004   .     S
N148   Zn164   2.004   .     S
O149   Zn163   1.994   .     S
O155   Zn164   1.994   .     S
O156   Zn163   1.987   .     S
O157   Zn164   1.987   .     S
O158   Zn163   2.020   .     S
O159   Zn164   2.020   .     S
O160   Zn163   2.018   .     S
O161   Zn164   2.018   .     S
C165   C166    1.412   .     S
C165   O239    1.280   .     A
C165   O231    1.276   .     A
C166   C199    1.402   .     A
C166   C196    1.402   .     A
C167   N230    1.366   .     A
C167   H226    1.082   .     S
C167   C662    1.415   1_545 S
C168   H227    1.082   .     S
C168   N229    1.366   .     A
C168   C415    1.415   .     S
C169   H228    1.082   .     S
C169   N230    1.366   .     A
C169   C660    1.415   1_545 S
C170   N229    1.366   .     A
C170   H202    1.082   .     S
C170   C413    1.415   .     S
C171   C177    1.439   .     S
C171   O240    1.286   .     A
C171   O243    1.286   .     A
C172   O242    1.286   .     A
C172   O241    1.286   .     A
C172   C175    1.439   .     S
C173   C184    1.382   .     A
C173   H201    1.085   .     S
C173   C175    1.396   .     A
C174   C185    1.382   .     A
C174   H212    1.085   .     S
C174   C177    1.396   .     A
C175   C178    1.397   .     A
C176   O238    1.280   .     A
C176   C200    1.412   .     S
C176   O237    1.276   .     A
C177   C179    1.397   .     A
C178   H222    1.084   .     S
C178   C180    1.387   .     A
C179   C181    1.387   .     A
C179   H223    1.084   .     S
C180   C186    1.408   .     A
C180   C182    1.415   .     A
C181   C188    1.408   .     A
C181   C183    1.415   .     A
C182   C184    1.411   .     A
C182   C921    1.391   .     S
C183   C185    1.410   .     A
C183   C920    1.391   1_554 S
C184   C195    1.398   .     A
C185   C187    1.398   .     A
C186   O244    1.384   .     S
C186   C925    1.395   .     S
C187   H224    1.083   .     S
C187   C924    1.395   1_554 S
C188   O232    1.384   .     S
C188   C933    1.395   1_554 S
C189   O244    1.410   .     S
C189   H204    1.114   .     S
C189   H205    1.112   .     S
C189   H695    1.109   1_545 S
C190   H208    1.112   .     S
C190   H206    1.115   .     S
C190   O232    1.410   .     S
C190   H453    1.110   .     S
C191   O233    1.410   .     S
C191   H209    1.109   .     S
C191   H210    1.113   .     S
C191   H211    1.113   .     S
C192   H215    1.113   .     S
C192   H214    1.109   .     S
C192   H213    1.113   .     S
C192   O234    1.410   .     S
C193   H218    1.111   .     S
C193   H217    1.114   .     S
C193   O235    1.412   .     S
C193   H216    1.109   .     S
C194   H221    1.111   .     S
C194   H220    1.109   .     S
C194   O236    1.412   .     S
C194   H219    1.114   .     S
C195   H225    1.083   .     S
C195   C926    1.395   .     S
C196   O233    1.385   .     S
C197   C200    1.402   .     A
C197   O234    1.385   .     S
C197   C35     1.383   1_655 S
C198   C200    1.402   .     A
C198   O235    1.386   .     S
C198   C32     1.383   1_655 S
C199   O236    1.386   .     S
H203   C435    1.109   .     S
H207   C682    1.110   1_545 S
N229   Zn245   2.004   .     S
N230   Zn246   2.004   .     S
O231   Zn245   1.994   .     S
O237   Zn246   1.994   .     S
O238   Zn245   1.987   .     S
O239   Zn246   1.987   .     S
O240   Zn245   2.020   .     S
O241   Zn246   2.020   .     S
O242   Zn245   2.018   .     S
O243   Zn246   2.018   .     S
C247   C248    1.412   .     S
C247   O321    1.280   .     A
C247   O313    1.276   .     A
C248   C281    1.402   .     A
C248   C278    1.402   .     A
C249   N312    1.366   .     A
C249   H308    1.082   .     S
C250   H309    1.082   .     S
C250   N311    1.366   .     A
C250   C497    1.415   .     S
C251   H310    1.082   .     S
C251   N312    1.366   .     A
C252   N311    1.366   .     A
C252   H284    1.082   .     S
C252   C495    1.415   .     S
C253   C259    1.439   .     S
C253   O322    1.286   .     A
C253   O325    1.286   .     A
C254   O324    1.286   .     A
C254   O323    1.286   .     A
C254   C257    1.439   .     S
C255   C266    1.382   .     A
C255   H283    1.085   .     S
C255   C257    1.396   .     A
C256   C267    1.382   .     A
C256   H294    1.085   .     S
C256   C259    1.396   .     A
C257   C260    1.397   .     A
C258   O320    1.280   .     A
C258   C282    1.412   .     S
C258   O319    1.276   .     A
C259   C261    1.397   .     A
C260   H304    1.084   .     S
C260   C262    1.387   .     A
C261   C263    1.387   .     A
C261   H305    1.084   .     S
C262   C268    1.408   .     A
C262   C264    1.415   .     A
C263   C270    1.408   .     A
C263   C265    1.415   .     A
C264   C266    1.411   .     A
C264   C1003   1.391   .     S
C265   C267    1.410   .     A
C265   C1002   1.391   1_554 S
C266   C277    1.398   .     A
C267   C269    1.398   .     A
C268   O326    1.384   .     S
C268   C1007   1.395   .     S
C269   H306    1.083   .     S
C269   C1006   1.395   1_554 S
C270   O314    1.384   .     S
C270   C1015   1.395   1_554 S
C271   O326    1.410   .     S
C271   H286    1.114   .     S
C271   H287    1.112   .     S
C272   H290    1.112   .     S
C272   H288    1.115   .     S
C272   O314    1.410   .     S
C272   H535    1.110   .     S
C273   O315    1.410   .     S
C273   H291    1.109   .     S
C273   H292    1.113   .     S
C273   H293    1.113   .     S
C274   H297    1.113   .     S
C274   H296    1.109   .     S
C274   H295    1.113   .     S
C274   O316    1.410   .     S
C275   H300    1.111   .     S
C275   H299    1.114   .     S
C275   O317    1.412   .     S
C275   H298    1.109   .     S
C276   H303    1.111   .     S
C276   H302    1.109   .     S
C276   O318    1.412   .     S
C276   H301    1.114   .     S
C277   H307    1.083   .     S
C277   C1008   1.395   .     S
C278   O315    1.385   .     S
C278   C444    1.383   1_455 S
C279   C282    1.402   .     A
C279   O316    1.385   .     S
C279   C363    1.383   .     S
C280   C282    1.402   .     A
C280   O317    1.386   .     S
C280   C360    1.383   .     S
C281   O318    1.386   .     S
C281   C443    1.383   1_455 S
H285   C517    1.109   .     S
N311   Zn327   2.004   .     S
N312   Zn328   2.004   .     S
O313   Zn327   1.994   .     S
O319   Zn328   1.994   .     S
O320   Zn327   1.987   .     S
O321   Zn328   1.987   .     S
O322   Zn327   2.020   .     S
O323   Zn328   2.020   .     S
O324   Zn327   2.018   .     S
O325   Zn328   2.018   .     S
C329   C330    1.412   .     S
C329   O403    1.280   .     A
C329   O395    1.276   .     A
C330   C363    1.402   .     A
C330   C360    1.402   .     A
C331   N394    1.366   .     A
C331   H390    1.082   .     S
C332   H391    1.082   .     S
C332   N393    1.366   .     A
C332   C579    1.415   .     S
C333   H392    1.082   .     S
C333   N394    1.366   .     A
C334   N393    1.366   .     A
C334   H366    1.082   .     S
C334   C577    1.415   .     S
C335   C341    1.439   .     S
C335   O404    1.286   .     A
C335   O407    1.286   .     A
C336   O406    1.286   .     A
C336   O405    1.286   .     A
C336   C339    1.439   .     S
C337   C348    1.382   .     A
C337   H365    1.085   .     S
C337   C339    1.396   .     A
C338   C349    1.382   .     A
C338   H376    1.085   .     S
C338   C341    1.396   .     A
C339   C342    1.397   .     A
C340   O402    1.280   .     A
C340   C364    1.412   .     S
C340   O401    1.276   .     A
C341   C343    1.397   .     A
C342   H386    1.084   .     S
C342   C344    1.387   .     A
C343   C345    1.387   .     A
C343   H387    1.084   .     S
C344   C350    1.408   .     A
C344   C346    1.415   .     A
C345   C352    1.408   .     A
C345   C347    1.415   .     A
C346   C348    1.411   .     A
C346   C1085   1.391   .     S
C347   C349    1.410   .     A
C347   C1084   1.391   1_554 S
C348   C359    1.398   .     A
C349   C351    1.398   .     A
C350   O408    1.384   .     S
C350   C1089   1.395   .     S
C351   H388    1.083   .     S
C351   C1088   1.395   1_554 S
C352   O396    1.384   .     S
C352   C1097   1.395   1_554 S
C353   O408    1.410   .     S
C353   H368    1.114   .     S
C353   H369    1.112   .     S
C354   H372    1.112   .     S
C354   H370    1.115   .     S
C354   O396    1.410   .     S
C354   H617    1.110   .     S
C355   O397    1.410   .     S
C355   H373    1.109   .     S
C355   H374    1.113   .     S
C355   H375    1.113   .     S
C356   H379    1.113   .     S
C356   H378    1.109   .     S
C356   H377    1.113   .     S
C356   O398    1.410   .     S
C357   H382    1.111   .     S
C357   H381    1.114   .     S
C357   O399    1.412   .     S
C357   H380    1.109   .     S
C358   H385    1.111   .     S
C358   H384    1.109   .     S
C358   O400    1.412   .     S
C358   H383    1.114   .     S
C359   H389    1.083   .     S
C359   C1090   1.395   .     S
C360   O397    1.385   .     S
C361   C364    1.402   .     A
C361   O398    1.385   .     S
C361   C445    1.383   .     S
C362   C364    1.402   .     A
C362   O399    1.386   .     S
C362   C442    1.383   .     S
C363   O400    1.386   .     S
H367   C599    1.109   .     S
N393   Zn409   2.004   .     S
N394   Zn410   2.004   .     S
O395   Zn409   1.994   .     S
O401   Zn410   1.994   .     S
O402   Zn409   1.987   .     S
O403   Zn410   1.987   .     S
O404   Zn409   2.020   .     S
O405   Zn410   2.020   .     S
O406   Zn409   2.018   .     S
O407   Zn410   2.018   .     S
C411   C412    1.412   .     S
C411   O485    1.280   .     A
C411   O477    1.276   .     A
C412   C445    1.402   .     A
C412   C442    1.402   .     A
C413   N476    1.366   .     A
C413   H472    1.082   .     S
C414   H473    1.082   .     S
C414   N475    1.366   .     A
C414   C661    1.415   .     S
C415   H474    1.082   .     S
C415   N476    1.366   .     A
C416   N475    1.366   .     A
C416   H448    1.082   .     S
C416   C659    1.415   .     S
C417   C423    1.439   .     S
C417   O486    1.286   .     A
C417   O489    1.286   .     A
C418   O488    1.286   .     A
C418   O487    1.286   .     A
C418   C421    1.439   .     S
C419   C430    1.382   .     A
C419   H447    1.085   .     S
C419   C421    1.396   .     A
C420   C431    1.382   .     A
C420   H458    1.085   .     S
C420   C423    1.396   .     A
C421   C424    1.397   .     A
C422   O484    1.280   .     A
C422   C446    1.412   .     S
C422   O483    1.276   .     A
C423   C425    1.397   .     A
C424   H468    1.084   .     S
C424   C426    1.387   .     A
C425   C427    1.387   .     A
C425   H469    1.084   .     S
C426   C432    1.408   .     A
C426   C428    1.415   .     A
C427   C434    1.408   .     A
C427   C429    1.415   .     A
C428   C430    1.411   .     A
C428   C1167   1.391   .     S
C429   C431    1.410   .     A
C429   C1166   1.391   1_554 S
C430   C441    1.398   .     A
C431   C433    1.398   .     A
C432   O490    1.384   .     S
C432   C1171   1.395   .     S
C433   H470    1.083   .     S
C433   C1170   1.395   1_554 S
C434   O478    1.384   .     S
C434   C1179   1.395   1_554 S
C435   O490    1.410   .     S
C435   H450    1.114   .     S
C435   H451    1.112   .     S
C436   H454    1.112   .     S
C436   H452    1.115   .     S
C436   O478    1.410   .     S
C436   H699    1.110   .     S
C437   O479    1.410   .     S
C437   H455    1.109   .     S
C437   H456    1.113   .     S
C437   H457    1.113   .     S
C438   H461    1.113   .     S
C438   H460    1.109   .     S
C438   H459    1.113   .     S
C438   O480    1.410   .     S
C439   H464    1.111   .     S
C439   H463    1.114   .     S
C439   O481    1.412   .     S
C439   H462    1.109   .     S
C440   H467    1.111   .     S
C440   H466    1.109   .     S
C440   O482    1.412   .     S
C440   H465    1.114   .     S
C441   H471    1.083   .     S
C441   C1172   1.395   .     S
C442   O479    1.385   .     S
C443   C446    1.402   .     A
C443   O480    1.385   .     S
C443   C281    1.383   1_655 S
C444   C446    1.402   .     A
C444   O481    1.386   .     S
C444   C278    1.383   1_655 S
C445   O482    1.386   .     S
H449   C681    1.109   .     S
N475   Zn491   2.004   .     S
N476   Zn492   2.004   .     S
O477   Zn491   1.994   .     S
O483   Zn492   1.994   .     S
O484   Zn491   1.987   .     S
O485   Zn492   1.987   .     S
O486   Zn491   2.020   .     S
O487   Zn492   2.020   .     S
O488   Zn491   2.018   .     S
O489   Zn492   2.018   .     S
C493   C494    1.412   .     S
C493   O567    1.280   .     A
C493   O559    1.276   .     A
C494   C527    1.402   .     A
C494   C524    1.402   .     A
C495   N558    1.366   .     A
C495   H554    1.082   .     S
C496   H555    1.082   .     S
C496   N557    1.366   .     A
C496   C5      1.415   1_565 S
C497   H556    1.082   .     S
C497   N558    1.366   .     A
C498   N557    1.366   .     A
C498   H530    1.082   .     S
C498   C3      1.415   1_565 S
C499   C505    1.439   .     S
C499   O568    1.286   .     A
C499   O571    1.286   .     A
C500   O570    1.286   .     A
C500   O569    1.286   .     A
C500   C503    1.439   .     S
C501   C512    1.382   .     A
C501   H529    1.085   .     S
C501   C503    1.396   .     A
C502   C513    1.382   .     A
C502   H540    1.085   .     S
C502   C505    1.396   .     A
C503   C506    1.397   .     A
C504   O566    1.280   .     A
C504   C528    1.412   .     S
C504   O565    1.276   .     A
C505   C507    1.397   .     A
C506   H550    1.084   .     S
C506   C508    1.387   .     A
C507   C509    1.387   .     A
C507   H551    1.084   .     S
C508   C514    1.408   .     A
C508   C510    1.415   .     A
C509   C516    1.408   .     A
C509   C511    1.415   .     A
C510   C512    1.411   .     A
C510   C1249   1.391   .     S
C511   C513    1.410   .     A
C511   C1248   1.391   1_554 S
C512   C523    1.398   .     A
C513   C515    1.398   .     A
C514   O572    1.384   .     S
C514   C1253   1.395   .     S
C515   H552    1.083   .     S
C515   C1252   1.395   1_554 S
C516   O560    1.384   .     S
C516   C1261   1.395   1_554 S
C517   O572    1.410   .     S
C517   H532    1.114   .     S
C517   H533    1.112   .     S
C518   H536    1.112   .     S
C518   H534    1.115   .     S
C518   O560    1.410   .     S
C518   H43     1.110   1_565 S
C519   O561    1.410   .     S
C519   H537    1.109   .     S
C519   H538    1.113   .     S
C519   H539    1.113   .     S
C520   H543    1.113   .     S
C520   H542    1.109   .     S
C520   H541    1.113   .     S
C520   O562    1.410   .     S
C521   H546    1.111   .     S
C521   H545    1.114   .     S
C521   O563    1.412   .     S
C521   H544    1.109   .     S
C522   H549    1.111   .     S
C522   H548    1.109   .     S
C522   O564    1.412   .     S
C522   H547    1.114   .     S
C523   H553    1.083   .     S
C523   C1254   1.395   .     S
C524   O561    1.385   .     S
C524   C690    1.383   1_455 S
C525   C528    1.402   .     A
C525   O562    1.385   .     S
C525   C609    1.383   .     S
C526   C528    1.402   .     A
C526   O563    1.386   .     S
C526   C606    1.383   .     S
C527   O564    1.386   .     S
C527   C689    1.383   1_455 S
H531   C25     1.109   1_565 S
N557   Zn573   2.004   .     S
N558   Zn574   2.004   .     S
O559   Zn573   1.994   .     S
O565   Zn574   1.994   .     S
O566   Zn573   1.987   .     S
O567   Zn574   1.987   .     S
O568   Zn573   2.020   .     S
O569   Zn574   2.020   .     S
O570   Zn573   2.018   .     S
O571   Zn574   2.018   .     S
C575   C576    1.412   .     S
C575   O649    1.280   .     A
C575   O641    1.276   .     A
C576   C609    1.402   .     A
C576   C606    1.402   .     A
C577   N640    1.366   .     A
C577   H636    1.082   .     S
C578   H637    1.082   .     S
C578   N639    1.366   .     A
C578   C87     1.415   1_565 S
C579   H638    1.082   .     S
C579   N640    1.366   .     A
C580   N639    1.366   .     A
C580   H612    1.082   .     S
C580   C85     1.415   1_565 S
C581   C587    1.439   .     S
C581   O650    1.286   .     A
C581   O653    1.286   .     A
C582   O652    1.286   .     A
C582   O651    1.286   .     A
C582   C585    1.439   .     S
C583   C594    1.382   .     A
C583   H611    1.085   .     S
C583   C585    1.396   .     A
C584   C595    1.382   .     A
C584   H622    1.085   .     S
C584   C587    1.396   .     A
C585   C588    1.397   .     A
C586   O648    1.280   .     A
C586   C610    1.412   .     S
C586   O647    1.276   .     A
C587   C589    1.397   .     A
C588   H632    1.084   .     S
C588   C590    1.387   .     A
C589   C591    1.387   .     A
C589   H633    1.084   .     S
C590   C596    1.408   .     A
C590   C592    1.415   .     A
C591   C598    1.408   .     A
C591   C593    1.415   .     A
C592   C594    1.411   .     A
C592   C1331   1.391   .     S
C593   C595    1.410   .     A
C593   C1330   1.391   1_554 S
C594   C605    1.398   .     A
C595   C597    1.398   .     A
C596   O654    1.384   .     S
C596   C1335   1.395   .     S
C597   H634    1.083   .     S
C597   C1334   1.395   1_554 S
C598   O642    1.384   .     S
C598   C1343   1.395   1_554 S
C599   O654    1.410   .     S
C599   H614    1.114   .     S
C599   H615    1.112   .     S
C600   H618    1.112   .     S
C600   H616    1.115   .     S
C600   O642    1.410   .     S
C600   H125    1.110   1_565 S
C601   O643    1.410   .     S
C601   H619    1.109   .     S
C601   H620    1.113   .     S
C601   H621    1.113   .     S
C602   H625    1.113   .     S
C602   H624    1.109   .     S
C602   H623    1.113   .     S
C602   O644    1.410   .     S
C603   H628    1.111   .     S
C603   H627    1.114   .     S
C603   O645    1.412   .     S
C603   H626    1.109   .     S
C604   H631    1.111   .     S
C604   H630    1.109   .     S
C604   O646    1.412   .     S
C604   H629    1.114   .     S
C605   H635    1.083   .     S
C605   C1336   1.395   .     S
C606   O643    1.385   .     S
C607   C610    1.402   .     A
C607   O644    1.385   .     S
C607   C691    1.383   .     S
C608   C610    1.402   .     A
C608   O645    1.386   .     S
C608   C688    1.383   .     S
C609   O646    1.386   .     S
H613   C107    1.109   1_565 S
N639   Zn655   2.004   .     S
N640   Zn656   2.004   .     S
O641   Zn655   1.994   .     S
O647   Zn656   1.994   .     S
O648   Zn655   1.987   .     S
O649   Zn656   1.987   .     S
O650   Zn655   2.020   .     S
O651   Zn656   2.020   .     S
O652   Zn655   2.018   .     S
O653   Zn656   2.018   .     S
C657   C658    1.412   .     S
C657   O731    1.280   .     A
C657   O723    1.276   .     A
C658   C691    1.402   .     A
C658   C688    1.402   .     A
C659   N722    1.366   .     A
C659   H718    1.082   .     S
C660   H719    1.082   .     S
C660   N721    1.366   .     A
C660   C169    1.415   1_565 S
C661   H720    1.082   .     S
C661   N722    1.366   .     A
C662   N721    1.366   .     A
C662   H694    1.082   .     S
C662   C167    1.415   1_565 S
C663   C669    1.439   .     S
C663   O732    1.286   .     A
C663   O735    1.286   .     A
C664   O734    1.286   .     A
C664   O733    1.286   .     A
C664   C667    1.439   .     S
C665   C676    1.382   .     A
C665   H693    1.085   .     S
C665   C667    1.396   .     A
C666   C677    1.382   .     A
C666   H704    1.085   .     S
C666   C669    1.396   .     A
C667   C670    1.397   .     A
C668   O730    1.280   .     A
C668   C692    1.412   .     S
C668   O729    1.276   .     A
C669   C671    1.397   .     A
C670   H714    1.084   .     S
C670   C672    1.387   .     A
C671   C673    1.387   .     A
C671   H715    1.084   .     S
C672   C678    1.408   .     A
C672   C674    1.415   .     A
C673   C680    1.408   .     A
C673   C675    1.415   .     A
C674   C676    1.411   .     A
C674   C1413   1.391   .     S
C675   C677    1.410   .     A
C675   C1412   1.391   1_554 S
C676   C687    1.398   .     A
C677   C679    1.398   .     A
C678   O736    1.384   .     S
C678   C1417   1.395   .     S
C679   H716    1.083   .     S
C679   C1416   1.395   1_554 S
C680   O724    1.384   .     S
C680   C1425   1.395   1_554 S
C681   O736    1.410   .     S
C681   H696    1.114   .     S
C681   H697    1.112   .     S
C682   H700    1.112   .     S
C682   H698    1.115   .     S
C682   O724    1.410   .     S
C682   H207    1.110   1_565 S
C683   O725    1.410   .     S
C683   H701    1.109   .     S
C683   H702    1.113   .     S
C683   H703    1.113   .     S
C684   H707    1.113   .     S
C684   H706    1.109   .     S
C684   H705    1.113   .     S
C684   O726    1.410   .     S
C685   H710    1.111   .     S
C685   H709    1.114   .     S
C685   O727    1.412   .     S
C685   H708    1.109   .     S
C686   H713    1.111   .     S
C686   H712    1.109   .     S
C686   O728    1.412   .     S
C686   H711    1.114   .     S
C687   H717    1.083   .     S
C687   C1418   1.395   .     S
C688   O725    1.385   .     S
C689   C692    1.402   .     A
C689   O726    1.385   .     S
C689   C527    1.383   1_655 S
C690   C692    1.402   .     A
C690   O727    1.386   .     S
C690   C524    1.383   1_655 S
C691   O728    1.386   .     S
H695   C189    1.109   1_565 S
N721   Zn737   2.004   .     S
N722   Zn738   2.004   .     S
O723   Zn737   1.994   .     S
O729   Zn738   1.994   .     S
O730   Zn737   1.987   .     S
O731   Zn738   1.987   .     S
O732   Zn737   2.020   .     S
O733   Zn738   2.020   .     S
O734   Zn737   2.018   .     S
O735   Zn738   2.018   .     S
C739   C740    1.412   .     S
C739   O813    1.280   .     A
C739   O805    1.276   .     A
C740   C773    1.402   .     A
C740   C770    1.402   .     A
C741   N804    1.366   .     A
C741   H800    1.082   .     S
C741   C1236   1.415   1_545 S
C742   H801    1.082   .     S
C742   N803    1.366   .     A
C742   C989    1.415   .     S
C743   H802    1.082   .     S
C743   N804    1.366   .     A
C743   C1234   1.415   1_545 S
C744   N803    1.366   .     A
C744   H776    1.082   .     S
C744   C987    1.415   .     S
C745   C751    1.439   .     S
C745   O814    1.286   .     A
C745   O817    1.286   .     A
C746   O816    1.286   .     A
C746   O815    1.286   .     A
C746   C749    1.439   .     S
C747   C758    1.382   .     A
C747   H775    1.085   .     S
C747   C749    1.396   .     A
C748   C759    1.382   .     A
C748   H786    1.085   .     S
C748   C751    1.396   .     A
C749   C752    1.397   .     A
C750   O812    1.280   .     A
C750   C774    1.412   .     S
C750   O811    1.276   .     A
C751   C753    1.397   .     A
C752   H796    1.084   .     S
C752   C754    1.387   .     A
C753   C755    1.387   .     A
C753   H797    1.084   .     S
C754   C760    1.408   .     A
C754   C756    1.415   .     A
C755   C762    1.408   .     A
C755   C757    1.415   .     A
C756   C758    1.411   .     A
C756   C19     1.391   1_556 S
C757   C759    1.410   .     A
C758   C769    1.398   .     A
C759   C761    1.398   .     A
C760   O818    1.384   .     S
C760   C23     1.395   1_556 S
C761   H798    1.083   .     S
C762   O806    1.384   .     S
C763   O818    1.410   .     S
C763   H778    1.114   .     S
C763   H779    1.112   .     S
C763   H1269   1.109   1_545 S
C764   H782    1.112   .     S
C764   H780    1.115   .     S
C764   O806    1.410   .     S
C764   H1027   1.110   .     S
C765   O807    1.410   .     S
C765   H783    1.109   .     S
C765   H784    1.113   .     S
C765   H785    1.113   .     S
C766   H789    1.113   .     S
C766   H788    1.109   .     S
C766   H787    1.113   .     S
C766   O808    1.410   .     S
C767   H792    1.111   .     S
C767   H791    1.114   .     S
C767   O809    1.412   .     S
C767   H790    1.109   .     S
C768   H795    1.111   .     S
C768   H794    1.109   .     S
C768   O810    1.412   .     S
C768   H793    1.114   .     S
C769   H799    1.083   .     S
C769   C24     1.395   1_556 S
C770   O807    1.385   .     S
C770   C936    1.383   1_455 S
C771   C774    1.402   .     A
C771   O808    1.385   .     S
C771   C855    1.383   .     S
C772   C774    1.402   .     A
C772   O809    1.386   .     S
C772   C852    1.383   .     S
C773   O810    1.386   .     S
C773   C935    1.383   1_455 S
H777   C1009   1.109   .     S
H781   C1256   1.110   1_545 S
N803   Zn819   2.004   .     S
N804   Zn820   2.004   .     S
O805   Zn819   1.994   .     S
O811   Zn820   1.994   .     S
O812   Zn819   1.987   .     S
O813   Zn820   1.987   .     S
O814   Zn819   2.020   .     S
O815   Zn820   2.020   .     S
O816   Zn819   2.018   .     S
O817   Zn820   2.018   .     S
C821   C822    1.412   .     S
C821   O895    1.280   .     A
C821   O887    1.276   .     A
C822   C855    1.402   .     A
C822   C852    1.402   .     A
C823   N886    1.366   .     A
C823   H882    1.082   .     S
C823   C1318   1.415   1_545 S
C824   H883    1.082   .     S
C824   N885    1.366   .     A
C824   C1071   1.415   .     S
C825   H884    1.082   .     S
C825   N886    1.366   .     A
C825   C1316   1.415   1_545 S
C826   N885    1.366   .     A
C826   H858    1.082   .     S
C826   C1069   1.415   .     S
C827   C833    1.439   .     S
C827   O896    1.286   .     A
C827   O899    1.286   .     A
C828   O898    1.286   .     A
C828   O897    1.286   .     A
C828   C831    1.439   .     S
C829   C840    1.382   .     A
C829   H857    1.085   .     S
C829   C831    1.396   .     A
C830   C841    1.382   .     A
C830   H868    1.085   .     S
C830   C833    1.396   .     A
C831   C834    1.397   .     A
C832   O894    1.280   .     A
C832   C856    1.412   .     S
C832   O893    1.276   .     A
C833   C835    1.397   .     A
C834   H878    1.084   .     S
C834   C836    1.387   .     A
C835   C837    1.387   .     A
C835   H879    1.084   .     S
C836   C842    1.408   .     A
C836   C838    1.415   .     A
C837   C844    1.408   .     A
C837   C839    1.415   .     A
C838   C840    1.411   .     A
C838   C101    1.391   1_556 S
C839   C841    1.410   .     A
C840   C851    1.398   .     A
C841   C843    1.398   .     A
C842   O900    1.384   .     S
C842   C105    1.395   1_556 S
C843   H880    1.083   .     S
C844   O888    1.384   .     S
C845   O900    1.410   .     S
C845   H860    1.114   .     S
C845   H861    1.112   .     S
C845   H1351   1.109   1_545 S
C846   H864    1.112   .     S
C846   H862    1.115   .     S
C846   O888    1.410   .     S
C846   H1109   1.110   .     S
C847   O889    1.410   .     S
C847   H865    1.109   .     S
C847   H866    1.113   .     S
C847   H867    1.113   .     S
C848   H871    1.113   .     S
C848   H870    1.109   .     S
C848   H869    1.113   .     S
C848   O890    1.410   .     S
C849   H874    1.111   .     S
C849   H873    1.114   .     S
C849   O891    1.412   .     S
C849   H872    1.109   .     S
C850   H877    1.111   .     S
C850   H876    1.109   .     S
C850   O892    1.412   .     S
C850   H875    1.114   .     S
C851   H881    1.083   .     S
C851   C106    1.395   1_556 S
C852   O889    1.385   .     S
C853   C856    1.402   .     A
C853   O890    1.385   .     S
C853   C937    1.383   .     S
C854   C856    1.402   .     A
C854   O891    1.386   .     S
C854   C934    1.383   .     S
C855   O892    1.386   .     S
H859   C1091   1.109   .     S
H863   C1338   1.110   1_545 S
N885   Zn901   2.004   .     S
N886   Zn902   2.004   .     S
O887   Zn901   1.994   .     S
O893   Zn902   1.994   .     S
O894   Zn901   1.987   .     S
O895   Zn902   1.987   .     S
O896   Zn901   2.020   .     S
O897   Zn902   2.020   .     S
O898   Zn901   2.018   .     S
O899   Zn902   2.018   .     S
C903   C904    1.412   .     S
C903   O977    1.280   .     A
C903   O969    1.276   .     A
C904   C937    1.402   .     A
C904   C934    1.402   .     A
C905   N968    1.366   .     A
C905   H964    1.082   .     S
C905   C1400   1.415   1_545 S
C906   H965    1.082   .     S
C906   N967    1.366   .     A
C906   C1153   1.415   .     S
C907   H966    1.082   .     S
C907   N968    1.366   .     A
C907   C1398   1.415   1_545 S
C908   N967    1.366   .     A
C908   H940    1.082   .     S
C908   C1151   1.415   .     S
C909   C915    1.439   .     S
C909   O978    1.286   .     A
C909   O981    1.286   .     A
C910   O980    1.286   .     A
C910   O979    1.286   .     A
C910   C913    1.439   .     S
C911   C922    1.382   .     A
C911   H939    1.085   .     S
C911   C913    1.396   .     A
C912   C923    1.382   .     A
C912   H950    1.085   .     S
C912   C915    1.396   .     A
C913   C916    1.397   .     A
C914   O976    1.280   .     A
C914   C938    1.412   .     S
C914   O975    1.276   .     A
C915   C917    1.397   .     A
C916   H960    1.084   .     S
C916   C918    1.387   .     A
C917   C919    1.387   .     A
C917   H961    1.084   .     S
C918   C924    1.408   .     A
C918   C920    1.415   .     A
C919   C926    1.408   .     A
C919   C921    1.415   .     A
C920   C922    1.411   .     A
C920   C183    1.391   1_556 S
C921   C923    1.410   .     A
C922   C933    1.398   .     A
C923   C925    1.398   .     A
C924   O982    1.384   .     S
C924   C187    1.395   1_556 S
C925   H962    1.083   .     S
C926   O970    1.384   .     S
C927   O982    1.410   .     S
C927   H942    1.114   .     S
C927   H943    1.112   .     S
C927   H1433   1.109   1_545 S
C928   H946    1.112   .     S
C928   H944    1.115   .     S
C928   O970    1.410   .     S
C928   H1191   1.110   .     S
C929   O971    1.410   .     S
C929   H947    1.109   .     S
C929   H948    1.113   .     S
C929   H949    1.113   .     S
C930   H953    1.113   .     S
C930   H952    1.109   .     S
C930   H951    1.113   .     S
C930   O972    1.410   .     S
C931   H956    1.111   .     S
C931   H955    1.114   .     S
C931   O973    1.412   .     S
C931   H954    1.109   .     S
C932   H959    1.111   .     S
C932   H958    1.109   .     S
C932   O974    1.412   .     S
C932   H957    1.114   .     S
C933   H963    1.083   .     S
C933   C188    1.395   1_556 S
C934   O971    1.385   .     S
C935   C938    1.402   .     A
C935   O972    1.385   .     S
C935   C773    1.383   1_655 S
C936   C938    1.402   .     A
C936   O973    1.386   .     S
C936   C770    1.383   1_655 S
C937   O974    1.386   .     S
H941   C1173   1.109   .     S
H945   C1420   1.110   1_545 S
N967   Zn983   2.004   .     S
N968   Zn984   2.004   .     S
O969   Zn983   1.994   .     S
O975   Zn984   1.994   .     S
O976   Zn983   1.987   .     S
O977   Zn984   1.987   .     S
O978   Zn983   2.020   .     S
O979   Zn984   2.020   .     S
O980   Zn983   2.018   .     S
O981   Zn984   2.018   .     S
C985   C986    1.412   .     S
C985   O1059   1.280   .     A
C985   O1051   1.276   .     A
C986   C1019   1.402   .     A
C986   C1016   1.402   .     A
C987   N1050   1.366   .     A
C987   H1046   1.082   .     S
C988   H1047   1.082   .     S
C988   N1049   1.366   .     A
C988   C1235   1.415   .     S
C989   H1048   1.082   .     S
C989   N1050   1.366   .     A
C990   N1049   1.366   .     A
C990   H1022   1.082   .     S
C990   C1233   1.415   .     S
C991   C997    1.439   .     S
C991   O1060   1.286   .     A
C991   O1063   1.286   .     A
C992   O1062   1.286   .     A
C992   O1061   1.286   .     A
C992   C995    1.439   .     S
C993   C1004   1.382   .     A
C993   H1021   1.085   .     S
C993   C995    1.396   .     A
C994   C1005   1.382   .     A
C994   H1032   1.085   .     S
C994   C997    1.396   .     A
C995   C998    1.397   .     A
C996   O1058   1.280   .     A
C996   C1020   1.412   .     S
C996   O1057   1.276   .     A
C997   C999    1.397   .     A
C998   H1042   1.084   .     S
C998   C1000   1.387   .     A
C999   C1001   1.387   .     A
C999   H1043   1.084   .     S
C1000  C1006   1.408   .     A
C1000  C1002   1.415   .     A
C1001  C1008   1.408   .     A
C1001  C1003   1.415   .     A
C1002  C1004   1.411   .     A
C1002  C265    1.391   1_556 S
C1003  C1005   1.410   .     A
C1004  C1015   1.398   .     A
C1005  C1007   1.398   .     A
C1006  O1064   1.384   .     S
C1006  C269    1.395   1_556 S
C1007  H1044   1.083   .     S
C1008  O1052   1.384   .     S
C1009  O1064   1.410   .     S
C1009  H1024   1.114   .     S
C1009  H1025   1.112   .     S
C1010  H1028   1.112   .     S
C1010  H1026   1.115   .     S
C1010  O1052   1.410   .     S
C1010  H1273   1.110   .     S
C1011  O1053   1.410   .     S
C1011  H1029   1.109   .     S
C1011  H1030   1.113   .     S
C1011  H1031   1.113   .     S
C1012  H1035   1.113   .     S
C1012  H1034   1.109   .     S
C1012  H1033   1.113   .     S
C1012  O1054   1.410   .     S
C1013  H1038   1.111   .     S
C1013  H1037   1.114   .     S
C1013  O1055   1.412   .     S
C1013  H1036   1.109   .     S
C1014  H1041   1.111   .     S
C1014  H1040   1.109   .     S
C1014  O1056   1.412   .     S
C1014  H1039   1.114   .     S
C1015  H1045   1.083   .     S
C1015  C270    1.395   1_556 S
C1016  O1053   1.385   .     S
C1016  C1182   1.383   1_455 S
C1017  C1020   1.402   .     A
C1017  O1054   1.385   .     S
C1017  C1101   1.383   .     S
C1018  C1020   1.402   .     A
C1018  O1055   1.386   .     S
C1018  C1098   1.383   .     S
C1019  O1056   1.386   .     S
C1019  C1181   1.383   1_455 S
H1023  C1255   1.109   .     S
N1049  Zn1065  2.004   .     S
N1050  Zn1066  2.004   .     S
O1051  Zn1065  1.994   .     S
O1057  Zn1066  1.994   .     S
O1058  Zn1065  1.987   .     S
O1059  Zn1066  1.987   .     S
O1060  Zn1065  2.020   .     S
O1061  Zn1066  2.020   .     S
O1062  Zn1065  2.018   .     S
O1063  Zn1066  2.018   .     S
C1067  C1068   1.412   .     S
C1067  O1141   1.280   .     A
C1067  O1133   1.276   .     A
C1068  C1101   1.402   .     A
C1068  C1098   1.402   .     A
C1069  N1132   1.366   .     A
C1069  H1128   1.082   .     S
C1070  H1129   1.082   .     S
C1070  N1131   1.366   .     A
C1070  C1317   1.415   .     S
C1071  H1130   1.082   .     S
C1071  N1132   1.366   .     A
C1072  N1131   1.366   .     A
C1072  H1104   1.082   .     S
C1072  C1315   1.415   .     S
C1073  C1079   1.439   .     S
C1073  O1142   1.286   .     A
C1073  O1145   1.286   .     A
C1074  O1144   1.286   .     A
C1074  O1143   1.286   .     A
C1074  C1077   1.439   .     S
C1075  C1086   1.382   .     A
C1075  H1103   1.085   .     S
C1075  C1077   1.396   .     A
C1076  C1087   1.382   .     A
C1076  H1114   1.085   .     S
C1076  C1079   1.396   .     A
C1077  C1080   1.397   .     A
C1078  O1140   1.280   .     A
C1078  C1102   1.412   .     S
C1078  O1139   1.276   .     A
C1079  C1081   1.397   .     A
C1080  H1124   1.084   .     S
C1080  C1082   1.387   .     A
C1081  C1083   1.387   .     A
C1081  H1125   1.084   .     S
C1082  C1088   1.408   .     A
C1082  C1084   1.415   .     A
C1083  C1090   1.408   .     A
C1083  C1085   1.415   .     A
C1084  C1086   1.411   .     A
C1084  C347    1.391   1_556 S
C1085  C1087   1.410   .     A
C1086  C1097   1.398   .     A
C1087  C1089   1.398   .     A
C1088  O1146   1.384   .     S
C1088  C351    1.395   1_556 S
C1089  H1126   1.083   .     S
C1090  O1134   1.384   .     S
C1091  O1146   1.410   .     S
C1091  H1106   1.114   .     S
C1091  H1107   1.112   .     S
C1092  H1110   1.112   .     S
C1092  H1108   1.115   .     S
C1092  O1134   1.410   .     S
C1092  H1355   1.110   .     S
C1093  O1135   1.410   .     S
C1093  H1111   1.109   .     S
C1093  H1112   1.113   .     S
C1093  H1113   1.113   .     S
C1094  H1117   1.113   .     S
C1094  H1116   1.109   .     S
C1094  H1115   1.113   .     S
C1094  O1136   1.410   .     S
C1095  H1120   1.111   .     S
C1095  H1119   1.114   .     S
C1095  O1137   1.412   .     S
C1095  H1118   1.109   .     S
C1096  H1123   1.111   .     S
C1096  H1122   1.109   .     S
C1096  O1138   1.412   .     S
C1096  H1121   1.114   .     S
C1097  H1127   1.083   .     S
C1097  C352    1.395   1_556 S
C1098  O1135   1.385   .     S
C1099  C1102   1.402   .     A
C1099  O1136   1.385   .     S
C1099  C1183   1.383   .     S
C1100  C1102   1.402   .     A
C1100  O1137   1.386   .     S
C1100  C1180   1.383   .     S
C1101  O1138   1.386   .     S
H1105  C1337   1.109   .     S
N1131  Zn1147  2.004   .     S
N1132  Zn1148  2.004   .     S
O1133  Zn1147  1.994   .     S
O1139  Zn1148  1.994   .     S
O1140  Zn1147  1.987   .     S
O1141  Zn1148  1.987   .     S
O1142  Zn1147  2.020   .     S
O1143  Zn1148  2.020   .     S
O1144  Zn1147  2.018   .     S
O1145  Zn1148  2.018   .     S
C1149  C1150   1.412   .     S
C1149  O1223   1.280   .     A
C1149  O1215   1.276   .     A
C1150  C1183   1.402   .     A
C1150  C1180   1.402   .     A
C1151  N1214   1.366   .     A
C1151  H1210   1.082   .     S
C1152  H1211   1.082   .     S
C1152  N1213   1.366   .     A
C1152  C1399   1.415   .     S
C1153  H1212   1.082   .     S
C1153  N1214   1.366   .     A
C1154  N1213   1.366   .     A
C1154  H1186   1.082   .     S
C1154  C1397   1.415   .     S
C1155  C1161   1.439   .     S
C1155  O1224   1.286   .     A
C1155  O1227   1.286   .     A
C1156  O1226   1.286   .     A
C1156  O1225   1.286   .     A
C1156  C1159   1.439   .     S
C1157  C1168   1.382   .     A
C1157  H1185   1.085   .     S
C1157  C1159   1.396   .     A
C1158  C1169   1.382   .     A
C1158  H1196   1.085   .     S
C1158  C1161   1.396   .     A
C1159  C1162   1.397   .     A
C1160  O1222   1.280   .     A
C1160  C1184   1.412   .     S
C1160  O1221   1.276   .     A
C1161  C1163   1.397   .     A
C1162  H1206   1.084   .     S
C1162  C1164   1.387   .     A
C1163  C1165   1.387   .     A
C1163  H1207   1.084   .     S
C1164  C1170   1.408   .     A
C1164  C1166   1.415   .     A
C1165  C1172   1.408   .     A
C1165  C1167   1.415   .     A
C1166  C1168   1.411   .     A
C1166  C429    1.391   1_556 S
C1167  C1169   1.410   .     A
C1168  C1179   1.398   .     A
C1169  C1171   1.398   .     A
C1170  O1228   1.384   .     S
C1170  C433    1.395   1_556 S
C1171  H1208   1.083   .     S
C1172  O1216   1.384   .     S
C1173  O1228   1.410   .     S
C1173  H1188   1.114   .     S
C1173  H1189   1.112   .     S
C1174  H1192   1.112   .     S
C1174  H1190   1.115   .     S
C1174  O1216   1.410   .     S
C1174  H1437   1.110   .     S
C1175  O1217   1.410   .     S
C1175  H1193   1.109   .     S
C1175  H1194   1.113   .     S
C1175  H1195   1.113   .     S
C1176  H1199   1.113   .     S
C1176  H1198   1.109   .     S
C1176  H1197   1.113   .     S
C1176  O1218   1.410   .     S
C1177  H1202   1.111   .     S
C1177  H1201   1.114   .     S
C1177  O1219   1.412   .     S
C1177  H1200   1.109   .     S
C1178  H1205   1.111   .     S
C1178  H1204   1.109   .     S
C1178  O1220   1.412   .     S
C1178  H1203   1.114   .     S
C1179  H1209   1.083   .     S
C1179  C434    1.395   1_556 S
C1180  O1217   1.385   .     S
C1181  C1184   1.402   .     A
C1181  O1218   1.385   .     S
C1181  C1019   1.383   1_655 S
C1182  C1184   1.402   .     A
C1182  O1219   1.386   .     S
C1182  C1016   1.383   1_655 S
C1183  O1220   1.386   .     S
H1187  C1419   1.109   .     S
N1213  Zn1229  2.004   .     S
N1214  Zn1230  2.004   .     S
O1215  Zn1229  1.994   .     S
O1221  Zn1230  1.994   .     S
O1222  Zn1229  1.987   .     S
O1223  Zn1230  1.987   .     S
O1224  Zn1229  2.020   .     S
O1225  Zn1230  2.020   .     S
O1226  Zn1229  2.018   .     S
O1227  Zn1230  2.018   .     S
C1231  C1232   1.412   .     S
C1231  O1305   1.280   .     A
C1231  O1297   1.276   .     A
C1232  C1265   1.402   .     A
C1232  C1262   1.402   .     A
C1233  N1296   1.366   .     A
C1233  H1292   1.082   .     S
C1234  H1293   1.082   .     S
C1234  N1295   1.366   .     A
C1234  C743    1.415   1_565 S
C1235  H1294   1.082   .     S
C1235  N1296   1.366   .     A
C1236  N1295   1.366   .     A
C1236  H1268   1.082   .     S
C1236  C741    1.415   1_565 S
C1237  C1243   1.439   .     S
C1237  O1306   1.286   .     A
C1237  O1309   1.286   .     A
C1238  O1308   1.286   .     A
C1238  O1307   1.286   .     A
C1238  C1241   1.439   .     S
C1239  C1250   1.382   .     A
C1239  H1267   1.085   .     S
C1239  C1241   1.396   .     A
C1240  C1251   1.382   .     A
C1240  H1278   1.085   .     S
C1240  C1243   1.396   .     A
C1241  C1244   1.397   .     A
C1242  O1304   1.280   .     A
C1242  C1266   1.412   .     S
C1242  O1303   1.276   .     A
C1243  C1245   1.397   .     A
C1244  H1288   1.084   .     S
C1244  C1246   1.387   .     A
C1245  C1247   1.387   .     A
C1245  H1289   1.084   .     S
C1246  C1252   1.408   .     A
C1246  C1248   1.415   .     A
C1247  C1254   1.408   .     A
C1247  C1249   1.415   .     A
C1248  C1250   1.411   .     A
C1248  C511    1.391   1_556 S
C1249  C1251   1.410   .     A
C1250  C1261   1.398   .     A
C1251  C1253   1.398   .     A
C1252  O1310   1.384   .     S
C1252  C515    1.395   1_556 S
C1253  H1290   1.083   .     S
C1254  O1298   1.384   .     S
C1255  O1310   1.410   .     S
C1255  H1270   1.114   .     S
C1255  H1271   1.112   .     S
C1256  H1274   1.112   .     S
C1256  H1272   1.115   .     S
C1256  O1298   1.410   .     S
C1256  H781    1.110   1_565 S
C1257  O1299   1.410   .     S
C1257  H1275   1.109   .     S
C1257  H1276   1.113   .     S
C1257  H1277   1.113   .     S
C1258  H1281   1.113   .     S
C1258  H1280   1.109   .     S
C1258  H1279   1.113   .     S
C1258  O1300   1.410   .     S
C1259  H1284   1.111   .     S
C1259  H1283   1.114   .     S
C1259  O1301   1.412   .     S
C1259  H1282   1.109   .     S
C1260  H1287   1.111   .     S
C1260  H1286   1.109   .     S
C1260  O1302   1.412   .     S
C1260  H1285   1.114   .     S
C1261  H1291   1.083   .     S
C1261  C516    1.395   1_556 S
C1262  O1299   1.385   .     S
C1262  C1428   1.383   1_455 S
C1263  C1266   1.402   .     A
C1263  O1300   1.385   .     S
C1263  C1347   1.383   .     S
C1264  C1266   1.402   .     A
C1264  O1301   1.386   .     S
C1264  C1344   1.383   .     S
C1265  O1302   1.386   .     S
C1265  C1427   1.383   1_455 S
H1269  C763    1.109   1_565 S
N1295  Zn1311  2.004   .     S
N1296  Zn1312  2.004   .     S
O1297  Zn1311  1.994   .     S
O1303  Zn1312  1.994   .     S
O1304  Zn1311  1.987   .     S
O1305  Zn1312  1.987   .     S
O1306  Zn1311  2.020   .     S
O1307  Zn1312  2.020   .     S
O1308  Zn1311  2.018   .     S
O1309  Zn1312  2.018   .     S
C1313  C1314   1.412   .     S
C1313  O1387   1.280   .     A
C1313  O1379   1.276   .     A
C1314  C1347   1.402   .     A
C1314  C1344   1.402   .     A
C1315  N1378   1.366   .     A
C1315  H1374   1.082   .     S
C1316  H1375   1.082   .     S
C1316  N1377   1.366   .     A
C1316  C825    1.415   1_565 S
C1317  H1376   1.082   .     S
C1317  N1378   1.366   .     A
C1318  N1377   1.366   .     A
C1318  H1350   1.082   .     S
C1318  C823    1.415   1_565 S
C1319  C1325   1.439   .     S
C1319  O1388   1.286   .     A
C1319  O1391   1.286   .     A
C1320  O1390   1.286   .     A
C1320  O1389   1.286   .     A
C1320  C1323   1.439   .     S
C1321  C1332   1.382   .     A
C1321  H1349   1.085   .     S
C1321  C1323   1.396   .     A
C1322  C1333   1.382   .     A
C1322  H1360   1.085   .     S
C1322  C1325   1.396   .     A
C1323  C1326   1.397   .     A
C1324  O1386   1.280   .     A
C1324  C1348   1.412   .     S
C1324  O1385   1.276   .     A
C1325  C1327   1.397   .     A
C1326  H1370   1.084   .     S
C1326  C1328   1.387   .     A
C1327  C1329   1.387   .     A
C1327  H1371   1.084   .     S
C1328  C1334   1.408   .     A
C1328  C1330   1.415   .     A
C1329  C1336   1.408   .     A
C1329  C1331   1.415   .     A
C1330  C1332   1.411   .     A
C1330  C593    1.391   1_556 S
C1331  C1333   1.410   .     A
C1332  C1343   1.398   .     A
C1333  C1335   1.398   .     A
C1334  O1392   1.384   .     S
C1334  C597    1.395   1_556 S
C1335  H1372   1.083   .     S
C1336  O1380   1.384   .     S
C1337  O1392   1.410   .     S
C1337  H1352   1.114   .     S
C1337  H1353   1.112   .     S
C1338  H1356   1.112   .     S
C1338  H1354   1.115   .     S
C1338  O1380   1.410   .     S
C1338  H863    1.110   1_565 S
C1339  O1381   1.410   .     S
C1339  H1357   1.109   .     S
C1339  H1358   1.113   .     S
C1339  H1359   1.113   .     S
C1340  H1363   1.113   .     S
C1340  H1362   1.109   .     S
C1340  H1361   1.113   .     S
C1340  O1382   1.410   .     S
C1341  H1366   1.111   .     S
C1341  H1365   1.114   .     S
C1341  O1383   1.412   .     S
C1341  H1364   1.109   .     S
C1342  H1369   1.111   .     S
C1342  H1368   1.109   .     S
C1342  O1384   1.412   .     S
C1342  H1367   1.114   .     S
C1343  H1373   1.083   .     S
C1343  C598    1.395   1_556 S
C1344  O1381   1.385   .     S
C1345  C1348   1.402   .     A
C1345  O1382   1.385   .     S
C1345  C1429   1.383   .     S
C1346  C1348   1.402   .     A
C1346  O1383   1.386   .     S
C1346  C1426   1.383   .     S
C1347  O1384   1.386   .     S
H1351  C845    1.109   1_565 S
N1377  Zn1393  2.004   .     S
N1378  Zn1394  2.004   .     S
O1379  Zn1393  1.994   .     S
O1385  Zn1394  1.994   .     S
O1386  Zn1393  1.987   .     S
O1387  Zn1394  1.987   .     S
O1388  Zn1393  2.020   .     S
O1389  Zn1394  2.020   .     S
O1390  Zn1393  2.018   .     S
O1391  Zn1394  2.018   .     S
C1395  C1396   1.412   .     S
C1395  O1469   1.280   .     A
C1395  O1461   1.276   .     A
C1396  C1429   1.402   .     A
C1396  C1426   1.402   .     A
C1397  N1460   1.366   .     A
C1397  H1456   1.082   .     S
C1398  H1457   1.082   .     S
C1398  N1459   1.366   .     A
C1398  C907    1.415   1_565 S
C1399  H1458   1.082   .     S
C1399  N1460   1.366   .     A
C1400  N1459   1.366   .     A
C1400  H1432   1.082   .     S
C1400  C905    1.415   1_565 S
C1401  C1407   1.439   .     S
C1401  O1470   1.286   .     A
C1401  O1473   1.286   .     A
C1402  O1472   1.286   .     A
C1402  O1471   1.286   .     A
C1402  C1405   1.439   .     S
C1403  C1414   1.382   .     A
C1403  H1431   1.085   .     S
C1403  C1405   1.396   .     A
C1404  C1415   1.382   .     A
C1404  H1442   1.085   .     S
C1404  C1407   1.396   .     A
C1405  C1408   1.397   .     A
C1406  O1468   1.280   .     A
C1406  C1430   1.412   .     S
C1406  O1467   1.276   .     A
C1407  C1409   1.397   .     A
C1408  H1452   1.084   .     S
C1408  C1410   1.387   .     A
C1409  C1411   1.387   .     A
C1409  H1453   1.084   .     S
C1410  C1416   1.408   .     A
C1410  C1412   1.415   .     A
C1411  C1418   1.408   .     A
C1411  C1413   1.415   .     A
C1412  C1414   1.411   .     A
C1412  C675    1.391   1_556 S
C1413  C1415   1.410   .     A
C1414  C1425   1.398   .     A
C1415  C1417   1.398   .     A
C1416  O1474   1.384   .     S
C1416  C679    1.395   1_556 S
C1417  H1454   1.083   .     S
C1418  O1462   1.384   .     S
C1419  O1474   1.410   .     S
C1419  H1434   1.114   .     S
C1419  H1435   1.112   .     S
C1420  H1438   1.112   .     S
C1420  H1436   1.115   .     S
C1420  O1462   1.410   .     S
C1420  H945    1.110   1_565 S
C1421  O1463   1.410   .     S
C1421  H1439   1.109   .     S
C1421  H1440   1.113   .     S
C1421  H1441   1.113   .     S
C1422  H1445   1.113   .     S
C1422  H1444   1.109   .     S
C1422  H1443   1.113   .     S
C1422  O1464   1.410   .     S
C1423  H1448   1.111   .     S
C1423  H1447   1.114   .     S
C1423  O1465   1.412   .     S
C1423  H1446   1.109   .     S
C1424  H1451   1.111   .     S
C1424  H1450   1.109   .     S
C1424  O1466   1.412   .     S
C1424  H1449   1.114   .     S
C1425  H1455   1.083   .     S
C1425  C680    1.395   1_556 S
C1426  O1463   1.385   .     S
C1427  C1430   1.402   .     A
C1427  O1464   1.385   .     S
C1427  C1265   1.383   1_655 S
C1428  C1430   1.402   .     A
C1428  O1465   1.386   .     S
C1428  C1262   1.383   1_655 S
C1429  O1466   1.386   .     S
H1433  C927    1.109   1_565 S
N1459  Zn1475  2.004   .     S
N1460  Zn1476  2.004   .     S
O1461  Zn1475  1.994   .     S
O1467  Zn1476  1.994   .     S
O1468  Zn1475  1.987   .     S
O1469  Zn1476  1.987   .     S
O1470  Zn1475  2.020   .     S
O1471  Zn1476  2.020   .     S
O1472  Zn1475  2.018   .     S
O1473  Zn1476  2.018   .     S
