data_str_m1_o1_o17_pcu_sym.102
_audit_creation_date              2020-01-03
_audit_creation_method            'Materials Studio'
_symmetry_space_group_name_H-M    'P1'
_symmetry_Int_Tables_number       1
_symmetry_cell_setting            triclinic
loop_
_symmetry_equiv_pos_as_xyz
  x,y,z
_cell_length_a                    36.6704
_cell_length_b                    36.6659
_cell_length_c                    34.4128
_cell_angle_alpha                 89.9614
_cell_angle_beta                  90.0674
_cell_angle_gamma                 90.0448
loop_
_atom_site_label
_atom_site_type_symbol
_atom_site_fract_x
_atom_site_fract_y
_atom_site_fract_z
_atom_site_U_iso_or_equiv
_atom_site_adp_type
_atom_site_occupancy
C1     C     0.01577   0.27931   0.41796   0.00000  Uiso   1.00
C2     C     0.23490   0.47007   0.08208   0.00000  Uiso   1.00
C3     C     0.22324   0.47924   0.54099   0.00000  Uiso   1.00
C4     C     0.01178   0.28141   0.45877   0.00000  Uiso   1.00
C5     C     0.48836   0.21859   0.54123   0.00000  Uiso   1.00
C6     C     0.22341   0.47914   0.45881   0.00000  Uiso   1.00
C7     C     0.28408   0.00817   0.54122   0.00000  Uiso   1.00
C8     C     0.23952   0.46743   0.95872   0.00000  Uiso   1.00
C9     C     0.26082   0.03158   0.04102   0.00000  Uiso   1.00
C10    C     0.03470   0.25756   0.95859   0.00000  Uiso   1.00
C11    C     0.47333   0.22912   0.04099   0.00000  Uiso   1.00
C12    C     0.26110   0.03137   0.95880   0.00000  Uiso   1.00
C13    C     0.47133   0.23396   0.91816   0.00000  Uiso   1.00
C14    C     0.23873   0.46799   0.04118   0.00000  Uiso   1.00
C15    C     0.47349   0.22903   0.95881   0.00000  Uiso   1.00
C16    C     0.03407   0.25826   0.04122   0.00000  Uiso   1.00
C17    C     0.09816   0.34810   0.24995   0.00000  Uiso   1.00
C18    C     0.40190   0.15184   0.74994   0.00000  Uiso   1.00
C19    C     0.15183   0.09810   0.25004   0.00000  Uiso   1.00
C20    C     0.34812   0.40185   0.75004   0.00000  Uiso   1.00
C21    C     0.40190   0.15184   0.25002   0.00000  Uiso   1.00
C22    C     0.09814   0.34812   0.75002   0.00000  Uiso   1.00
C23    C     0.34814   0.40187   0.25003   0.00000  Uiso   1.00
C24    C     0.03134   0.26291   0.08208   0.00000  Uiso   1.00
C25    C     0.15187   0.09814   0.74999   0.00000  Uiso   1.00
C26    C     0.09814   0.15187   0.75003   0.00000  Uiso   1.00
C27    C     0.40187   0.34814   0.24999   0.00000  Uiso   1.00
C28    C     0.15190   0.40184   0.75004   0.00000  Uiso   1.00
C29    C     0.34814   0.09812   0.25001   0.00000  Uiso   1.00
C30    C     0.40185   0.34812   0.75001   0.00000  Uiso   1.00
C31    C     0.09811   0.15184   0.25006   0.00000  Uiso   1.00
C32    C     0.34816   0.09810   0.74995   0.00000  Uiso   1.00
C33    C     0.15190   0.40183   0.24994   0.00000  Uiso   1.00
C34    C     0.00032   0.24981   0.47941   0.00000  Uiso   1.00
C35    C     0.23640   0.46917   0.91763   0.00000  Uiso   1.00
C36    C     0.49983   0.25020   0.52059   0.00000  Uiso   1.00
C37    C     0.25408   0.49326   0.47928   0.00000  Uiso   1.00
C38    C     0.25386   0.49347   0.52052   0.00000  Uiso   1.00
C39    C     0.25013   0.49948   0.97934   0.00000  Uiso   1.00
C40    C     0.24987   0.49968   0.02049   0.00000  Uiso   1.00
C41    C     0.00411   0.24325   0.97928   0.00000  Uiso   1.00
C42    C     0.00390   0.24346   0.02052   0.00000  Uiso   1.00
C43    C     0.48169   0.14972   0.46088   0.00000  Uiso   1.00
C44    C     0.01870   0.35026   0.53912   0.00000  Uiso   1.00
C45    C     0.35198   0.02138   0.46075   0.00000  Uiso   1.00
C46    C     0.26463   0.02975   0.08192   0.00000  Uiso   1.00
C47    C     0.16948   0.43673   0.54003   0.00000  Uiso   1.00
C48    C     0.02128   0.34920   0.45904   0.00000  Uiso   1.00
C49    C     0.47899   0.15079   0.54097   0.00000  Uiso   1.00
C50    C     0.16971   0.43659   0.45954   0.00000  Uiso   1.00
C51    C     0.35116   0.02170   0.54082   0.00000  Uiso   1.00
C52    C     0.23194   0.39929   0.96069   0.00000  Uiso   1.00
C53    C     0.26961   0.09946   0.04004   0.00000  Uiso   1.00
C54    C     0.10192   0.27173   0.96076   0.00000  Uiso   1.00
C55    C     0.41976   0.18637   0.04003   0.00000  Uiso   1.00
C56    C     0.26969   0.09933   0.95954   0.00000  Uiso   1.00
C57    C     0.03236   0.26103   0.91745   0.00000  Uiso   1.00
C58    C     0.22950   0.40020   0.04081   0.00000  Uiso   1.00
C59    C     0.41993   0.18631   0.95953   0.00000  Uiso   1.00
C60    C     0.10110   0.27202   0.04083   0.00000  Uiso   1.00
C61    C     0.07415   0.30359   0.39779   0.00000  Uiso   1.00
C62    C     0.42590   0.19642   0.60211   0.00000  Uiso   1.00
C63    C     0.16350   0.00845   0.39658   0.00000  Uiso   1.00
C64    C     0.30481   0.07159   0.60215   0.00000  Uiso   1.00
C65    C     0.48511   0.17001   0.36870   0.00000  Uiso   1.00
C66    C     0.01492   0.33000   0.63132   0.00000  Uiso   1.00
C67    C     0.33154   0.00901   0.36814   0.00000  Uiso   1.00
C68    C     0.47131   0.23382   0.08176   0.00000  Uiso   1.00
C69    C     0.16340   0.00718   0.60429   0.00000  Uiso   1.00
C70    C     0.32296   0.05486   0.89783   0.00000  Uiso   1.00
C71    C     0.17678   0.44527   0.10238   0.00000  Uiso   1.00
C72    C     0.41351   0.25821   0.89654   0.00000  Uiso   1.00
C73    C     0.05460   0.32176   0.10214   0.00000  Uiso   1.00
C74    C     0.23631   0.41975   0.86847   0.00000  Uiso   1.00
C75    C     0.32266   0.05499   0.10203   0.00000  Uiso   1.00
C76    C     0.08153   0.25918   0.86815   0.00000  Uiso   1.00
C77    C     0.41338   0.25690   0.10425   0.00000  Uiso   1.00
C78    C     0.00055   0.24968   0.39794   0.00000  Uiso   1.00
C79    C     0.49947   0.25035   0.60207   0.00000  Uiso   1.00
C80    C     0.25093   0.49894   0.39804   0.00000  Uiso   1.00
C81    C     0.48430   0.22070   0.58203   0.00000  Uiso   1.00
C82    C     0.25070   0.49942   0.60186   0.00000  Uiso   1.00
C83    C     0.25045   0.49959   0.89791   0.00000  Uiso   1.00
C84    C     0.24986   0.49992   0.10203   0.00000  Uiso   1.00
C85    C     0.00094   0.24893   0.89804   0.00000  Uiso   1.00
C86    C     0.00070   0.24942   0.10186   0.00000  Uiso   1.00
C87    C     0.48330   0.18508   0.47993   0.00000  Uiso   1.00
C88    C     0.01694   0.31490   0.52008   0.00000  Uiso   1.00
C89    C     0.31701   0.01581   0.47975   0.00000  Uiso   1.00
C90    C     0.19619   0.45952   0.52023   0.00000  Uiso   1.00
C91    C     0.01770   0.31446   0.47929   0.00000  Uiso   1.00
C92    C     0.22127   0.48406   0.41815   0.00000  Uiso   1.00
C93    C     0.48251   0.18553   0.52071   0.00000  Uiso   1.00
C94    C     0.19626   0.45949   0.47948   0.00000  Uiso   1.00
C95    C     0.31666   0.01612   0.52063   0.00000  Uiso   1.00
C96    C     0.23359   0.43462   0.97979   0.00000  Uiso   1.00
C97    C     0.26672   0.06448   0.02023   0.00000  Uiso   1.00
C98    C     0.06697   0.26602   0.97975   0.00000  Uiso   1.00
C99    C     0.44635   0.20929   0.02023   0.00000  Uiso   1.00
C100   C     0.26680   0.06440   0.97948   0.00000  Uiso   1.00
C101   C     0.23291   0.43497   0.02060   0.00000  Uiso   1.00
C102   C     0.44642   0.20928   0.97949   0.00000  Uiso   1.00
C103   C     0.28137   0.01281   0.58208   0.00000  Uiso   1.00
C104   C     0.06662   0.26632   0.02063   0.00000  Uiso   1.00
C105   C     0.24970   0.49992   0.35574   0.00000  Uiso   1.00
C106   C     0.24990   0.49999   0.64422   0.00000  Uiso   1.00
C107   C     0.00008   0.25014   0.35570   0.00000  Uiso   1.00
C108   C     0.49992   0.24987   0.64430   0.00000  Uiso   1.00
C109   C     0.49970   0.24992   0.85574   0.00000  Uiso   1.00
C110   C     0.49990   0.24999   0.14422   0.00000  Uiso   1.00
C111   C     0.25006   0.00012   0.85569   0.00000  Uiso   1.00
C112   C     0.24997   0.49998   0.14429   0.00000  Uiso   1.00
C113   C     0.17992   0.07006   0.25001   0.00000  Uiso   1.00
C114   C     0.48615   0.21950   0.41778   0.00000  Uiso   1.00
C115   C     0.32007   0.42993   0.75002   0.00000  Uiso   1.00
C116   C     0.42995   0.17993   0.25001   0.00000  Uiso   1.00
C117   C     0.07006   0.32006   0.75001   0.00000  Uiso   1.00
C118   C     0.32007   0.42994   0.25002   0.00000  Uiso   1.00
C119   C     0.17994   0.07007   0.74999   0.00000  Uiso   1.00
C120   C     0.07007   0.32006   0.24999   0.00000  Uiso   1.00
C121   C     0.42994   0.17992   0.74998   0.00000  Uiso   1.00
C122   C     0.17995   0.42993   0.75001   0.00000  Uiso   1.00
C123   C     0.32006   0.07005   0.25001   0.00000  Uiso   1.00
C124   C     0.42993   0.32006   0.74999   0.00000  Uiso   1.00
C125   C     0.01394   0.28051   0.58224   0.00000  Uiso   1.00
C126   C     0.07006   0.17993   0.25002   0.00000  Uiso   1.00
C127   C     0.32007   0.07006   0.74999   0.00000  Uiso   1.00
C128   C     0.17994   0.42992   0.24998   0.00000  Uiso   1.00
C129   C     0.07007   0.17994   0.75002   0.00000  Uiso   1.00
C130   C     0.42994   0.32007   0.24999   0.00000  Uiso   1.00
C131   C     0.12366   0.40307   0.22249   0.00000  Uiso   1.00
C132   C     0.37642   0.09684   0.77737   0.00000  Uiso   1.00
C133   C     0.09522   0.12199   0.22480   0.00000  Uiso   1.00
C134   C     0.40469   0.37792   0.77534   0.00000  Uiso   1.00
C135   C     0.37692   0.09631   0.22332   0.00000  Uiso   1.00
C136   C     0.28238   0.01095   0.41745   0.00000  Uiso   1.00
C137   C     0.12282   0.40393   0.77634   0.00000  Uiso   1.00
C138   C     0.40468   0.37801   0.22473   0.00000  Uiso   1.00
C139   C     0.09532   0.12200   0.77528   0.00000  Uiso   1.00
C140   C     0.12205   0.09527   0.77526   0.00000  Uiso   1.00
C141   C     0.37796   0.40474   0.22475   0.00000  Uiso   1.00
C142   C     0.09607   0.37720   0.77633   0.00000  Uiso   1.00
C143   C     0.40368   0.12304   0.22333   0.00000  Uiso   1.00
C144   C     0.37796   0.40464   0.77536   0.00000  Uiso   1.00
C145   C     0.12194   0.09526   0.22479   0.00000  Uiso   1.00
C146   C     0.40317   0.12357   0.77735   0.00000  Uiso   1.00
C147   C     0.22125   0.48393   0.58177   0.00000  Uiso   1.00
C148   C     0.09692   0.37633   0.22249   0.00000  Uiso   1.00
C149   C     0.37365   0.15308   0.72249   0.00000  Uiso   1.00
C150   C     0.12642   0.34685   0.27738   0.00000  Uiso   1.00
C151   C     0.34528   0.37204   0.72472   0.00000  Uiso   1.00
C152   C     0.15470   0.12793   0.27532   0.00000  Uiso   1.00
C153   C     0.12723   0.34601   0.72373   0.00000  Uiso   1.00
C154   C     0.37311   0.15364   0.27671   0.00000  Uiso   1.00
C155   C     0.15469   0.12802   0.72474   0.00000  Uiso   1.00
C156   C     0.34533   0.37200   0.27529   0.00000  Uiso   1.00
C157   C     0.37205   0.34528   0.27527   0.00000  Uiso   1.00
C158   C     0.26505   0.02948   0.91799   0.00000  Uiso   1.00
C159   C     0.12797   0.15475   0.72476   0.00000  Uiso   1.00
C160   C     0.34636   0.12691   0.27670   0.00000  Uiso   1.00
C161   C     0.15398   0.37274   0.72374   0.00000  Uiso   1.00
C162   C     0.12798   0.15466   0.27533   0.00000  Uiso   1.00
C163   C     0.37200   0.34532   0.72470   0.00000  Uiso   1.00
C164   C     0.15316   0.37358   0.27736   0.00000  Uiso   1.00
C165   C     0.34691   0.12634   0.72250   0.00000  Uiso   1.00
C166   C     0.48940   0.21781   0.45885   0.00000  Uiso   1.00
C167   C     0.01075   0.28219   0.54116   0.00000  Uiso   1.00
C168   C     0.28471   0.00747   0.45859   0.00000  Uiso   1.00
H169   H     0.12226   0.42458   0.20094   0.00000  Uiso   1.00
H170   H     0.38068   0.42758   0.20498   0.00000  Uiso   1.00
H171   H     0.07387   0.37932   0.79694   0.00000  Uiso   1.00
H172   H     0.42564   0.12117   0.20241   0.00000  Uiso   1.00
H173   H     0.38070   0.42742   0.79517   0.00000  Uiso   1.00
H174   H     0.11918   0.07245   0.20502   0.00000  Uiso   1.00
H175   H     0.42471   0.12215   0.79887   0.00000  Uiso   1.00
H176   H     0.07540   0.37772   0.20095   0.00000  Uiso   1.00
H177   H     0.37225   0.17459   0.70096   0.00000  Uiso   1.00
H178   H     0.12782   0.32534   0.29892   0.00000  Uiso   1.00
H179   H     0.32246   0.36934   0.70491   0.00000  Uiso   1.00
H180   H     0.37783   0.07533   0.79891   0.00000  Uiso   1.00
H181   H     0.17754   0.13066   0.29509   0.00000  Uiso   1.00
H182   H     0.12932   0.32380   0.70312   0.00000  Uiso   1.00
H183   H     0.37126   0.17562   0.29764   0.00000  Uiso   1.00
H184   H     0.17749   0.13078   0.70497   0.00000  Uiso   1.00
H185   H     0.32253   0.36925   0.29506   0.00000  Uiso   1.00
H186   H     0.36934   0.32244   0.29503   0.00000  Uiso   1.00
H187   H     0.13069   0.17759   0.70500   0.00000  Uiso   1.00
H188   H     0.32440   0.12878   0.29763   0.00000  Uiso   1.00
H189   H     0.17618   0.37062   0.70314   0.00000  Uiso   1.00
H190   H     0.13074   0.17747   0.29510   0.00000  Uiso   1.00
H191   H     0.07238   0.11926   0.20503   0.00000  Uiso   1.00
H192   H     0.36927   0.32254   0.70489   0.00000  Uiso   1.00
H193   H     0.17470   0.37216   0.29888   0.00000  Uiso   1.00
H194   H     0.32539   0.12773   0.70096   0.00000  Uiso   1.00
H195   H     0.02457   0.31385   0.37007   0.00000  Uiso   1.00
H196   H     0.08667   0.32733   0.38281   0.00000  Uiso   1.00
H197   H     0.08274   0.27823   0.38275   0.00000  Uiso   1.00
H198   H     0.08423   0.30306   0.42825   0.00000  Uiso   1.00
H199   H     0.47544   0.18616   0.62989   0.00000  Uiso   1.00
H200   H     0.41337   0.17268   0.61708   0.00000  Uiso   1.00
H201   H     0.41585   0.19696   0.57165   0.00000  Uiso   1.00
H202   H     0.42750   0.38062   0.79515   0.00000  Uiso   1.00
H203   H     0.41730   0.22179   0.61715   0.00000  Uiso   1.00
H204   H     0.19012   0.46422   0.37162   0.00000  Uiso   1.00
H205   H     0.13734   0.00021   0.38287   0.00000  Uiso   1.00
H206   H     0.17577   0.03088   0.37922   0.00000  Uiso   1.00
H207   H     0.15766   0.01833   0.42646   0.00000  Uiso   1.00
H208   H     0.31493   0.02231   0.63042   0.00000  Uiso   1.00
H209   H     0.32824   0.08444   0.61737   0.00000  Uiso   1.00
H210   H     0.27920   0.08004   0.61678   0.00000  Uiso   1.00
H211   H     0.30449   0.08151   0.57164   0.00000  Uiso   1.00
H212   H     0.44262   0.18220   0.40876   0.00000  Uiso   1.00
H213   H     0.37876   0.07436   0.20237   0.00000  Uiso   1.00
H214   H     0.47952   0.14083   0.37465   0.00000  Uiso   1.00
H215   H     0.01508   0.17452   0.37000   0.00000  Uiso   1.00
H216   H     0.47524   0.17601   0.33888   0.00000  Uiso   1.00
H217   H     0.05751   0.31774   0.59139   0.00000  Uiso   1.00
H218   H     0.02051   0.35918   0.62535   0.00000  Uiso   1.00
H219   H     0.02475   0.32403   0.66115   0.00000  Uiso   1.00
H220   H     0.48495   0.32549   0.62998   0.00000  Uiso   1.00
H221   H     0.31927   0.05441   0.40505   0.00000  Uiso   1.00
H222   H     0.36087   0.01232   0.37506   0.00000  Uiso   1.00
H223   H     0.32688   0.01944   0.33826   0.00000  Uiso   1.00
H224   H     0.12073   0.42614   0.79695   0.00000  Uiso   1.00
H225   H     0.32479   0.47944   0.36901   0.00000  Uiso   1.00
H226   H     0.19082   0.46283   0.62813   0.00000  Uiso   1.00
H227   H     0.13746   0.49835   0.61802   0.00000  Uiso   1.00
H228   H     0.15717   0.01756   0.57467   0.00000  Uiso   1.00
H229   H     0.17553   0.02942   0.62203   0.00000  Uiso   1.00
H230   H     0.27319   0.06425   0.87019   0.00000  Uiso   1.00
H231   H     0.33503   0.07887   0.88293   0.00000  Uiso   1.00
H232   H     0.33197   0.02971   0.88266   0.00000  Uiso   1.00
H233   H     0.33310   0.05439   0.92826   0.00000  Uiso   1.00
H234   H     0.22646   0.43573   0.13015   0.00000  Uiso   1.00
H235   H     0.42748   0.38077   0.20495   0.00000  Uiso   1.00
H236   H     0.16452   0.42146   0.11747   0.00000  Uiso   1.00
H237   H     0.16667   0.44560   0.07194   0.00000  Uiso   1.00
H238   H     0.16795   0.47060   0.11733   0.00000  Uiso   1.00
H239   H     0.44022   0.21399   0.87166   0.00000  Uiso   1.00
H240   H     0.38737   0.24990   0.88284   0.00000  Uiso   1.00
H241   H     0.42573   0.28063   0.87914   0.00000  Uiso   1.00
H242   H     0.40764   0.26812   0.92640   0.00000  Uiso   1.00
H243   H     0.06487   0.27251   0.13042   0.00000  Uiso   1.00
H244   H     0.07799   0.33468   0.11736   0.00000  Uiso   1.00
H245   H     0.02896   0.33013   0.11676   0.00000  Uiso   1.00
H246   H     0.07252   0.11923   0.79505   0.00000  Uiso   1.00
H247   H     0.05425   0.33167   0.07163   0.00000  Uiso   1.00
H248   H     0.19330   0.43144   0.90812   0.00000  Uiso   1.00
H249   H     0.23114   0.39049   0.87438   0.00000  Uiso   1.00
H250   H     0.26620   0.42470   0.86992   0.00000  Uiso   1.00
H251   H     0.22648   0.42562   0.83860   0.00000  Uiso   1.00
H252   H     0.27300   0.06431   0.12978   0.00000  Uiso   1.00
H253   H     0.33481   0.07894   0.11697   0.00000  Uiso   1.00
H254   H     0.33269   0.05459   0.07159   0.00000  Uiso   1.00
H255   H     0.33169   0.02978   0.11714   0.00000  Uiso   1.00
H256   H     0.06912   0.30459   0.90500   0.00000  Uiso   1.00
H257   H     0.11932   0.07242   0.79502   0.00000  Uiso   1.00
H258   H     0.11085   0.26255   0.87510   0.00000  Uiso   1.00
H259   H     0.07687   0.26959   0.83826   0.00000  Uiso   1.00
H260   H     0.07484   0.22960   0.86902   0.00000  Uiso   1.00
H261   H     0.44092   0.21262   0.12811   0.00000  Uiso   1.00
H262   H     0.38747   0.24799   0.11796   0.00000  Uiso   1.00
H263   H     0.40714   0.26725   0.07462   0.00000  Uiso   1.00
H264   H     0.42544   0.27918   0.12199   0.00000  Uiso   1.00
N265   N     0.48046   0.12117   0.44660   0.00000  Uiso   1.00
N266   N     0.27187   0.12736   0.05558   0.00000  Uiso   1.00
N267   N     0.13011   0.27634   0.94646   0.00000  Uiso   1.00
N268   N     0.39859   0.16802   0.05556   0.00000  Uiso   1.00
N269   N     0.27194   0.12720   0.94390   0.00000  Uiso   1.00
N270   N     0.22684   0.37247   0.05666   0.00000  Uiso   1.00
N271   N     0.39885   0.16794   0.94388   0.00000  Uiso   1.00
N272   N     0.12862   0.27650   0.05665   0.00000  Uiso   1.00
N273   N     0.03486   0.30706   0.39701   0.00000  Uiso   1.00
N274   N     0.46519   0.19295   0.60294   0.00000  Uiso   1.00
N275   N     0.18788   0.47749   0.39788   0.00000  Uiso   1.00
N276   N     0.02006   0.37881   0.55340   0.00000  Uiso   1.00
N277   N     0.30869   0.03232   0.60321   0.00000  Uiso   1.00
N278   N     0.46584   0.19290   0.39630   0.00000  Uiso   1.00
N279   N     0.03422   0.30710   0.60375   0.00000  Uiso   1.00
N280   N     0.30949   0.02970   0.39528   0.00000  Uiso   1.00
N281   N     0.18815   0.47656   0.60217   0.00000  Uiso   1.00
N282   N     0.28361   0.05763   0.89712   0.00000  Uiso   1.00
N283   N     0.21612   0.44221   0.10314   0.00000  Uiso   1.00
N284   N     0.43795   0.22730   0.89790   0.00000  Uiso   1.00
N285   N     0.05860   0.28249   0.10321   0.00000  Uiso   1.00
N286   N     0.21658   0.44233   0.89599   0.00000  Uiso   1.00
N287   N     0.38018   0.02588   0.44646   0.00000  Uiso   1.00
N288   N     0.28331   0.05781   0.10280   0.00000  Uiso   1.00
N289   N     0.05942   0.27984   0.89527   0.00000  Uiso   1.00
N290   N     0.43823   0.22635   0.10215   0.00000  Uiso   1.00
N291   N     0.14821   0.41849   0.55555   0.00000  Uiso   1.00
N292   N     0.02409   0.37691   0.44316   0.00000  Uiso   1.00
N293   N     0.47624   0.12308   0.55686   0.00000  Uiso   1.00
N294   N     0.14858   0.41828   0.44388   0.00000  Uiso   1.00
N295   N     0.37870   0.02609   0.55665   0.00000  Uiso   1.00
N296   N     0.23068   0.37076   0.94637   0.00000  Uiso   1.00
O297   O     0.25000  -0.00000   0.25000   0.00000  Uiso   1.00
O298   O     0.25000   0.46964   0.66245   0.00000  Uiso   1.00
O299   O     0.46964   0.25000   0.33755   0.00000  Uiso   1.00
O300   O     0.03037   0.25000   0.66245   0.00000  Uiso   1.00
O301   O     0.00000   0.21964   0.83755   0.00000  Uiso   1.00
O302   O     0.00000   0.28037   0.16245   0.00000  Uiso   1.00
O303   O     0.28037  -0.00000   0.83755   0.00000  Uiso   1.00
O304   O     0.21964  -0.00000   0.16245   0.00000  Uiso   1.00
O305   O     0.00000   0.28037   0.83755   0.00000  Uiso   1.00
O306   O     0.00000   0.21964   0.16245   0.00000  Uiso   1.00
O307   O     0.21964  -0.00000   0.83755   0.00000  Uiso   1.00
O308   O     0.25000  -0.00000   0.75000   0.00000  Uiso   1.00
O309   O     0.28037  -0.00000   0.16245   0.00000  Uiso   1.00
O310   O     0.20725   0.07308   0.27302   0.00000  Uiso   1.00
O311   O     0.29276   0.42693   0.72698   0.00000  Uiso   1.00
O312   O     0.42693   0.20725   0.27302   0.00000  Uiso   1.00
O313   O     0.07308   0.29276   0.72698   0.00000  Uiso   1.00
O314   O     0.29276   0.42693   0.27302   0.00000  Uiso   1.00
O315   O     0.20725   0.07308   0.72698   0.00000  Uiso   1.00
O316   O     0.07308   0.29276   0.27302   0.00000  Uiso   1.00
O317   O     0.42693   0.20725   0.72698   0.00000  Uiso   1.00
O318   O     0.20725   0.42693   0.72698   0.00000  Uiso   1.00
O319   O     0.00000   0.25000   0.25000   0.00000  Uiso   1.00
O320   O     0.29276   0.07308   0.27302   0.00000  Uiso   1.00
O321   O     0.42693   0.29276   0.72698   0.00000  Uiso   1.00
O322   O     0.07308   0.20725   0.27302   0.00000  Uiso   1.00
O323   O     0.29276   0.07308   0.72698   0.00000  Uiso   1.00
O324   O     0.20725   0.42693   0.27302   0.00000  Uiso   1.00
O325   O     0.07308   0.20725   0.72698   0.00000  Uiso   1.00
O326   O     0.42693   0.29276   0.27302   0.00000  Uiso   1.00
O327   O     0.45725   0.32308   0.77302   0.00000  Uiso   1.00
O328   O     0.04276   0.17693   0.22698   0.00000  Uiso   1.00
O329   O     0.17693   0.45725   0.77302   0.00000  Uiso   1.00
O330   O     0.00000   0.25000   0.75000   0.00000  Uiso   1.00
O331   O     0.32308   0.04276   0.22698   0.00000  Uiso   1.00
O332   O     0.04276   0.17693   0.77302   0.00000  Uiso   1.00
O333   O     0.45725   0.32308   0.22698   0.00000  Uiso   1.00
O334   O     0.32308   0.04276   0.77302   0.00000  Uiso   1.00
O335   O     0.17693   0.45725   0.22698   0.00000  Uiso   1.00
O336   O     0.45725   0.17693   0.22698   0.00000  Uiso   1.00
O337   O     0.04276   0.32308   0.77302   0.00000  Uiso   1.00
O338   O     0.17693   0.04276   0.22698   0.00000  Uiso   1.00
O339   O     0.32308   0.45725   0.77302   0.00000  Uiso   1.00
O340   O     0.04276   0.32308   0.22698   0.00000  Uiso   1.00
O341   O     0.25000   0.46964   0.33755   0.00000  Uiso   1.00
O342   O     0.45725   0.17693   0.77302   0.00000  Uiso   1.00
O343   O     0.32308   0.45725   0.22698   0.00000  Uiso   1.00
O344   O     0.17693   0.04276   0.77302   0.00000  Uiso   1.00
O345   O     0.25000   0.03037   0.66245   0.00000  Uiso   1.00
O346   O     0.03037   0.25000   0.33755   0.00000  Uiso   1.00
O347   O     0.46964   0.25000   0.66245   0.00000  Uiso   1.00
O348   O     0.25000   0.03037   0.33755   0.00000  Uiso   1.00
Zn349  Zn    0.20660  -0.00000   0.21735   0.00000  Uiso   1.00
Zn350  Zn    0.04341   0.25000   0.28265   0.00000  Uiso   1.00
Zn351  Zn    0.25000   0.45660   0.71735   0.00000  Uiso   1.00
Zn352  Zn    0.25000   0.04341   0.28265   0.00000  Uiso   1.00
Zn353  Zn    0.04341   0.25000   0.71735   0.00000  Uiso   1.00
Zn354  Zn    0.45660   0.25000   0.28265   0.00000  Uiso   1.00
Zn355  Zn    0.25000   0.04341   0.71735   0.00000  Uiso   1.00
Zn356  Zn    0.25000   0.45660   0.28265   0.00000  Uiso   1.00
Zn357  Zn    0.29341  -0.00000   0.78265   0.00000  Uiso   1.00
Zn358  Zn    0.00000   0.20660   0.21735   0.00000  Uiso   1.00
Zn359  Zn    0.00000   0.29341   0.78265   0.00000  Uiso   1.00
Zn360  Zn    0.29341  -0.00000   0.21735   0.00000  Uiso   1.00
Zn361  Zn    0.20660  -0.00000   0.78265   0.00000  Uiso   1.00
Zn362  Zn    0.00000   0.29341   0.21735   0.00000  Uiso   1.00
Zn363  Zn    0.00000   0.20660   0.78265   0.00000  Uiso   1.00
Zn364  Zn    0.45660   0.25000   0.71735   0.00000  Uiso   1.00
C365   C     0.51577   0.27931   0.41796   0.00000  Uiso   1.00
C366   C     0.73490   0.47007   0.08208   0.00000  Uiso   1.00
C367   C     0.72324   0.47924   0.54099   0.00000  Uiso   1.00
C368   C     0.51178   0.28141   0.45877   0.00000  Uiso   1.00
C369   C     0.98836   0.21859   0.54123   0.00000  Uiso   1.00
C370   C     0.72341   0.47914   0.45881   0.00000  Uiso   1.00
C371   C     0.78408   0.00817   0.54122   0.00000  Uiso   1.00
C372   C     0.73952   0.46743   0.95872   0.00000  Uiso   1.00
C373   C     0.76082   0.03158   0.04102   0.00000  Uiso   1.00
C374   C     0.53470   0.25756   0.95859   0.00000  Uiso   1.00
C375   C     0.97333   0.22912   0.04099   0.00000  Uiso   1.00
C376   C     0.76110   0.03137   0.95880   0.00000  Uiso   1.00
C377   C     0.97133   0.23396   0.91816   0.00000  Uiso   1.00
C378   C     0.73873   0.46799   0.04118   0.00000  Uiso   1.00
C379   C     0.97349   0.22903   0.95881   0.00000  Uiso   1.00
C380   C     0.53407   0.25826   0.04122   0.00000  Uiso   1.00
C381   C     0.59816   0.34810   0.24995   0.00000  Uiso   1.00
C382   C     0.90190   0.15184   0.74994   0.00000  Uiso   1.00
C383   C     0.65183   0.09810   0.25004   0.00000  Uiso   1.00
C384   C     0.84812   0.40185   0.75004   0.00000  Uiso   1.00
C385   C     0.90190   0.15184   0.25002   0.00000  Uiso   1.00
C386   C     0.59814   0.34812   0.75002   0.00000  Uiso   1.00
C387   C     0.84814   0.40187   0.25003   0.00000  Uiso   1.00
C388   C     0.53134   0.26291   0.08208   0.00000  Uiso   1.00
C389   C     0.65187   0.09814   0.74999   0.00000  Uiso   1.00
C390   C     0.59814   0.15187   0.75003   0.00000  Uiso   1.00
C391   C     0.90187   0.34814   0.24999   0.00000  Uiso   1.00
C392   C     0.65190   0.40184   0.75004   0.00000  Uiso   1.00
C393   C     0.84814   0.09812   0.25001   0.00000  Uiso   1.00
C394   C     0.90185   0.34812   0.75001   0.00000  Uiso   1.00
C395   C     0.59811   0.15184   0.25006   0.00000  Uiso   1.00
C396   C     0.84816   0.09810   0.74995   0.00000  Uiso   1.00
C397   C     0.65190   0.40183   0.24994   0.00000  Uiso   1.00
C398   C     0.50032   0.24981   0.47941   0.00000  Uiso   1.00
C399   C     0.73640   0.46917   0.91763   0.00000  Uiso   1.00
C400   C     0.99983   0.25020   0.52059   0.00000  Uiso   1.00
C401   C     0.75408   0.49326   0.47928   0.00000  Uiso   1.00
C402   C     0.75386   0.49347   0.52052   0.00000  Uiso   1.00
C403   C     0.75013   0.49948   0.97934   0.00000  Uiso   1.00
C404   C     0.74987   0.49968   0.02049   0.00000  Uiso   1.00
C405   C     0.50411   0.24325   0.97928   0.00000  Uiso   1.00
C406   C     0.50390   0.24346   0.02052   0.00000  Uiso   1.00
C407   C     0.98169   0.14972   0.46088   0.00000  Uiso   1.00
C408   C     0.51870   0.35026   0.53912   0.00000  Uiso   1.00
C409   C     0.85198   0.02138   0.46075   0.00000  Uiso   1.00
C410   C     0.76463   0.02975   0.08192   0.00000  Uiso   1.00
C411   C     0.66948   0.43673   0.54003   0.00000  Uiso   1.00
C412   C     0.52128   0.34920   0.45904   0.00000  Uiso   1.00
C413   C     0.97899   0.15079   0.54097   0.00000  Uiso   1.00
C414   C     0.66971   0.43659   0.45954   0.00000  Uiso   1.00
C415   C     0.85116   0.02170   0.54082   0.00000  Uiso   1.00
C416   C     0.73194   0.39929   0.96069   0.00000  Uiso   1.00
C417   C     0.76961   0.09946   0.04004   0.00000  Uiso   1.00
C418   C     0.60192   0.27173   0.96076   0.00000  Uiso   1.00
C419   C     0.91976   0.18637   0.04003   0.00000  Uiso   1.00
C420   C     0.76969   0.09933   0.95954   0.00000  Uiso   1.00
C421   C     0.53236   0.26103   0.91745   0.00000  Uiso   1.00
C422   C     0.72950   0.40020   0.04081   0.00000  Uiso   1.00
C423   C     0.91993   0.18631   0.95953   0.00000  Uiso   1.00
C424   C     0.60110   0.27202   0.04083   0.00000  Uiso   1.00
C425   C     0.57415   0.30359   0.39779   0.00000  Uiso   1.00
C426   C     0.92590   0.19642   0.60211   0.00000  Uiso   1.00
C427   C     0.66350   0.00845   0.39658   0.00000  Uiso   1.00
C428   C     0.80481   0.07159   0.60215   0.00000  Uiso   1.00
C429   C     0.98511   0.17001   0.36870   0.00000  Uiso   1.00
C430   C     0.51492   0.33000   0.63132   0.00000  Uiso   1.00
C431   C     0.83154   0.00901   0.36814   0.00000  Uiso   1.00
C432   C     0.97131   0.23382   0.08176   0.00000  Uiso   1.00
C433   C     0.66340   0.00718   0.60429   0.00000  Uiso   1.00
C434   C     0.82296   0.05486   0.89783   0.00000  Uiso   1.00
C435   C     0.67678   0.44527   0.10238   0.00000  Uiso   1.00
C436   C     0.91351   0.25821   0.89654   0.00000  Uiso   1.00
C437   C     0.55460   0.32176   0.10214   0.00000  Uiso   1.00
C438   C     0.73631   0.41975   0.86847   0.00000  Uiso   1.00
C439   C     0.82266   0.05499   0.10203   0.00000  Uiso   1.00
C440   C     0.58153   0.25918   0.86815   0.00000  Uiso   1.00
C441   C     0.91338   0.25690   0.10425   0.00000  Uiso   1.00
C442   C     0.50055   0.24968   0.39794   0.00000  Uiso   1.00
C443   C     0.99947   0.25035   0.60207   0.00000  Uiso   1.00
C444   C     0.75093   0.49894   0.39804   0.00000  Uiso   1.00
C445   C     0.98430   0.22070   0.58203   0.00000  Uiso   1.00
C446   C     0.75070   0.49942   0.60186   0.00000  Uiso   1.00
C447   C     0.75045   0.49959   0.89791   0.00000  Uiso   1.00
C448   C     0.74986   0.49992   0.10203   0.00000  Uiso   1.00
C449   C     0.50094   0.24893   0.89804   0.00000  Uiso   1.00
C450   C     0.50070   0.24942   0.10186   0.00000  Uiso   1.00
C451   C     0.98330   0.18508   0.47993   0.00000  Uiso   1.00
C452   C     0.51694   0.31490   0.52008   0.00000  Uiso   1.00
C453   C     0.81701   0.01581   0.47975   0.00000  Uiso   1.00
C454   C     0.69619   0.45952   0.52023   0.00000  Uiso   1.00
C455   C     0.51770   0.31446   0.47929   0.00000  Uiso   1.00
C456   C     0.72127   0.48406   0.41815   0.00000  Uiso   1.00
C457   C     0.98251   0.18553   0.52071   0.00000  Uiso   1.00
C458   C     0.69626   0.45949   0.47948   0.00000  Uiso   1.00
C459   C     0.81666   0.01612   0.52063   0.00000  Uiso   1.00
C460   C     0.73359   0.43462   0.97979   0.00000  Uiso   1.00
C461   C     0.76672   0.06448   0.02023   0.00000  Uiso   1.00
C462   C     0.56697   0.26602   0.97975   0.00000  Uiso   1.00
C463   C     0.94635   0.20929   0.02023   0.00000  Uiso   1.00
C464   C     0.76680   0.06440   0.97948   0.00000  Uiso   1.00
C465   C     0.73291   0.43497   0.02060   0.00000  Uiso   1.00
C466   C     0.94642   0.20928   0.97949   0.00000  Uiso   1.00
C467   C     0.78137   0.01281   0.58208   0.00000  Uiso   1.00
C468   C     0.56662   0.26632   0.02063   0.00000  Uiso   1.00
C469   C     0.74970   0.49992   0.35574   0.00000  Uiso   1.00
C470   C     0.74990   0.49999   0.64422   0.00000  Uiso   1.00
C471   C     0.50008   0.25014   0.35570   0.00000  Uiso   1.00
C472   C     0.99992   0.24987   0.64430   0.00000  Uiso   1.00
C473   C     0.99970   0.24992   0.85574   0.00000  Uiso   1.00
C474   C     0.99990   0.24999   0.14422   0.00000  Uiso   1.00
C475   C     0.75006   0.00012   0.85569   0.00000  Uiso   1.00
C476   C     0.74997   0.49998   0.14429   0.00000  Uiso   1.00
C477   C     0.67992   0.07006   0.25001   0.00000  Uiso   1.00
C478   C     0.98615   0.21950   0.41778   0.00000  Uiso   1.00
C479   C     0.82007   0.42993   0.75002   0.00000  Uiso   1.00
C480   C     0.92995   0.17993   0.25001   0.00000  Uiso   1.00
C481   C     0.57006   0.32006   0.75001   0.00000  Uiso   1.00
C482   C     0.82007   0.42994   0.25002   0.00000  Uiso   1.00
C483   C     0.67994   0.07007   0.74999   0.00000  Uiso   1.00
C484   C     0.57007   0.32006   0.24999   0.00000  Uiso   1.00
C485   C     0.92994   0.17992   0.74998   0.00000  Uiso   1.00
C486   C     0.67995   0.42993   0.75001   0.00000  Uiso   1.00
C487   C     0.82006   0.07005   0.25001   0.00000  Uiso   1.00
C488   C     0.92993   0.32006   0.74999   0.00000  Uiso   1.00
C489   C     0.51394   0.28051   0.58224   0.00000  Uiso   1.00
C490   C     0.57006   0.17993   0.25002   0.00000  Uiso   1.00
C491   C     0.82007   0.07006   0.74999   0.00000  Uiso   1.00
C492   C     0.67994   0.42992   0.24998   0.00000  Uiso   1.00
C493   C     0.57007   0.17994   0.75002   0.00000  Uiso   1.00
C494   C     0.92994   0.32007   0.24999   0.00000  Uiso   1.00
C495   C     0.62366   0.40307   0.22249   0.00000  Uiso   1.00
C496   C     0.87642   0.09684   0.77737   0.00000  Uiso   1.00
C497   C     0.59522   0.12199   0.22480   0.00000  Uiso   1.00
C498   C     0.90469   0.37792   0.77534   0.00000  Uiso   1.00
C499   C     0.87692   0.09631   0.22332   0.00000  Uiso   1.00
C500   C     0.78238   0.01095   0.41745   0.00000  Uiso   1.00
C501   C     0.62282   0.40393   0.77634   0.00000  Uiso   1.00
C502   C     0.90468   0.37801   0.22473   0.00000  Uiso   1.00
C503   C     0.59532   0.12200   0.77528   0.00000  Uiso   1.00
C504   C     0.62205   0.09527   0.77526   0.00000  Uiso   1.00
C505   C     0.87796   0.40474   0.22475   0.00000  Uiso   1.00
C506   C     0.59607   0.37720   0.77633   0.00000  Uiso   1.00
C507   C     0.90368   0.12304   0.22333   0.00000  Uiso   1.00
C508   C     0.87796   0.40464   0.77536   0.00000  Uiso   1.00
C509   C     0.62194   0.09526   0.22479   0.00000  Uiso   1.00
C510   C     0.90317   0.12357   0.77735   0.00000  Uiso   1.00
C511   C     0.72125   0.48393   0.58177   0.00000  Uiso   1.00
C512   C     0.59692   0.37633   0.22249   0.00000  Uiso   1.00
C513   C     0.87365   0.15308   0.72249   0.00000  Uiso   1.00
C514   C     0.62642   0.34685   0.27738   0.00000  Uiso   1.00
C515   C     0.84528   0.37204   0.72472   0.00000  Uiso   1.00
C516   C     0.65470   0.12793   0.27532   0.00000  Uiso   1.00
C517   C     0.62723   0.34601   0.72373   0.00000  Uiso   1.00
C518   C     0.87311   0.15364   0.27671   0.00000  Uiso   1.00
C519   C     0.65469   0.12802   0.72474   0.00000  Uiso   1.00
C520   C     0.84533   0.37200   0.27529   0.00000  Uiso   1.00
C521   C     0.87205   0.34528   0.27527   0.00000  Uiso   1.00
C522   C     0.76505   0.02948   0.91799   0.00000  Uiso   1.00
C523   C     0.62797   0.15475   0.72476   0.00000  Uiso   1.00
C524   C     0.84636   0.12691   0.27670   0.00000  Uiso   1.00
C525   C     0.65398   0.37274   0.72374   0.00000  Uiso   1.00
C526   C     0.62798   0.15466   0.27533   0.00000  Uiso   1.00
C527   C     0.87200   0.34532   0.72470   0.00000  Uiso   1.00
C528   C     0.65316   0.37358   0.27736   0.00000  Uiso   1.00
C529   C     0.84691   0.12634   0.72250   0.00000  Uiso   1.00
C530   C     0.98940   0.21781   0.45885   0.00000  Uiso   1.00
C531   C     0.51075   0.28219   0.54116   0.00000  Uiso   1.00
C532   C     0.78471   0.00747   0.45859   0.00000  Uiso   1.00
H533   H     0.62226   0.42458   0.20094   0.00000  Uiso   1.00
H534   H     0.88068   0.42758   0.20498   0.00000  Uiso   1.00
H535   H     0.57387   0.37932   0.79694   0.00000  Uiso   1.00
H536   H     0.92564   0.12117   0.20241   0.00000  Uiso   1.00
H537   H     0.88070   0.42742   0.79517   0.00000  Uiso   1.00
H538   H     0.61918   0.07245   0.20502   0.00000  Uiso   1.00
H539   H     0.92471   0.12215   0.79887   0.00000  Uiso   1.00
H540   H     0.57540   0.37772   0.20095   0.00000  Uiso   1.00
H541   H     0.87225   0.17459   0.70096   0.00000  Uiso   1.00
H542   H     0.62782   0.32534   0.29892   0.00000  Uiso   1.00
H543   H     0.82246   0.36934   0.70491   0.00000  Uiso   1.00
H544   H     0.87783   0.07533   0.79891   0.00000  Uiso   1.00
H545   H     0.67754   0.13066   0.29509   0.00000  Uiso   1.00
H546   H     0.62932   0.32380   0.70312   0.00000  Uiso   1.00
H547   H     0.87126   0.17562   0.29764   0.00000  Uiso   1.00
H548   H     0.67749   0.13078   0.70497   0.00000  Uiso   1.00
H549   H     0.82253   0.36925   0.29506   0.00000  Uiso   1.00
H550   H     0.86934   0.32244   0.29503   0.00000  Uiso   1.00
H551   H     0.63069   0.17759   0.70500   0.00000  Uiso   1.00
H552   H     0.82440   0.12878   0.29763   0.00000  Uiso   1.00
H553   H     0.67618   0.37062   0.70314   0.00000  Uiso   1.00
H554   H     0.63074   0.17747   0.29510   0.00000  Uiso   1.00
H555   H     0.57238   0.11926   0.20503   0.00000  Uiso   1.00
H556   H     0.86927   0.32254   0.70489   0.00000  Uiso   1.00
H557   H     0.67470   0.37216   0.29888   0.00000  Uiso   1.00
H558   H     0.82539   0.12773   0.70096   0.00000  Uiso   1.00
H559   H     0.52457   0.31385   0.37007   0.00000  Uiso   1.00
H560   H     0.58667   0.32733   0.38281   0.00000  Uiso   1.00
H561   H     0.58274   0.27823   0.38275   0.00000  Uiso   1.00
H562   H     0.58423   0.30306   0.42825   0.00000  Uiso   1.00
H563   H     0.97544   0.18616   0.62989   0.00000  Uiso   1.00
H564   H     0.91337   0.17268   0.61708   0.00000  Uiso   1.00
H565   H     0.91585   0.19696   0.57165   0.00000  Uiso   1.00
H566   H     0.92750   0.38062   0.79515   0.00000  Uiso   1.00
H567   H     0.91730   0.22179   0.61715   0.00000  Uiso   1.00
H568   H     0.69012   0.46422   0.37162   0.00000  Uiso   1.00
H569   H     0.63734   0.00021   0.38287   0.00000  Uiso   1.00
H570   H     0.67577   0.03088   0.37922   0.00000  Uiso   1.00
H571   H     0.65766   0.01833   0.42646   0.00000  Uiso   1.00
H572   H     0.81493   0.02231   0.63042   0.00000  Uiso   1.00
H573   H     0.82824   0.08444   0.61737   0.00000  Uiso   1.00
H574   H     0.77920   0.08004   0.61678   0.00000  Uiso   1.00
H575   H     0.80449   0.08151   0.57164   0.00000  Uiso   1.00
H576   H     0.94262   0.18220   0.40876   0.00000  Uiso   1.00
H577   H     0.87876   0.07436   0.20237   0.00000  Uiso   1.00
H578   H     0.97952   0.14083   0.37465   0.00000  Uiso   1.00
H579   H     0.51508   0.17452   0.37000   0.00000  Uiso   1.00
H580   H     0.97524   0.17601   0.33888   0.00000  Uiso   1.00
H581   H     0.55751   0.31774   0.59139   0.00000  Uiso   1.00
H582   H     0.52051   0.35918   0.62535   0.00000  Uiso   1.00
H583   H     0.52475   0.32403   0.66115   0.00000  Uiso   1.00
H584   H     0.98495   0.32549   0.62998   0.00000  Uiso   1.00
H585   H     0.81927   0.05441   0.40505   0.00000  Uiso   1.00
H586   H     0.86087   0.01232   0.37506   0.00000  Uiso   1.00
H587   H     0.82688   0.01944   0.33826   0.00000  Uiso   1.00
H588   H     0.62073   0.42614   0.79695   0.00000  Uiso   1.00
H589   H     0.82479   0.47944   0.36901   0.00000  Uiso   1.00
H590   H     0.69082   0.46283   0.62813   0.00000  Uiso   1.00
H591   H     0.63746   0.49835   0.61802   0.00000  Uiso   1.00
H592   H     0.65717   0.01756   0.57467   0.00000  Uiso   1.00
H593   H     0.67553   0.02942   0.62203   0.00000  Uiso   1.00
H594   H     0.77319   0.06425   0.87019   0.00000  Uiso   1.00
H595   H     0.83503   0.07887   0.88293   0.00000  Uiso   1.00
H596   H     0.83197   0.02971   0.88266   0.00000  Uiso   1.00
H597   H     0.83310   0.05439   0.92826   0.00000  Uiso   1.00
H598   H     0.72646   0.43573   0.13015   0.00000  Uiso   1.00
H599   H     0.92748   0.38077   0.20495   0.00000  Uiso   1.00
H600   H     0.66452   0.42146   0.11747   0.00000  Uiso   1.00
H601   H     0.66667   0.44560   0.07194   0.00000  Uiso   1.00
H602   H     0.66795   0.47060   0.11733   0.00000  Uiso   1.00
H603   H     0.94022   0.21399   0.87166   0.00000  Uiso   1.00
H604   H     0.88737   0.24990   0.88284   0.00000  Uiso   1.00
H605   H     0.92573   0.28063   0.87914   0.00000  Uiso   1.00
H606   H     0.90764   0.26812   0.92640   0.00000  Uiso   1.00
H607   H     0.56487   0.27251   0.13042   0.00000  Uiso   1.00
H608   H     0.57799   0.33468   0.11736   0.00000  Uiso   1.00
H609   H     0.52896   0.33013   0.11676   0.00000  Uiso   1.00
H610   H     0.57252   0.11923   0.79505   0.00000  Uiso   1.00
H611   H     0.55425   0.33167   0.07163   0.00000  Uiso   1.00
H612   H     0.69330   0.43144   0.90812   0.00000  Uiso   1.00
H613   H     0.73114   0.39049   0.87438   0.00000  Uiso   1.00
H614   H     0.76620   0.42470   0.86992   0.00000  Uiso   1.00
H615   H     0.72648   0.42562   0.83860   0.00000  Uiso   1.00
H616   H     0.77300   0.06431   0.12978   0.00000  Uiso   1.00
H617   H     0.83481   0.07894   0.11697   0.00000  Uiso   1.00
H618   H     0.83269   0.05459   0.07159   0.00000  Uiso   1.00
H619   H     0.83169   0.02978   0.11714   0.00000  Uiso   1.00
H620   H     0.56912   0.30459   0.90500   0.00000  Uiso   1.00
H621   H     0.61932   0.07242   0.79502   0.00000  Uiso   1.00
H622   H     0.61085   0.26255   0.87510   0.00000  Uiso   1.00
H623   H     0.57687   0.26959   0.83826   0.00000  Uiso   1.00
H624   H     0.57484   0.22960   0.86902   0.00000  Uiso   1.00
H625   H     0.94092   0.21262   0.12811   0.00000  Uiso   1.00
H626   H     0.88747   0.24799   0.11796   0.00000  Uiso   1.00
H627   H     0.90714   0.26725   0.07462   0.00000  Uiso   1.00
H628   H     0.92544   0.27918   0.12199   0.00000  Uiso   1.00
N629   N     0.98046   0.12117   0.44660   0.00000  Uiso   1.00
N630   N     0.77187   0.12736   0.05558   0.00000  Uiso   1.00
N631   N     0.63011   0.27634   0.94646   0.00000  Uiso   1.00
N632   N     0.89859   0.16802   0.05556   0.00000  Uiso   1.00
N633   N     0.77194   0.12720   0.94390   0.00000  Uiso   1.00
N634   N     0.72684   0.37247   0.05666   0.00000  Uiso   1.00
N635   N     0.89885   0.16794   0.94388   0.00000  Uiso   1.00
N636   N     0.62862   0.27650   0.05665   0.00000  Uiso   1.00
N637   N     0.53486   0.30706   0.39701   0.00000  Uiso   1.00
N638   N     0.96519   0.19295   0.60294   0.00000  Uiso   1.00
N639   N     0.68788   0.47749   0.39788   0.00000  Uiso   1.00
N640   N     0.52006   0.37881   0.55340   0.00000  Uiso   1.00
N641   N     0.80869   0.03232   0.60321   0.00000  Uiso   1.00
N642   N     0.96584   0.19290   0.39630   0.00000  Uiso   1.00
N643   N     0.53422   0.30710   0.60375   0.00000  Uiso   1.00
N644   N     0.80949   0.02970   0.39528   0.00000  Uiso   1.00
N645   N     0.68815   0.47656   0.60217   0.00000  Uiso   1.00
N646   N     0.78361   0.05763   0.89712   0.00000  Uiso   1.00
N647   N     0.71612   0.44221   0.10314   0.00000  Uiso   1.00
N648   N     0.93795   0.22730   0.89790   0.00000  Uiso   1.00
N649   N     0.55860   0.28249   0.10321   0.00000  Uiso   1.00
N650   N     0.71658   0.44233   0.89599   0.00000  Uiso   1.00
N651   N     0.88018   0.02588   0.44646   0.00000  Uiso   1.00
N652   N     0.78331   0.05781   0.10280   0.00000  Uiso   1.00
N653   N     0.55942   0.27984   0.89527   0.00000  Uiso   1.00
N654   N     0.93823   0.22635   0.10215   0.00000  Uiso   1.00
N655   N     0.64821   0.41849   0.55555   0.00000  Uiso   1.00
N656   N     0.52409   0.37691   0.44316   0.00000  Uiso   1.00
N657   N     0.97624   0.12308   0.55686   0.00000  Uiso   1.00
N658   N     0.64858   0.41828   0.44388   0.00000  Uiso   1.00
N659   N     0.87870   0.02609   0.55665   0.00000  Uiso   1.00
N660   N     0.73068   0.37076   0.94637   0.00000  Uiso   1.00
O661   O     0.75000  -0.00000   0.25000   0.00000  Uiso   1.00
O662   O     0.75000   0.46964   0.66245   0.00000  Uiso   1.00
O663   O     0.96964   0.25000   0.33755   0.00000  Uiso   1.00
O664   O     0.53037   0.25000   0.66245   0.00000  Uiso   1.00
O665   O     0.50000   0.21964   0.83755   0.00000  Uiso   1.00
O666   O     0.50000   0.28037   0.16245   0.00000  Uiso   1.00
O667   O     0.78037  -0.00000   0.83755   0.00000  Uiso   1.00
O668   O     0.71964  -0.00000   0.16245   0.00000  Uiso   1.00
O669   O     0.50000   0.28037   0.83755   0.00000  Uiso   1.00
O670   O     0.50000   0.21964   0.16245   0.00000  Uiso   1.00
O671   O     0.71964  -0.00000   0.83755   0.00000  Uiso   1.00
O672   O     0.75000  -0.00000   0.75000   0.00000  Uiso   1.00
O673   O     0.78037  -0.00000   0.16245   0.00000  Uiso   1.00
O674   O     0.70725   0.07308   0.27302   0.00000  Uiso   1.00
O675   O     0.79276   0.42693   0.72698   0.00000  Uiso   1.00
O676   O     0.92693   0.20725   0.27302   0.00000  Uiso   1.00
O677   O     0.57308   0.29276   0.72698   0.00000  Uiso   1.00
O678   O     0.79276   0.42693   0.27302   0.00000  Uiso   1.00
O679   O     0.70725   0.07308   0.72698   0.00000  Uiso   1.00
O680   O     0.57308   0.29276   0.27302   0.00000  Uiso   1.00
O681   O     0.92693   0.20725   0.72698   0.00000  Uiso   1.00
O682   O     0.70725   0.42693   0.72698   0.00000  Uiso   1.00
O683   O     0.50000   0.25000   0.25000   0.00000  Uiso   1.00
O684   O     0.79276   0.07308   0.27302   0.00000  Uiso   1.00
O685   O     0.92693   0.29276   0.72698   0.00000  Uiso   1.00
O686   O     0.57308   0.20725   0.27302   0.00000  Uiso   1.00
O687   O     0.79276   0.07308   0.72698   0.00000  Uiso   1.00
O688   O     0.70725   0.42693   0.27302   0.00000  Uiso   1.00
O689   O     0.57308   0.20725   0.72698   0.00000  Uiso   1.00
O690   O     0.92693   0.29276   0.27302   0.00000  Uiso   1.00
O691   O     0.95725   0.32308   0.77302   0.00000  Uiso   1.00
O692   O     0.54276   0.17693   0.22698   0.00000  Uiso   1.00
O693   O     0.67693   0.45725   0.77302   0.00000  Uiso   1.00
O694   O     0.50000   0.25000   0.75000   0.00000  Uiso   1.00
O695   O     0.82308   0.04276   0.22698   0.00000  Uiso   1.00
O696   O     0.54276   0.17693   0.77302   0.00000  Uiso   1.00
O697   O     0.95725   0.32308   0.22698   0.00000  Uiso   1.00
O698   O     0.82308   0.04276   0.77302   0.00000  Uiso   1.00
O699   O     0.67693   0.45725   0.22698   0.00000  Uiso   1.00
O700   O     0.95725   0.17693   0.22698   0.00000  Uiso   1.00
O701   O     0.54276   0.32308   0.77302   0.00000  Uiso   1.00
O702   O     0.67693   0.04276   0.22698   0.00000  Uiso   1.00
O703   O     0.82308   0.45725   0.77302   0.00000  Uiso   1.00
O704   O     0.54276   0.32308   0.22698   0.00000  Uiso   1.00
O705   O     0.75000   0.46964   0.33755   0.00000  Uiso   1.00
O706   O     0.95725   0.17693   0.77302   0.00000  Uiso   1.00
O707   O     0.82308   0.45725   0.22698   0.00000  Uiso   1.00
O708   O     0.67693   0.04276   0.77302   0.00000  Uiso   1.00
O709   O     0.75000   0.03037   0.66245   0.00000  Uiso   1.00
O710   O     0.53037   0.25000   0.33755   0.00000  Uiso   1.00
O711   O     0.96964   0.25000   0.66245   0.00000  Uiso   1.00
O712   O     0.75000   0.03037   0.33755   0.00000  Uiso   1.00
Zn713  Zn    0.70660  -0.00000   0.21735   0.00000  Uiso   1.00
Zn714  Zn    0.54341   0.25000   0.28265   0.00000  Uiso   1.00
Zn715  Zn    0.75000   0.45660   0.71735   0.00000  Uiso   1.00
Zn716  Zn    0.75000   0.04341   0.28265   0.00000  Uiso   1.00
Zn717  Zn    0.54341   0.25000   0.71735   0.00000  Uiso   1.00
Zn718  Zn    0.95660   0.25000   0.28265   0.00000  Uiso   1.00
Zn719  Zn    0.75000   0.04341   0.71735   0.00000  Uiso   1.00
Zn720  Zn    0.75000   0.45660   0.28265   0.00000  Uiso   1.00
Zn721  Zn    0.79341  -0.00000   0.78265   0.00000  Uiso   1.00
Zn722  Zn    0.50000   0.20660   0.21735   0.00000  Uiso   1.00
Zn723  Zn    0.50000   0.29341   0.78265   0.00000  Uiso   1.00
Zn724  Zn    0.79341  -0.00000   0.21735   0.00000  Uiso   1.00
Zn725  Zn    0.70660  -0.00000   0.78265   0.00000  Uiso   1.00
Zn726  Zn    0.50000   0.29341   0.21735   0.00000  Uiso   1.00
Zn727  Zn    0.50000   0.20660   0.78265   0.00000  Uiso   1.00
Zn728  Zn    0.95660   0.25000   0.71735   0.00000  Uiso   1.00
C729   C     0.01577   0.77931   0.41796   0.00000  Uiso   1.00
C730   C     0.23490   0.97007   0.08208   0.00000  Uiso   1.00
C731   C     0.22324   0.97924   0.54099   0.00000  Uiso   1.00
C732   C     0.01178   0.78141   0.45877   0.00000  Uiso   1.00
C733   C     0.48836   0.71859   0.54123   0.00000  Uiso   1.00
C734   C     0.22341   0.97914   0.45881   0.00000  Uiso   1.00
C735   C     0.28408   0.50817   0.54122   0.00000  Uiso   1.00
C736   C     0.23952   0.96743   0.95872   0.00000  Uiso   1.00
C737   C     0.26082   0.53158   0.04102   0.00000  Uiso   1.00
C738   C     0.03470   0.75756   0.95859   0.00000  Uiso   1.00
C739   C     0.47333   0.72912   0.04099   0.00000  Uiso   1.00
C740   C     0.26110   0.53137   0.95880   0.00000  Uiso   1.00
C741   C     0.47133   0.73396   0.91816   0.00000  Uiso   1.00
C742   C     0.23873   0.96799   0.04118   0.00000  Uiso   1.00
C743   C     0.47349   0.72903   0.95881   0.00000  Uiso   1.00
C744   C     0.03407   0.75826   0.04122   0.00000  Uiso   1.00
C745   C     0.09816   0.84810   0.24995   0.00000  Uiso   1.00
C746   C     0.40190   0.65184   0.74994   0.00000  Uiso   1.00
C747   C     0.15183   0.59810   0.25004   0.00000  Uiso   1.00
C748   C     0.34812   0.90185   0.75004   0.00000  Uiso   1.00
C749   C     0.40190   0.65184   0.25002   0.00000  Uiso   1.00
C750   C     0.09814   0.84812   0.75002   0.00000  Uiso   1.00
C751   C     0.34814   0.90187   0.25003   0.00000  Uiso   1.00
C752   C     0.03134   0.76291   0.08208   0.00000  Uiso   1.00
C753   C     0.15187   0.59814   0.74999   0.00000  Uiso   1.00
C754   C     0.09814   0.65187   0.75003   0.00000  Uiso   1.00
C755   C     0.40187   0.84814   0.24999   0.00000  Uiso   1.00
C756   C     0.15190   0.90184   0.75004   0.00000  Uiso   1.00
C757   C     0.34814   0.59812   0.25001   0.00000  Uiso   1.00
C758   C     0.40185   0.84812   0.75001   0.00000  Uiso   1.00
C759   C     0.09811   0.65184   0.25006   0.00000  Uiso   1.00
C760   C     0.34816   0.59810   0.74995   0.00000  Uiso   1.00
C761   C     0.15190   0.90183   0.24994   0.00000  Uiso   1.00
C762   C     0.00032   0.74981   0.47941   0.00000  Uiso   1.00
C763   C     0.23640   0.96917   0.91763   0.00000  Uiso   1.00
C764   C     0.49983   0.75020   0.52059   0.00000  Uiso   1.00
C765   C     0.25408   0.99326   0.47928   0.00000  Uiso   1.00
C766   C     0.25386   0.99347   0.52052   0.00000  Uiso   1.00
C767   C     0.25013   0.99948   0.97934   0.00000  Uiso   1.00
C768   C     0.24987   0.99968   0.02049   0.00000  Uiso   1.00
C769   C     0.00411   0.74325   0.97928   0.00000  Uiso   1.00
C770   C     0.00390   0.74346   0.02052   0.00000  Uiso   1.00
C771   C     0.48169   0.64972   0.46088   0.00000  Uiso   1.00
C772   C     0.01870   0.85026   0.53912   0.00000  Uiso   1.00
C773   C     0.35198   0.52138   0.46075   0.00000  Uiso   1.00
C774   C     0.26463   0.52975   0.08192   0.00000  Uiso   1.00
C775   C     0.16948   0.93673   0.54003   0.00000  Uiso   1.00
C776   C     0.02128   0.84920   0.45904   0.00000  Uiso   1.00
C777   C     0.47899   0.65079   0.54097   0.00000  Uiso   1.00
C778   C     0.16971   0.93659   0.45954   0.00000  Uiso   1.00
C779   C     0.35116   0.52170   0.54082   0.00000  Uiso   1.00
C780   C     0.23194   0.89929   0.96069   0.00000  Uiso   1.00
C781   C     0.26961   0.59946   0.04004   0.00000  Uiso   1.00
C782   C     0.10192   0.77173   0.96076   0.00000  Uiso   1.00
C783   C     0.41976   0.68637   0.04003   0.00000  Uiso   1.00
C784   C     0.26969   0.59933   0.95954   0.00000  Uiso   1.00
C785   C     0.03236   0.76103   0.91745   0.00000  Uiso   1.00
C786   C     0.22950   0.90020   0.04081   0.00000  Uiso   1.00
C787   C     0.41993   0.68631   0.95953   0.00000  Uiso   1.00
C788   C     0.10110   0.77202   0.04083   0.00000  Uiso   1.00
C789   C     0.07415   0.80359   0.39779   0.00000  Uiso   1.00
C790   C     0.42590   0.69642   0.60211   0.00000  Uiso   1.00
C791   C     0.16350   0.50845   0.39658   0.00000  Uiso   1.00
C792   C     0.30481   0.57159   0.60215   0.00000  Uiso   1.00
C793   C     0.48511   0.67001   0.36870   0.00000  Uiso   1.00
C794   C     0.01492   0.83000   0.63132   0.00000  Uiso   1.00
C795   C     0.33154   0.50901   0.36814   0.00000  Uiso   1.00
C796   C     0.47131   0.73382   0.08176   0.00000  Uiso   1.00
C797   C     0.16340   0.50718   0.60429   0.00000  Uiso   1.00
C798   C     0.32296   0.55486   0.89783   0.00000  Uiso   1.00
C799   C     0.17678   0.94527   0.10238   0.00000  Uiso   1.00
C800   C     0.41351   0.75821   0.89654   0.00000  Uiso   1.00
C801   C     0.05460   0.82176   0.10214   0.00000  Uiso   1.00
C802   C     0.23631   0.91975   0.86847   0.00000  Uiso   1.00
C803   C     0.32266   0.55499   0.10203   0.00000  Uiso   1.00
C804   C     0.08153   0.75918   0.86815   0.00000  Uiso   1.00
C805   C     0.41338   0.75690   0.10425   0.00000  Uiso   1.00
C806   C     0.00055   0.74968   0.39794   0.00000  Uiso   1.00
C807   C     0.49947   0.75035   0.60207   0.00000  Uiso   1.00
C808   C     0.25093   0.99894   0.39804   0.00000  Uiso   1.00
C809   C     0.48430   0.72070   0.58203   0.00000  Uiso   1.00
C810   C     0.25070   0.99942   0.60186   0.00000  Uiso   1.00
C811   C     0.25045   0.99959   0.89791   0.00000  Uiso   1.00
C812   C     0.24986   0.99992   0.10203   0.00000  Uiso   1.00
C813   C     0.00094   0.74893   0.89804   0.00000  Uiso   1.00
C814   C     0.00070   0.74942   0.10186   0.00000  Uiso   1.00
C815   C     0.48330   0.68508   0.47993   0.00000  Uiso   1.00
C816   C     0.01694   0.81490   0.52008   0.00000  Uiso   1.00
C817   C     0.31701   0.51581   0.47975   0.00000  Uiso   1.00
C818   C     0.19619   0.95952   0.52023   0.00000  Uiso   1.00
C819   C     0.01770   0.81446   0.47929   0.00000  Uiso   1.00
C820   C     0.22127   0.98406   0.41815   0.00000  Uiso   1.00
C821   C     0.48251   0.68553   0.52071   0.00000  Uiso   1.00
C822   C     0.19626   0.95949   0.47948   0.00000  Uiso   1.00
C823   C     0.31666   0.51612   0.52063   0.00000  Uiso   1.00
C824   C     0.23359   0.93462   0.97979   0.00000  Uiso   1.00
C825   C     0.26672   0.56448   0.02023   0.00000  Uiso   1.00
C826   C     0.06697   0.76602   0.97975   0.00000  Uiso   1.00
C827   C     0.44635   0.70929   0.02023   0.00000  Uiso   1.00
C828   C     0.26680   0.56440   0.97948   0.00000  Uiso   1.00
C829   C     0.23291   0.93497   0.02060   0.00000  Uiso   1.00
C830   C     0.44642   0.70928   0.97949   0.00000  Uiso   1.00
C831   C     0.28137   0.51281   0.58208   0.00000  Uiso   1.00
C832   C     0.06662   0.76632   0.02063   0.00000  Uiso   1.00
C833   C     0.24970   0.99992   0.35574   0.00000  Uiso   1.00
C834   C     0.24990   0.99999   0.64422   0.00000  Uiso   1.00
C835   C     0.00008   0.75014   0.35570   0.00000  Uiso   1.00
C836   C     0.49992   0.74987   0.64430   0.00000  Uiso   1.00
C837   C     0.49970   0.74992   0.85574   0.00000  Uiso   1.00
C838   C     0.49990   0.74999   0.14422   0.00000  Uiso   1.00
C839   C     0.25006   0.50012   0.85569   0.00000  Uiso   1.00
C840   C     0.24997   0.99998   0.14429   0.00000  Uiso   1.00
C841   C     0.17992   0.57006   0.25001   0.00000  Uiso   1.00
C842   C     0.48615   0.71950   0.41778   0.00000  Uiso   1.00
C843   C     0.32007   0.92993   0.75002   0.00000  Uiso   1.00
C844   C     0.42995   0.67993   0.25001   0.00000  Uiso   1.00
C845   C     0.07006   0.82006   0.75001   0.00000  Uiso   1.00
C846   C     0.32007   0.92994   0.25002   0.00000  Uiso   1.00
C847   C     0.17994   0.57007   0.74999   0.00000  Uiso   1.00
C848   C     0.07007   0.82006   0.24999   0.00000  Uiso   1.00
C849   C     0.42994   0.67992   0.74998   0.00000  Uiso   1.00
C850   C     0.17995   0.92993   0.75001   0.00000  Uiso   1.00
C851   C     0.32006   0.57005   0.25001   0.00000  Uiso   1.00
C852   C     0.42993   0.82006   0.74999   0.00000  Uiso   1.00
C853   C     0.01394   0.78051   0.58224   0.00000  Uiso   1.00
C854   C     0.07006   0.67993   0.25002   0.00000  Uiso   1.00
C855   C     0.32007   0.57006   0.74999   0.00000  Uiso   1.00
C856   C     0.17994   0.92992   0.24998   0.00000  Uiso   1.00
C857   C     0.07007   0.67994   0.75002   0.00000  Uiso   1.00
C858   C     0.42994   0.82007   0.24999   0.00000  Uiso   1.00
C859   C     0.12366   0.90307   0.22249   0.00000  Uiso   1.00
C860   C     0.37642   0.59684   0.77737   0.00000  Uiso   1.00
C861   C     0.09522   0.62199   0.22480   0.00000  Uiso   1.00
C862   C     0.40469   0.87792   0.77534   0.00000  Uiso   1.00
C863   C     0.37692   0.59631   0.22332   0.00000  Uiso   1.00
C864   C     0.28238   0.51095   0.41745   0.00000  Uiso   1.00
C865   C     0.12282   0.90393   0.77634   0.00000  Uiso   1.00
C866   C     0.40468   0.87801   0.22473   0.00000  Uiso   1.00
C867   C     0.09532   0.62200   0.77528   0.00000  Uiso   1.00
C868   C     0.12205   0.59527   0.77526   0.00000  Uiso   1.00
C869   C     0.37796   0.90474   0.22475   0.00000  Uiso   1.00
C870   C     0.09607   0.87720   0.77633   0.00000  Uiso   1.00
C871   C     0.40368   0.62304   0.22333   0.00000  Uiso   1.00
C872   C     0.37796   0.90464   0.77536   0.00000  Uiso   1.00
C873   C     0.12194   0.59526   0.22479   0.00000  Uiso   1.00
C874   C     0.40317   0.62357   0.77735   0.00000  Uiso   1.00
C875   C     0.22125   0.98393   0.58177   0.00000  Uiso   1.00
C876   C     0.09692   0.87633   0.22249   0.00000  Uiso   1.00
C877   C     0.37365   0.65308   0.72249   0.00000  Uiso   1.00
C878   C     0.12642   0.84685   0.27738   0.00000  Uiso   1.00
C879   C     0.34528   0.87204   0.72472   0.00000  Uiso   1.00
C880   C     0.15470   0.62793   0.27532   0.00000  Uiso   1.00
C881   C     0.12723   0.84601   0.72373   0.00000  Uiso   1.00
C882   C     0.37311   0.65364   0.27671   0.00000  Uiso   1.00
C883   C     0.15469   0.62802   0.72474   0.00000  Uiso   1.00
C884   C     0.34533   0.87200   0.27529   0.00000  Uiso   1.00
C885   C     0.37205   0.84528   0.27527   0.00000  Uiso   1.00
C886   C     0.26505   0.52948   0.91799   0.00000  Uiso   1.00
C887   C     0.12797   0.65475   0.72476   0.00000  Uiso   1.00
C888   C     0.34636   0.62691   0.27670   0.00000  Uiso   1.00
C889   C     0.15398   0.87274   0.72374   0.00000  Uiso   1.00
C890   C     0.12798   0.65466   0.27533   0.00000  Uiso   1.00
C891   C     0.37200   0.84532   0.72470   0.00000  Uiso   1.00
C892   C     0.15316   0.87358   0.27736   0.00000  Uiso   1.00
C893   C     0.34691   0.62634   0.72250   0.00000  Uiso   1.00
C894   C     0.48940   0.71781   0.45885   0.00000  Uiso   1.00
C895   C     0.01075   0.78219   0.54116   0.00000  Uiso   1.00
C896   C     0.28471   0.50747   0.45859   0.00000  Uiso   1.00
H897   H     0.12226   0.92458   0.20094   0.00000  Uiso   1.00
H898   H     0.38068   0.92758   0.20498   0.00000  Uiso   1.00
H899   H     0.07387   0.87932   0.79694   0.00000  Uiso   1.00
H900   H     0.42564   0.62117   0.20241   0.00000  Uiso   1.00
H901   H     0.38070   0.92742   0.79517   0.00000  Uiso   1.00
H902   H     0.11918   0.57245   0.20502   0.00000  Uiso   1.00
H903   H     0.42471   0.62215   0.79887   0.00000  Uiso   1.00
H904   H     0.07540   0.87772   0.20095   0.00000  Uiso   1.00
H905   H     0.37225   0.67459   0.70096   0.00000  Uiso   1.00
H906   H     0.12782   0.82534   0.29892   0.00000  Uiso   1.00
H907   H     0.32246   0.86934   0.70491   0.00000  Uiso   1.00
H908   H     0.37783   0.57533   0.79891   0.00000  Uiso   1.00
H909   H     0.17754   0.63066   0.29509   0.00000  Uiso   1.00
H910   H     0.12932   0.82380   0.70312   0.00000  Uiso   1.00
H911   H     0.37126   0.67562   0.29764   0.00000  Uiso   1.00
H912   H     0.17749   0.63078   0.70497   0.00000  Uiso   1.00
H913   H     0.32253   0.86925   0.29506   0.00000  Uiso   1.00
H914   H     0.36934   0.82244   0.29503   0.00000  Uiso   1.00
H915   H     0.13069   0.67759   0.70500   0.00000  Uiso   1.00
H916   H     0.32440   0.62878   0.29763   0.00000  Uiso   1.00
H917   H     0.17618   0.87062   0.70314   0.00000  Uiso   1.00
H918   H     0.13074   0.67747   0.29510   0.00000  Uiso   1.00
H919   H     0.07238   0.61926   0.20503   0.00000  Uiso   1.00
H920   H     0.36927   0.82254   0.70489   0.00000  Uiso   1.00
H921   H     0.17470   0.87216   0.29888   0.00000  Uiso   1.00
H922   H     0.32539   0.62773   0.70096   0.00000  Uiso   1.00
H923   H     0.02457   0.81385   0.37007   0.00000  Uiso   1.00
H924   H     0.08667   0.82733   0.38281   0.00000  Uiso   1.00
H925   H     0.08274   0.77823   0.38275   0.00000  Uiso   1.00
H926   H     0.08423   0.80306   0.42825   0.00000  Uiso   1.00
H927   H     0.47544   0.68616   0.62989   0.00000  Uiso   1.00
H928   H     0.41337   0.67268   0.61708   0.00000  Uiso   1.00
H929   H     0.41585   0.69696   0.57165   0.00000  Uiso   1.00
H930   H     0.42750   0.88062   0.79515   0.00000  Uiso   1.00
H931   H     0.41730   0.72179   0.61715   0.00000  Uiso   1.00
H932   H     0.19012   0.96422   0.37162   0.00000  Uiso   1.00
H933   H     0.13734   0.50021   0.38287   0.00000  Uiso   1.00
H934   H     0.17577   0.53088   0.37922   0.00000  Uiso   1.00
H935   H     0.15766   0.51833   0.42646   0.00000  Uiso   1.00
H936   H     0.31493   0.52231   0.63042   0.00000  Uiso   1.00
H937   H     0.32824   0.58444   0.61737   0.00000  Uiso   1.00
H938   H     0.27920   0.58004   0.61678   0.00000  Uiso   1.00
H939   H     0.30449   0.58151   0.57164   0.00000  Uiso   1.00
H940   H     0.44262   0.68220   0.40876   0.00000  Uiso   1.00
H941   H     0.37876   0.57436   0.20237   0.00000  Uiso   1.00
H942   H     0.47952   0.64083   0.37465   0.00000  Uiso   1.00
H943   H     0.01508   0.67452   0.37000   0.00000  Uiso   1.00
H944   H     0.47524   0.67601   0.33888   0.00000  Uiso   1.00
H945   H     0.05751   0.81774   0.59139   0.00000  Uiso   1.00
H946   H     0.02051   0.85918   0.62535   0.00000  Uiso   1.00
H947   H     0.02475   0.82403   0.66115   0.00000  Uiso   1.00
H948   H     0.48495   0.82549   0.62998   0.00000  Uiso   1.00
H949   H     0.31927   0.55441   0.40505   0.00000  Uiso   1.00
H950   H     0.36087   0.51232   0.37506   0.00000  Uiso   1.00
H951   H     0.32688   0.51944   0.33826   0.00000  Uiso   1.00
H952   H     0.12073   0.92614   0.79695   0.00000  Uiso   1.00
H953   H     0.32479   0.97944   0.36901   0.00000  Uiso   1.00
H954   H     0.19082   0.96283   0.62813   0.00000  Uiso   1.00
H955   H     0.13746   0.99835   0.61802   0.00000  Uiso   1.00
H956   H     0.15717   0.51756   0.57467   0.00000  Uiso   1.00
H957   H     0.17553   0.52942   0.62203   0.00000  Uiso   1.00
H958   H     0.27319   0.56425   0.87019   0.00000  Uiso   1.00
H959   H     0.33503   0.57887   0.88293   0.00000  Uiso   1.00
H960   H     0.33197   0.52971   0.88266   0.00000  Uiso   1.00
H961   H     0.33310   0.55439   0.92826   0.00000  Uiso   1.00
H962   H     0.22646   0.93573   0.13015   0.00000  Uiso   1.00
H963   H     0.42748   0.88077   0.20495   0.00000  Uiso   1.00
H964   H     0.16452   0.92146   0.11747   0.00000  Uiso   1.00
H965   H     0.16667   0.94560   0.07194   0.00000  Uiso   1.00
H966   H     0.16795   0.97060   0.11733   0.00000  Uiso   1.00
H967   H     0.44022   0.71399   0.87166   0.00000  Uiso   1.00
H968   H     0.38737   0.74990   0.88284   0.00000  Uiso   1.00
H969   H     0.42573   0.78063   0.87914   0.00000  Uiso   1.00
H970   H     0.40764   0.76812   0.92640   0.00000  Uiso   1.00
H971   H     0.06487   0.77251   0.13042   0.00000  Uiso   1.00
H972   H     0.07799   0.83468   0.11736   0.00000  Uiso   1.00
H973   H     0.02896   0.83013   0.11676   0.00000  Uiso   1.00
H974   H     0.07252   0.61923   0.79505   0.00000  Uiso   1.00
H975   H     0.05425   0.83167   0.07163   0.00000  Uiso   1.00
H976   H     0.19330   0.93144   0.90812   0.00000  Uiso   1.00
H977   H     0.23114   0.89049   0.87438   0.00000  Uiso   1.00
H978   H     0.26620   0.92470   0.86992   0.00000  Uiso   1.00
H979   H     0.22648   0.92562   0.83860   0.00000  Uiso   1.00
H980   H     0.27300   0.56431   0.12978   0.00000  Uiso   1.00
H981   H     0.33481   0.57894   0.11697   0.00000  Uiso   1.00
H982   H     0.33269   0.55459   0.07159   0.00000  Uiso   1.00
H983   H     0.33169   0.52978   0.11714   0.00000  Uiso   1.00
H984   H     0.06912   0.80459   0.90500   0.00000  Uiso   1.00
H985   H     0.11932   0.57242   0.79502   0.00000  Uiso   1.00
H986   H     0.11085   0.76255   0.87510   0.00000  Uiso   1.00
H987   H     0.07687   0.76959   0.83826   0.00000  Uiso   1.00
H988   H     0.07484   0.72960   0.86902   0.00000  Uiso   1.00
H989   H     0.44092   0.71262   0.12811   0.00000  Uiso   1.00
H990   H     0.38747   0.74799   0.11796   0.00000  Uiso   1.00
H991   H     0.40714   0.76725   0.07462   0.00000  Uiso   1.00
H992   H     0.42544   0.77918   0.12199   0.00000  Uiso   1.00
N993   N     0.48046   0.62117   0.44660   0.00000  Uiso   1.00
N994   N     0.27187   0.62736   0.05558   0.00000  Uiso   1.00
N995   N     0.13011   0.77634   0.94646   0.00000  Uiso   1.00
N996   N     0.39859   0.66802   0.05556   0.00000  Uiso   1.00
N997   N     0.27194   0.62720   0.94390   0.00000  Uiso   1.00
N998   N     0.22684   0.87247   0.05666   0.00000  Uiso   1.00
N999   N     0.39885   0.66794   0.94388   0.00000  Uiso   1.00
N1000  N     0.12862   0.77650   0.05665   0.00000  Uiso   1.00
N1001  N     0.03486   0.80706   0.39701   0.00000  Uiso   1.00
N1002  N     0.46519   0.69295   0.60294   0.00000  Uiso   1.00
N1003  N     0.18788   0.97749   0.39788   0.00000  Uiso   1.00
N1004  N     0.02006   0.87881   0.55340   0.00000  Uiso   1.00
N1005  N     0.30869   0.53232   0.60321   0.00000  Uiso   1.00
N1006  N     0.46584   0.69290   0.39630   0.00000  Uiso   1.00
N1007  N     0.03422   0.80710   0.60375   0.00000  Uiso   1.00
N1008  N     0.30949   0.52970   0.39528   0.00000  Uiso   1.00
N1009  N     0.18815   0.97656   0.60217   0.00000  Uiso   1.00
N1010  N     0.28361   0.55763   0.89712   0.00000  Uiso   1.00
N1011  N     0.21612   0.94221   0.10314   0.00000  Uiso   1.00
N1012  N     0.43795   0.72730   0.89790   0.00000  Uiso   1.00
N1013  N     0.05860   0.78249   0.10321   0.00000  Uiso   1.00
N1014  N     0.21658   0.94233   0.89599   0.00000  Uiso   1.00
N1015  N     0.38018   0.52588   0.44646   0.00000  Uiso   1.00
N1016  N     0.28331   0.55781   0.10280   0.00000  Uiso   1.00
N1017  N     0.05942   0.77984   0.89527   0.00000  Uiso   1.00
N1018  N     0.43823   0.72635   0.10215   0.00000  Uiso   1.00
N1019  N     0.14821   0.91849   0.55555   0.00000  Uiso   1.00
N1020  N     0.02409   0.87691   0.44316   0.00000  Uiso   1.00
N1021  N     0.47624   0.62308   0.55686   0.00000  Uiso   1.00
N1022  N     0.14858   0.91828   0.44388   0.00000  Uiso   1.00
N1023  N     0.37870   0.52609   0.55665   0.00000  Uiso   1.00
N1024  N     0.23068   0.87076   0.94637   0.00000  Uiso   1.00
O1025  O     0.25000   0.50000   0.25000   0.00000  Uiso   1.00
O1026  O     0.25000   0.96964   0.66245   0.00000  Uiso   1.00
O1027  O     0.46964   0.75000   0.33755   0.00000  Uiso   1.00
O1028  O     0.03037   0.75000   0.66245   0.00000  Uiso   1.00
O1029  O     0.00000   0.71964   0.83755   0.00000  Uiso   1.00
O1030  O     0.00000   0.78037   0.16245   0.00000  Uiso   1.00
O1031  O     0.28037   0.50000   0.83755   0.00000  Uiso   1.00
O1032  O     0.21964   0.50000   0.16245   0.00000  Uiso   1.00
O1033  O     0.00000   0.78037   0.83755   0.00000  Uiso   1.00
O1034  O     0.00000   0.71964   0.16245   0.00000  Uiso   1.00
O1035  O     0.21964   0.50000   0.83755   0.00000  Uiso   1.00
O1036  O     0.25000   0.50000   0.75000   0.00000  Uiso   1.00
O1037  O     0.28037   0.50000   0.16245   0.00000  Uiso   1.00
O1038  O     0.20725   0.57308   0.27302   0.00000  Uiso   1.00
O1039  O     0.29276   0.92693   0.72698   0.00000  Uiso   1.00
O1040  O     0.42693   0.70725   0.27302   0.00000  Uiso   1.00
O1041  O     0.07308   0.79276   0.72698   0.00000  Uiso   1.00
O1042  O     0.29276   0.92693   0.27302   0.00000  Uiso   1.00
O1043  O     0.20725   0.57308   0.72698   0.00000  Uiso   1.00
O1044  O     0.07308   0.79276   0.27302   0.00000  Uiso   1.00
O1045  O     0.42693   0.70725   0.72698   0.00000  Uiso   1.00
O1046  O     0.20725   0.92693   0.72698   0.00000  Uiso   1.00
O1047  O     0.00000   0.75000   0.25000   0.00000  Uiso   1.00
O1048  O     0.29276   0.57308   0.27302   0.00000  Uiso   1.00
O1049  O     0.42693   0.79276   0.72698   0.00000  Uiso   1.00
O1050  O     0.07308   0.70725   0.27302   0.00000  Uiso   1.00
O1051  O     0.29276   0.57308   0.72698   0.00000  Uiso   1.00
O1052  O     0.20725   0.92693   0.27302   0.00000  Uiso   1.00
O1053  O     0.07308   0.70725   0.72698   0.00000  Uiso   1.00
O1054  O     0.42693   0.79276   0.27302   0.00000  Uiso   1.00
O1055  O     0.45725   0.82308   0.77302   0.00000  Uiso   1.00
O1056  O     0.04276   0.67693   0.22698   0.00000  Uiso   1.00
O1057  O     0.17693   0.95725   0.77302   0.00000  Uiso   1.00
O1058  O     0.00000   0.75000   0.75000   0.00000  Uiso   1.00
O1059  O     0.32308   0.54276   0.22698   0.00000  Uiso   1.00
O1060  O     0.04276   0.67693   0.77302   0.00000  Uiso   1.00
O1061  O     0.45725   0.82308   0.22698   0.00000  Uiso   1.00
O1062  O     0.32308   0.54276   0.77302   0.00000  Uiso   1.00
O1063  O     0.17693   0.95725   0.22698   0.00000  Uiso   1.00
O1064  O     0.45725   0.67693   0.22698   0.00000  Uiso   1.00
O1065  O     0.04276   0.82308   0.77302   0.00000  Uiso   1.00
O1066  O     0.17693   0.54276   0.22698   0.00000  Uiso   1.00
O1067  O     0.32308   0.95725   0.77302   0.00000  Uiso   1.00
O1068  O     0.04276   0.82308   0.22698   0.00000  Uiso   1.00
O1069  O     0.25000   0.96964   0.33755   0.00000  Uiso   1.00
O1070  O     0.45725   0.67693   0.77302   0.00000  Uiso   1.00
O1071  O     0.32308   0.95725   0.22698   0.00000  Uiso   1.00
O1072  O     0.17693   0.54276   0.77302   0.00000  Uiso   1.00
O1073  O     0.25000   0.53037   0.66245   0.00000  Uiso   1.00
O1074  O     0.03037   0.75000   0.33755   0.00000  Uiso   1.00
O1075  O     0.46964   0.75000   0.66245   0.00000  Uiso   1.00
O1076  O     0.25000   0.53037   0.33755   0.00000  Uiso   1.00
Zn1077 Zn    0.20660   0.50000   0.21735   0.00000  Uiso   1.00
Zn1078 Zn    0.04341   0.75000   0.28265   0.00000  Uiso   1.00
Zn1079 Zn    0.25000   0.95660   0.71735   0.00000  Uiso   1.00
Zn1080 Zn    0.25000   0.54341   0.28265   0.00000  Uiso   1.00
Zn1081 Zn    0.04341   0.75000   0.71735   0.00000  Uiso   1.00
Zn1082 Zn    0.45660   0.75000   0.28265   0.00000  Uiso   1.00
Zn1083 Zn    0.25000   0.54341   0.71735   0.00000  Uiso   1.00
Zn1084 Zn    0.25000   0.95660   0.28265   0.00000  Uiso   1.00
Zn1085 Zn    0.29341   0.50000   0.78265   0.00000  Uiso   1.00
Zn1086 Zn    0.00000   0.70660   0.21735   0.00000  Uiso   1.00
Zn1087 Zn    0.00000   0.79341   0.78265   0.00000  Uiso   1.00
Zn1088 Zn    0.29341   0.50000   0.21735   0.00000  Uiso   1.00
Zn1089 Zn    0.20660   0.50000   0.78265   0.00000  Uiso   1.00
Zn1090 Zn    0.00000   0.79341   0.21735   0.00000  Uiso   1.00
Zn1091 Zn    0.00000   0.70660   0.78265   0.00000  Uiso   1.00
Zn1092 Zn    0.45660   0.75000   0.71735   0.00000  Uiso   1.00
C1093  C     0.51577   0.77931   0.41796   0.00000  Uiso   1.00
C1094  C     0.73490   0.97007   0.08208   0.00000  Uiso   1.00
C1095  C     0.72324   0.97924   0.54099   0.00000  Uiso   1.00
C1096  C     0.51178   0.78141   0.45877   0.00000  Uiso   1.00
C1097  C     0.98836   0.71859   0.54123   0.00000  Uiso   1.00
C1098  C     0.72341   0.97914   0.45881   0.00000  Uiso   1.00
C1099  C     0.78408   0.50817   0.54122   0.00000  Uiso   1.00
C1100  C     0.73952   0.96743   0.95872   0.00000  Uiso   1.00
C1101  C     0.76082   0.53158   0.04102   0.00000  Uiso   1.00
C1102  C     0.53470   0.75756   0.95859   0.00000  Uiso   1.00
C1103  C     0.97333   0.72912   0.04099   0.00000  Uiso   1.00
C1104  C     0.76110   0.53137   0.95880   0.00000  Uiso   1.00
C1105  C     0.97133   0.73396   0.91816   0.00000  Uiso   1.00
C1106  C     0.73873   0.96799   0.04118   0.00000  Uiso   1.00
C1107  C     0.97349   0.72903   0.95881   0.00000  Uiso   1.00
C1108  C     0.53407   0.75826   0.04122   0.00000  Uiso   1.00
C1109  C     0.59816   0.84810   0.24995   0.00000  Uiso   1.00
C1110  C     0.90190   0.65184   0.74994   0.00000  Uiso   1.00
C1111  C     0.65183   0.59810   0.25004   0.00000  Uiso   1.00
C1112  C     0.84812   0.90185   0.75004   0.00000  Uiso   1.00
C1113  C     0.90190   0.65184   0.25002   0.00000  Uiso   1.00
C1114  C     0.59814   0.84812   0.75002   0.00000  Uiso   1.00
C1115  C     0.84814   0.90187   0.25003   0.00000  Uiso   1.00
C1116  C     0.53134   0.76291   0.08208   0.00000  Uiso   1.00
C1117  C     0.65187   0.59814   0.74999   0.00000  Uiso   1.00
C1118  C     0.59814   0.65187   0.75003   0.00000  Uiso   1.00
C1119  C     0.90187   0.84814   0.24999   0.00000  Uiso   1.00
C1120  C     0.65190   0.90184   0.75004   0.00000  Uiso   1.00
C1121  C     0.84814   0.59812   0.25001   0.00000  Uiso   1.00
C1122  C     0.90185   0.84812   0.75001   0.00000  Uiso   1.00
C1123  C     0.59811   0.65184   0.25006   0.00000  Uiso   1.00
C1124  C     0.84816   0.59810   0.74995   0.00000  Uiso   1.00
C1125  C     0.65190   0.90183   0.24994   0.00000  Uiso   1.00
C1126  C     0.50032   0.74981   0.47941   0.00000  Uiso   1.00
C1127  C     0.73640   0.96917   0.91763   0.00000  Uiso   1.00
C1128  C     0.99983   0.75020   0.52059   0.00000  Uiso   1.00
C1129  C     0.75408   0.99326   0.47928   0.00000  Uiso   1.00
C1130  C     0.75386   0.99347   0.52052   0.00000  Uiso   1.00
C1131  C     0.75013   0.99948   0.97934   0.00000  Uiso   1.00
C1132  C     0.74987   0.99968   0.02049   0.00000  Uiso   1.00
C1133  C     0.50411   0.74325   0.97928   0.00000  Uiso   1.00
C1134  C     0.50390   0.74346   0.02052   0.00000  Uiso   1.00
C1135  C     0.98169   0.64972   0.46088   0.00000  Uiso   1.00
C1136  C     0.51870   0.85026   0.53912   0.00000  Uiso   1.00
C1137  C     0.85198   0.52138   0.46075   0.00000  Uiso   1.00
C1138  C     0.76463   0.52975   0.08192   0.00000  Uiso   1.00
C1139  C     0.66948   0.93673   0.54003   0.00000  Uiso   1.00
C1140  C     0.52128   0.84920   0.45904   0.00000  Uiso   1.00
C1141  C     0.97899   0.65079   0.54097   0.00000  Uiso   1.00
C1142  C     0.66971   0.93659   0.45954   0.00000  Uiso   1.00
C1143  C     0.85116   0.52170   0.54082   0.00000  Uiso   1.00
C1144  C     0.73194   0.89929   0.96069   0.00000  Uiso   1.00
C1145  C     0.76961   0.59946   0.04004   0.00000  Uiso   1.00
C1146  C     0.60192   0.77173   0.96076   0.00000  Uiso   1.00
C1147  C     0.91976   0.68637   0.04003   0.00000  Uiso   1.00
C1148  C     0.76969   0.59933   0.95954   0.00000  Uiso   1.00
C1149  C     0.53236   0.76103   0.91745   0.00000  Uiso   1.00
C1150  C     0.72950   0.90020   0.04081   0.00000  Uiso   1.00
C1151  C     0.91993   0.68631   0.95953   0.00000  Uiso   1.00
C1152  C     0.60110   0.77202   0.04083   0.00000  Uiso   1.00
C1153  C     0.57415   0.80359   0.39779   0.00000  Uiso   1.00
C1154  C     0.92590   0.69642   0.60211   0.00000  Uiso   1.00
C1155  C     0.66350   0.50845   0.39658   0.00000  Uiso   1.00
C1156  C     0.80481   0.57159   0.60215   0.00000  Uiso   1.00
C1157  C     0.98511   0.67001   0.36870   0.00000  Uiso   1.00
C1158  C     0.51492   0.83000   0.63132   0.00000  Uiso   1.00
C1159  C     0.83154   0.50901   0.36814   0.00000  Uiso   1.00
C1160  C     0.97131   0.73382   0.08176   0.00000  Uiso   1.00
C1161  C     0.66340   0.50718   0.60429   0.00000  Uiso   1.00
C1162  C     0.82296   0.55486   0.89783   0.00000  Uiso   1.00
C1163  C     0.67678   0.94527   0.10238   0.00000  Uiso   1.00
C1164  C     0.91351   0.75821   0.89654   0.00000  Uiso   1.00
C1165  C     0.55460   0.82176   0.10214   0.00000  Uiso   1.00
C1166  C     0.73631   0.91975   0.86847   0.00000  Uiso   1.00
C1167  C     0.82266   0.55499   0.10203   0.00000  Uiso   1.00
C1168  C     0.58153   0.75918   0.86815   0.00000  Uiso   1.00
C1169  C     0.91338   0.75690   0.10425   0.00000  Uiso   1.00
C1170  C     0.50055   0.74968   0.39794   0.00000  Uiso   1.00
C1171  C     0.99947   0.75035   0.60207   0.00000  Uiso   1.00
C1172  C     0.75093   0.99894   0.39804   0.00000  Uiso   1.00
C1173  C     0.98430   0.72070   0.58203   0.00000  Uiso   1.00
C1174  C     0.75070   0.99942   0.60186   0.00000  Uiso   1.00
C1175  C     0.75045   0.99959   0.89791   0.00000  Uiso   1.00
C1176  C     0.74986   0.99992   0.10203   0.00000  Uiso   1.00
C1177  C     0.50094   0.74893   0.89804   0.00000  Uiso   1.00
C1178  C     0.50070   0.74942   0.10186   0.00000  Uiso   1.00
C1179  C     0.98330   0.68508   0.47993   0.00000  Uiso   1.00
C1180  C     0.51694   0.81490   0.52008   0.00000  Uiso   1.00
C1181  C     0.81701   0.51581   0.47975   0.00000  Uiso   1.00
C1182  C     0.69619   0.95952   0.52023   0.00000  Uiso   1.00
C1183  C     0.51770   0.81446   0.47929   0.00000  Uiso   1.00
C1184  C     0.72127   0.98406   0.41815   0.00000  Uiso   1.00
C1185  C     0.98251   0.68553   0.52071   0.00000  Uiso   1.00
C1186  C     0.69626   0.95949   0.47948   0.00000  Uiso   1.00
C1187  C     0.81666   0.51612   0.52063   0.00000  Uiso   1.00
C1188  C     0.73359   0.93462   0.97979   0.00000  Uiso   1.00
C1189  C     0.76672   0.56448   0.02023   0.00000  Uiso   1.00
C1190  C     0.56697   0.76602   0.97975   0.00000  Uiso   1.00
C1191  C     0.94635   0.70929   0.02023   0.00000  Uiso   1.00
C1192  C     0.76680   0.56440   0.97948   0.00000  Uiso   1.00
C1193  C     0.73291   0.93497   0.02060   0.00000  Uiso   1.00
C1194  C     0.94642   0.70928   0.97949   0.00000  Uiso   1.00
C1195  C     0.78137   0.51281   0.58208   0.00000  Uiso   1.00
C1196  C     0.56662   0.76632   0.02063   0.00000  Uiso   1.00
C1197  C     0.74970   0.99992   0.35574   0.00000  Uiso   1.00
C1198  C     0.74990   0.99999   0.64422   0.00000  Uiso   1.00
C1199  C     0.50008   0.75014   0.35570   0.00000  Uiso   1.00
C1200  C     0.99992   0.74987   0.64430   0.00000  Uiso   1.00
C1201  C     0.99970   0.74992   0.85574   0.00000  Uiso   1.00
C1202  C     0.99990   0.74999   0.14422   0.00000  Uiso   1.00
C1203  C     0.75006   0.50012   0.85569   0.00000  Uiso   1.00
C1204  C     0.74997   0.99998   0.14429   0.00000  Uiso   1.00
C1205  C     0.67992   0.57006   0.25001   0.00000  Uiso   1.00
C1206  C     0.98615   0.71950   0.41778   0.00000  Uiso   1.00
C1207  C     0.82007   0.92993   0.75002   0.00000  Uiso   1.00
C1208  C     0.92995   0.67993   0.25001   0.00000  Uiso   1.00
C1209  C     0.57006   0.82006   0.75001   0.00000  Uiso   1.00
C1210  C     0.82007   0.92994   0.25002   0.00000  Uiso   1.00
C1211  C     0.67994   0.57007   0.74999   0.00000  Uiso   1.00
C1212  C     0.57007   0.82006   0.24999   0.00000  Uiso   1.00
C1213  C     0.92994   0.67992   0.74998   0.00000  Uiso   1.00
C1214  C     0.67995   0.92993   0.75001   0.00000  Uiso   1.00
C1215  C     0.82006   0.57005   0.25001   0.00000  Uiso   1.00
C1216  C     0.92993   0.82006   0.74999   0.00000  Uiso   1.00
C1217  C     0.51394   0.78051   0.58224   0.00000  Uiso   1.00
C1218  C     0.57006   0.67993   0.25002   0.00000  Uiso   1.00
C1219  C     0.82007   0.57006   0.74999   0.00000  Uiso   1.00
C1220  C     0.67994   0.92992   0.24998   0.00000  Uiso   1.00
C1221  C     0.57007   0.67994   0.75002   0.00000  Uiso   1.00
C1222  C     0.92994   0.82007   0.24999   0.00000  Uiso   1.00
C1223  C     0.62366   0.90307   0.22249   0.00000  Uiso   1.00
C1224  C     0.87642   0.59684   0.77737   0.00000  Uiso   1.00
C1225  C     0.59522   0.62199   0.22480   0.00000  Uiso   1.00
C1226  C     0.90469   0.87792   0.77534   0.00000  Uiso   1.00
C1227  C     0.87692   0.59631   0.22332   0.00000  Uiso   1.00
C1228  C     0.78238   0.51095   0.41745   0.00000  Uiso   1.00
C1229  C     0.62282   0.90393   0.77634   0.00000  Uiso   1.00
C1230  C     0.90468   0.87801   0.22473   0.00000  Uiso   1.00
C1231  C     0.59532   0.62200   0.77528   0.00000  Uiso   1.00
C1232  C     0.62205   0.59527   0.77526   0.00000  Uiso   1.00
C1233  C     0.87796   0.90474   0.22475   0.00000  Uiso   1.00
C1234  C     0.59607   0.87720   0.77633   0.00000  Uiso   1.00
C1235  C     0.90368   0.62304   0.22333   0.00000  Uiso   1.00
C1236  C     0.87796   0.90464   0.77536   0.00000  Uiso   1.00
C1237  C     0.62194   0.59526   0.22479   0.00000  Uiso   1.00
C1238  C     0.90317   0.62357   0.77735   0.00000  Uiso   1.00
C1239  C     0.72125   0.98393   0.58177   0.00000  Uiso   1.00
C1240  C     0.59692   0.87633   0.22249   0.00000  Uiso   1.00
C1241  C     0.87365   0.65308   0.72249   0.00000  Uiso   1.00
C1242  C     0.62642   0.84685   0.27738   0.00000  Uiso   1.00
C1243  C     0.84528   0.87204   0.72472   0.00000  Uiso   1.00
C1244  C     0.65470   0.62793   0.27532   0.00000  Uiso   1.00
C1245  C     0.62723   0.84601   0.72373   0.00000  Uiso   1.00
C1246  C     0.87311   0.65364   0.27671   0.00000  Uiso   1.00
C1247  C     0.65469   0.62802   0.72474   0.00000  Uiso   1.00
C1248  C     0.84533   0.87200   0.27529   0.00000  Uiso   1.00
C1249  C     0.87205   0.84528   0.27527   0.00000  Uiso   1.00
C1250  C     0.76505   0.52948   0.91799   0.00000  Uiso   1.00
C1251  C     0.62797   0.65475   0.72476   0.00000  Uiso   1.00
C1252  C     0.84636   0.62691   0.27670   0.00000  Uiso   1.00
C1253  C     0.65398   0.87274   0.72374   0.00000  Uiso   1.00
C1254  C     0.62798   0.65466   0.27533   0.00000  Uiso   1.00
C1255  C     0.87200   0.84532   0.72470   0.00000  Uiso   1.00
C1256  C     0.65316   0.87358   0.27736   0.00000  Uiso   1.00
C1257  C     0.84691   0.62634   0.72250   0.00000  Uiso   1.00
C1258  C     0.98940   0.71781   0.45885   0.00000  Uiso   1.00
C1259  C     0.51075   0.78219   0.54116   0.00000  Uiso   1.00
C1260  C     0.78471   0.50747   0.45859   0.00000  Uiso   1.00
H1261  H     0.62226   0.92458   0.20094   0.00000  Uiso   1.00
H1262  H     0.88068   0.92758   0.20498   0.00000  Uiso   1.00
H1263  H     0.57387   0.87932   0.79694   0.00000  Uiso   1.00
H1264  H     0.92564   0.62117   0.20241   0.00000  Uiso   1.00
H1265  H     0.88070   0.92742   0.79517   0.00000  Uiso   1.00
H1266  H     0.61918   0.57245   0.20502   0.00000  Uiso   1.00
H1267  H     0.92471   0.62215   0.79887   0.00000  Uiso   1.00
H1268  H     0.57540   0.87772   0.20095   0.00000  Uiso   1.00
H1269  H     0.87225   0.67459   0.70096   0.00000  Uiso   1.00
H1270  H     0.62782   0.82534   0.29892   0.00000  Uiso   1.00
H1271  H     0.82246   0.86934   0.70491   0.00000  Uiso   1.00
H1272  H     0.87783   0.57533   0.79891   0.00000  Uiso   1.00
H1273  H     0.67754   0.63066   0.29509   0.00000  Uiso   1.00
H1274  H     0.62932   0.82380   0.70312   0.00000  Uiso   1.00
H1275  H     0.87126   0.67562   0.29764   0.00000  Uiso   1.00
H1276  H     0.67749   0.63078   0.70497   0.00000  Uiso   1.00
H1277  H     0.82253   0.86925   0.29506   0.00000  Uiso   1.00
H1278  H     0.86934   0.82244   0.29503   0.00000  Uiso   1.00
H1279  H     0.63069   0.67759   0.70500   0.00000  Uiso   1.00
H1280  H     0.82440   0.62878   0.29763   0.00000  Uiso   1.00
H1281  H     0.67618   0.87062   0.70314   0.00000  Uiso   1.00
H1282  H     0.63074   0.67747   0.29510   0.00000  Uiso   1.00
H1283  H     0.57238   0.61926   0.20503   0.00000  Uiso   1.00
H1284  H     0.86927   0.82254   0.70489   0.00000  Uiso   1.00
H1285  H     0.67470   0.87216   0.29888   0.00000  Uiso   1.00
H1286  H     0.82539   0.62773   0.70096   0.00000  Uiso   1.00
H1287  H     0.52457   0.81385   0.37007   0.00000  Uiso   1.00
H1288  H     0.58667   0.82733   0.38281   0.00000  Uiso   1.00
H1289  H     0.58274   0.77823   0.38275   0.00000  Uiso   1.00
H1290  H     0.58423   0.80306   0.42825   0.00000  Uiso   1.00
H1291  H     0.97544   0.68616   0.62989   0.00000  Uiso   1.00
H1292  H     0.91337   0.67268   0.61708   0.00000  Uiso   1.00
H1293  H     0.91585   0.69696   0.57165   0.00000  Uiso   1.00
H1294  H     0.92750   0.88062   0.79515   0.00000  Uiso   1.00
H1295  H     0.91730   0.72179   0.61715   0.00000  Uiso   1.00
H1296  H     0.69012   0.96422   0.37162   0.00000  Uiso   1.00
H1297  H     0.63734   0.50021   0.38287   0.00000  Uiso   1.00
H1298  H     0.67577   0.53088   0.37922   0.00000  Uiso   1.00
H1299  H     0.65766   0.51833   0.42646   0.00000  Uiso   1.00
H1300  H     0.81493   0.52231   0.63042   0.00000  Uiso   1.00
H1301  H     0.82824   0.58444   0.61737   0.00000  Uiso   1.00
H1302  H     0.77920   0.58004   0.61678   0.00000  Uiso   1.00
H1303  H     0.80449   0.58151   0.57164   0.00000  Uiso   1.00
H1304  H     0.94262   0.68220   0.40876   0.00000  Uiso   1.00
H1305  H     0.87876   0.57436   0.20237   0.00000  Uiso   1.00
H1306  H     0.97952   0.64083   0.37465   0.00000  Uiso   1.00
H1307  H     0.51508   0.67452   0.37000   0.00000  Uiso   1.00
H1308  H     0.97524   0.67601   0.33888   0.00000  Uiso   1.00
H1309  H     0.55751   0.81774   0.59139   0.00000  Uiso   1.00
H1310  H     0.52051   0.85918   0.62535   0.00000  Uiso   1.00
H1311  H     0.52475   0.82403   0.66115   0.00000  Uiso   1.00
H1312  H     0.98495   0.82549   0.62998   0.00000  Uiso   1.00
H1313  H     0.81927   0.55441   0.40505   0.00000  Uiso   1.00
H1314  H     0.86087   0.51232   0.37506   0.00000  Uiso   1.00
H1315  H     0.82688   0.51944   0.33826   0.00000  Uiso   1.00
H1316  H     0.62073   0.92614   0.79695   0.00000  Uiso   1.00
H1317  H     0.82479   0.97944   0.36901   0.00000  Uiso   1.00
H1318  H     0.69082   0.96283   0.62813   0.00000  Uiso   1.00
H1319  H     0.63746   0.99835   0.61802   0.00000  Uiso   1.00
H1320  H     0.65717   0.51756   0.57467   0.00000  Uiso   1.00
H1321  H     0.67553   0.52942   0.62203   0.00000  Uiso   1.00
H1322  H     0.77319   0.56425   0.87019   0.00000  Uiso   1.00
H1323  H     0.83503   0.57887   0.88293   0.00000  Uiso   1.00
H1324  H     0.83197   0.52971   0.88266   0.00000  Uiso   1.00
H1325  H     0.83310   0.55439   0.92826   0.00000  Uiso   1.00
H1326  H     0.72646   0.93573   0.13015   0.00000  Uiso   1.00
H1327  H     0.92748   0.88077   0.20495   0.00000  Uiso   1.00
H1328  H     0.66452   0.92146   0.11747   0.00000  Uiso   1.00
H1329  H     0.66667   0.94560   0.07194   0.00000  Uiso   1.00
H1330  H     0.66795   0.97060   0.11733   0.00000  Uiso   1.00
H1331  H     0.94022   0.71399   0.87166   0.00000  Uiso   1.00
H1332  H     0.88737   0.74990   0.88284   0.00000  Uiso   1.00
H1333  H     0.92573   0.78063   0.87914   0.00000  Uiso   1.00
H1334  H     0.90764   0.76812   0.92640   0.00000  Uiso   1.00
H1335  H     0.56487   0.77251   0.13042   0.00000  Uiso   1.00
H1336  H     0.57799   0.83468   0.11736   0.00000  Uiso   1.00
H1337  H     0.52896   0.83013   0.11676   0.00000  Uiso   1.00
H1338  H     0.57252   0.61923   0.79505   0.00000  Uiso   1.00
H1339  H     0.55425   0.83167   0.07163   0.00000  Uiso   1.00
H1340  H     0.69330   0.93144   0.90812   0.00000  Uiso   1.00
H1341  H     0.73114   0.89049   0.87438   0.00000  Uiso   1.00
H1342  H     0.76620   0.92470   0.86992   0.00000  Uiso   1.00
H1343  H     0.72648   0.92562   0.83860   0.00000  Uiso   1.00
H1344  H     0.77300   0.56431   0.12978   0.00000  Uiso   1.00
H1345  H     0.83481   0.57894   0.11697   0.00000  Uiso   1.00
H1346  H     0.83269   0.55459   0.07159   0.00000  Uiso   1.00
H1347  H     0.83169   0.52978   0.11714   0.00000  Uiso   1.00
H1348  H     0.56912   0.80459   0.90500   0.00000  Uiso   1.00
H1349  H     0.61932   0.57242   0.79502   0.00000  Uiso   1.00
H1350  H     0.61085   0.76255   0.87510   0.00000  Uiso   1.00
H1351  H     0.57687   0.76959   0.83826   0.00000  Uiso   1.00
H1352  H     0.57484   0.72960   0.86902   0.00000  Uiso   1.00
H1353  H     0.94092   0.71262   0.12811   0.00000  Uiso   1.00
H1354  H     0.88747   0.74799   0.11796   0.00000  Uiso   1.00
H1355  H     0.90714   0.76725   0.07462   0.00000  Uiso   1.00
H1356  H     0.92544   0.77918   0.12199   0.00000  Uiso   1.00
N1357  N     0.98046   0.62117   0.44660   0.00000  Uiso   1.00
N1358  N     0.77187   0.62736   0.05558   0.00000  Uiso   1.00
N1359  N     0.63011   0.77634   0.94646   0.00000  Uiso   1.00
N1360  N     0.89859   0.66802   0.05556   0.00000  Uiso   1.00
N1361  N     0.77194   0.62720   0.94390   0.00000  Uiso   1.00
N1362  N     0.72684   0.87247   0.05666   0.00000  Uiso   1.00
N1363  N     0.89885   0.66794   0.94388   0.00000  Uiso   1.00
N1364  N     0.62862   0.77650   0.05665   0.00000  Uiso   1.00
N1365  N     0.53486   0.80706   0.39701   0.00000  Uiso   1.00
N1366  N     0.96519   0.69295   0.60294   0.00000  Uiso   1.00
N1367  N     0.68788   0.97749   0.39788   0.00000  Uiso   1.00
N1368  N     0.52006   0.87881   0.55340   0.00000  Uiso   1.00
N1369  N     0.80869   0.53232   0.60321   0.00000  Uiso   1.00
N1370  N     0.96584   0.69290   0.39630   0.00000  Uiso   1.00
N1371  N     0.53422   0.80710   0.60375   0.00000  Uiso   1.00
N1372  N     0.80949   0.52970   0.39528   0.00000  Uiso   1.00
N1373  N     0.68815   0.97656   0.60217   0.00000  Uiso   1.00
N1374  N     0.78361   0.55763   0.89712   0.00000  Uiso   1.00
N1375  N     0.71612   0.94221   0.10314   0.00000  Uiso   1.00
N1376  N     0.93795   0.72730   0.89790   0.00000  Uiso   1.00
N1377  N     0.55860   0.78249   0.10321   0.00000  Uiso   1.00
N1378  N     0.71658   0.94233   0.89599   0.00000  Uiso   1.00
N1379  N     0.88018   0.52588   0.44646   0.00000  Uiso   1.00
N1380  N     0.78331   0.55781   0.10280   0.00000  Uiso   1.00
N1381  N     0.55942   0.77984   0.89527   0.00000  Uiso   1.00
N1382  N     0.93823   0.72635   0.10215   0.00000  Uiso   1.00
N1383  N     0.64821   0.91849   0.55555   0.00000  Uiso   1.00
N1384  N     0.52409   0.87691   0.44316   0.00000  Uiso   1.00
N1385  N     0.97624   0.62308   0.55686   0.00000  Uiso   1.00
N1386  N     0.64858   0.91828   0.44388   0.00000  Uiso   1.00
N1387  N     0.87870   0.52609   0.55665   0.00000  Uiso   1.00
N1388  N     0.73068   0.87076   0.94637   0.00000  Uiso   1.00
O1389  O     0.75000   0.50000   0.25000   0.00000  Uiso   1.00
O1390  O     0.75000   0.96964   0.66245   0.00000  Uiso   1.00
O1391  O     0.96964   0.75000   0.33755   0.00000  Uiso   1.00
O1392  O     0.53037   0.75000   0.66245   0.00000  Uiso   1.00
O1393  O     0.50000   0.71964   0.83755   0.00000  Uiso   1.00
O1394  O     0.50000   0.78037   0.16245   0.00000  Uiso   1.00
O1395  O     0.78037   0.50000   0.83755   0.00000  Uiso   1.00
O1396  O     0.71964   0.50000   0.16245   0.00000  Uiso   1.00
O1397  O     0.50000   0.78037   0.83755   0.00000  Uiso   1.00
O1398  O     0.50000   0.71964   0.16245   0.00000  Uiso   1.00
O1399  O     0.71964   0.50000   0.83755   0.00000  Uiso   1.00
O1400  O     0.75000   0.50000   0.75000   0.00000  Uiso   1.00
O1401  O     0.78037   0.50000   0.16245   0.00000  Uiso   1.00
O1402  O     0.70725   0.57308   0.27302   0.00000  Uiso   1.00
O1403  O     0.79276   0.92693   0.72698   0.00000  Uiso   1.00
O1404  O     0.92693   0.70725   0.27302   0.00000  Uiso   1.00
O1405  O     0.57308   0.79276   0.72698   0.00000  Uiso   1.00
O1406  O     0.79276   0.92693   0.27302   0.00000  Uiso   1.00
O1407  O     0.70725   0.57308   0.72698   0.00000  Uiso   1.00
O1408  O     0.57308   0.79276   0.27302   0.00000  Uiso   1.00
O1409  O     0.92693   0.70725   0.72698   0.00000  Uiso   1.00
O1410  O     0.70725   0.92693   0.72698   0.00000  Uiso   1.00
O1411  O     0.50000   0.75000   0.25000   0.00000  Uiso   1.00
O1412  O     0.79276   0.57308   0.27302   0.00000  Uiso   1.00
O1413  O     0.92693   0.79276   0.72698   0.00000  Uiso   1.00
O1414  O     0.57308   0.70725   0.27302   0.00000  Uiso   1.00
O1415  O     0.79276   0.57308   0.72698   0.00000  Uiso   1.00
O1416  O     0.70725   0.92693   0.27302   0.00000  Uiso   1.00
O1417  O     0.57308   0.70725   0.72698   0.00000  Uiso   1.00
O1418  O     0.92693   0.79276   0.27302   0.00000  Uiso   1.00
O1419  O     0.95725   0.82308   0.77302   0.00000  Uiso   1.00
O1420  O     0.54276   0.67693   0.22698   0.00000  Uiso   1.00
O1421  O     0.67693   0.95725   0.77302   0.00000  Uiso   1.00
O1422  O     0.50000   0.75000   0.75000   0.00000  Uiso   1.00
O1423  O     0.82308   0.54276   0.22698   0.00000  Uiso   1.00
O1424  O     0.54276   0.67693   0.77302   0.00000  Uiso   1.00
O1425  O     0.95725   0.82308   0.22698   0.00000  Uiso   1.00
O1426  O     0.82308   0.54276   0.77302   0.00000  Uiso   1.00
O1427  O     0.67693   0.95725   0.22698   0.00000  Uiso   1.00
O1428  O     0.95725   0.67693   0.22698   0.00000  Uiso   1.00
O1429  O     0.54276   0.82308   0.77302   0.00000  Uiso   1.00
O1430  O     0.67693   0.54276   0.22698   0.00000  Uiso   1.00
O1431  O     0.82308   0.95725   0.77302   0.00000  Uiso   1.00
O1432  O     0.54276   0.82308   0.22698   0.00000  Uiso   1.00
O1433  O     0.75000   0.96964   0.33755   0.00000  Uiso   1.00
O1434  O     0.95725   0.67693   0.77302   0.00000  Uiso   1.00
O1435  O     0.82308   0.95725   0.22698   0.00000  Uiso   1.00
O1436  O     0.67693   0.54276   0.77302   0.00000  Uiso   1.00
O1437  O     0.75000   0.53037   0.66245   0.00000  Uiso   1.00
O1438  O     0.53037   0.75000   0.33755   0.00000  Uiso   1.00
O1439  O     0.96964   0.75000   0.66245   0.00000  Uiso   1.00
O1440  O     0.75000   0.53037   0.33755   0.00000  Uiso   1.00
Zn1441 Zn    0.70660   0.50000   0.21735   0.00000  Uiso   1.00
Zn1442 Zn    0.54341   0.75000   0.28265   0.00000  Uiso   1.00
Zn1443 Zn    0.75000   0.95660   0.71735   0.00000  Uiso   1.00
Zn1444 Zn    0.75000   0.54341   0.28265   0.00000  Uiso   1.00
Zn1445 Zn    0.54341   0.75000   0.71735   0.00000  Uiso   1.00
Zn1446 Zn    0.95660   0.75000   0.28265   0.00000  Uiso   1.00
Zn1447 Zn    0.75000   0.54341   0.71735   0.00000  Uiso   1.00
Zn1448 Zn    0.75000   0.95660   0.28265   0.00000  Uiso   1.00
Zn1449 Zn    0.79341   0.50000   0.78265   0.00000  Uiso   1.00
Zn1450 Zn    0.50000   0.70660   0.21735   0.00000  Uiso   1.00
Zn1451 Zn    0.50000   0.79341   0.78265   0.00000  Uiso   1.00
Zn1452 Zn    0.79341   0.50000   0.21735   0.00000  Uiso   1.00
Zn1453 Zn    0.70660   0.50000   0.78265   0.00000  Uiso   1.00
Zn1454 Zn    0.50000   0.79341   0.21735   0.00000  Uiso   1.00
Zn1455 Zn    0.50000   0.70660   0.78265   0.00000  Uiso   1.00
Zn1456 Zn    0.95660   0.75000   0.71735   0.00000  Uiso   1.00
loop_
_geom_bond_atom_site_label_1
_geom_bond_atom_site_label_2
_geom_bond_distance
_geom_bond_site_symmetry_2
_ccdc_geom_bond_type
C1     C78     1.402   .     A
C1     N273    1.429   .     S
C1     C4      1.414   .     A
C2     C14     1.417   .     A
C2     C84     1.403   .     A
C2     N283    1.429   .     S
C3     C147    1.416   .     A
C3     C90     1.420   .     A
C3     C38     1.425   .     A
C4     C34     1.422   .     A
C4     C91     1.419   .     A
C5     C36     1.422   .     A
C5     C81     1.414   .     A
C5     C93     1.419   .     A
C6     C94     1.420   .     A
C6     C92     1.413   .     A
C6     C37     1.424   .     A
C7     C103    1.420   .     A
C7     C95     1.420   .     A
C7     C766    1.423   1_545 S
C8     C35     1.420   .     A
C8     C96     1.421   .     A
C8     C39     1.427   .     A
C9     C46     1.416   .     A
C9     C97     1.419   .     A
C9     C768    1.424   1_545 S
C10    C41     1.428   .     A
C10    C98     1.423   .     A
C10    C57     1.424   .     A
C11    C99     1.420   .     A
C11    C68     1.416   .     A
C11    C406    1.425   .     S
C12    C158    1.414   .     A
C12    C100    1.420   .     A
C12    C767    1.424   1_545 S
C13    N284    1.429   .     S
C13    C15     1.413   .     A
C13    C449    1.400   .     S
C14    C40     1.422   .     A
C14    C101    1.419   .     A
C15    C102    1.420   .     A
C15    C405    1.424   .     S
C16    C104    1.420   .     A
C16    C24     1.420   .     A
C16    C42     1.423   .     A
C17    C120    1.455   .     S
C17    C148    1.402   .     A
C17    C150    1.402   .     A
C18    C121    1.455   .     S
C18    C149    1.402   .     A
C18    C146    1.402   .     A
C19    C113    1.456   .     S
C19    C145    1.402   .     A
C19    C152    1.402   .     A
C20    C144    1.402   .     A
C20    C151    1.402   .     A
C20    C115    1.456   .     S
C21    C116    1.455   .     S
C21    C143    1.402   .     A
C21    C154    1.402   .     A
C22    C142    1.402   .     A
C22    C153    1.402   .     A
C22    C117    1.455   .     S
C23    C118    1.456   .     S
C23    C141    1.402   .     A
C23    C156    1.402   .     A
C24    C86     1.404   .     A
C24    N285    1.429   .     S
C25    C140    1.402   .     A
C25    C119    1.456   .     S
C25    C155    1.402   .     A
C26    C139    1.402   .     A
C26    C159    1.402   .     A
C26    C129    1.456   .     S
C27    C138    1.402   .     A
C27    C157    1.402   .     A
C27    C130    1.456   .     S
C28    C137    1.402   .     A
C28    C122    1.455   .     S
C28    C161    1.402   .     A
C29    C135    1.402   .     A
C29    C160    1.402   .     A
C29    C123    1.455   .     S
C30    C134    1.402   .     A
C30    C163    1.402   .     A
C30    C124    1.456   .     S
C31    C162    1.402   .     A
C31    C133    1.402   .     A
C31    C126    1.456   .     S
C32    C127    1.455   .     S
C32    C165    1.402   .     A
C32    C132    1.402   .     A
C33    C164    1.402   .     A
C33    C131    1.402   .     A
C33    C128    1.455   .     S
C34    C400    1.417   1_455 S
C34    C530    1.427   1_455 S
C35    N286    1.432   .     S
C35    C83     1.403   .     A
C36    C398    1.417   .     S
C36    C531    1.427   .     S
C37    C38     1.419   .     A
C37    C896    1.428   .     S
C38    C735    1.423   .     S
C39    C740    1.424   .     S
C39    C40     1.416   1_556 S
C40    C737    1.424   .     S
C40    C39     1.416   1_554 S
C41    C379    1.424   1_455 S
C41    C42     1.419   1_556 S
C42    C375    1.425   1_455 S
C42    C41     1.419   1_554 S
C43    N265    1.157   .     T
C43    C87     1.454   .     S
C44    N276    1.157   .     T
C44    C88     1.454   .     S
C45    N287    1.158   .     T
C45    C89     1.454   .     S
C46    N288    1.429   .     S
C46    C812    1.403   1_545 S
C47    N291    1.158   .     T
C47    C90     1.456   .     S
C48    C91     1.457   .     S
C48    N292    1.158   .     T
C49    N293    1.158   .     T
C49    C93     1.457   .     S
C50    N294    1.158   .     T
C50    C94     1.457   .     S
C51    C95     1.457   .     S
C51    N295    1.158   .     T
C52    N296    1.158   .     T
C52    C96     1.454   .     S
C53    N266    1.158   .     T
C53    C97     1.456   .     S
C54    N267    1.158   .     T
C54    C98     1.454   .     S
C55    N268    1.158   .     T
C55    C99     1.457   .     S
C56    N269    1.158   .     T
C56    C100    1.456   .     S
C57    C85     1.403   .     A
C57    N289    1.429   .     S
C58    C101    1.457   .     S
C58    N270    1.158   .     T
C59    C102    1.457   .     S
C59    N271    1.158   .     T
C60    N272    1.158   .     T
C60    C104    1.457   .     S
C61    H197    1.111   .     S
C61    H196    1.110   .     S
C61    H198    1.111   .     S
C61    N273    1.447   .     S
C62    H201    1.111   .     S
C62    N274    1.447   .     S
C62    H200    1.110   .     S
C62    H203    1.111   .     S
C63    H206    1.111   .     S
C63    H207    1.111   .     S
C63    H205    1.110   .     S
C63    N1003   1.446   1_545 S
C64    H210    1.110   .     S
C64    H209    1.110   .     S
C64    H211    1.111   .     S
C64    N277    1.448   .     S
C65    N278    1.452   .     S
C65    H214    1.108   .     S
C65    H216    1.110   .     S
C65    H579    1.112   .     S
C66    H219    1.110   .     S
C66    N279    1.452   .     S
C66    H218    1.108   .     S
C66    H584    1.112   1_455 S
C67    H223    1.110   .     S
C67    H222    1.108   .     S
C67    N280    1.451   .     S
C67    H953    1.112   1_545 S
C68    N290    1.428   .     S
C68    C450    1.402   .     S
C69    H229    1.111   .     S
C69    H228    1.111   .     S
C69    H955    1.110   1_545 S
C69    N1009   1.446   1_545 S
C70    N282    1.447   .     S
C70    H231    1.110   .     S
C70    H233    1.111   .     S
C70    H232    1.111   .     S
C71    H238    1.111   .     S
C71    N283    1.447   .     S
C71    H237    1.111   .     S
C71    H236    1.110   .     S
C72    N284    1.446   .     S
C72    H242    1.111   .     S
C72    H240    1.110   .     S
C72    H241    1.111   .     S
C73    H245    1.110   .     S
C73    H247    1.111   .     S
C73    H244    1.110   .     S
C73    N285    1.448   .     S
C74    N286    1.452   .     S
C74    H251    1.110   .     S
C74    H249    1.108   .     S
C74    H250    1.112   .     S
C75    H254    1.111   .     S
C75    N288    1.447   .     S
C75    H255    1.111   .     S
C75    H253    1.110   .     S
C76    H260    1.112   .     S
C76    H259    1.110   .     S
C76    H258    1.108   .     S
C76    N289    1.451   .     S
C77    H263    1.111   .     S
C77    N290    1.446   .     S
C77    H262    1.110   .     S
C77    H264    1.111   .     S
C78    C107    1.453   .     S
C78    C478    1.403   1_455 S
C79    C108    1.453   .     S
C79    C81     1.402   .     A
C79    C489    1.403   .     S
C80    C92     1.400   .     A
C80    C105    1.457   .     S
C80    C864    1.403   .     S
C81    N274    1.429   .     S
C82    C147    1.402   .     A
C82    C106    1.458   .     S
C82    C831    1.404   .     S
C83    C839    1.453   .     S
C83    C886    1.402   .     S
C84    C112    1.454   .     S
C84    C774    1.403   .     S
C85    C377    1.400   1_455 S
C85    C473    1.457   1_455 S
C86    C432    1.402   1_455 S
C86    C474    1.458   1_455 S
C87    C93     1.404   .     A
C87    C166    1.419   .     A
C88    C91     1.404   .     A
C88    C167    1.420   .     A
C89    C95     1.407   .     A
C89    C168    1.423   .     A
C90    C94     1.402   .     A
C92    N275    1.429   .     S
C96    C101    1.405   1_556 S
C97    C100    1.402   1_554 S
C98    C104    1.407   1_556 S
C99    C102    1.402   1_554 S
C100   C97     1.402   1_556 S
C101   C96     1.405   1_554 S
C102   C99     1.402   1_556 S
C103   N277    1.429   .     S
C103   C810    1.404   1_545 S
C104   C98     1.407   1_554 S
C105   O341    1.275   .     A
C105   O1076   1.280   .     S
C106   O298    1.277   .     A
C106   O1073   1.279   .     S
C107   O346    1.275   .     A
C107   O663    1.279   1_455 S
C108   O347    1.275   .     A
C108   O664    1.279   .     S
C109   C449    1.457   .     S
C109   O665    1.275   .     S
C109   O669    1.280   .     S
C110   O666    1.279   .     A
C110   C450    1.458   .     S
C110   O670    1.277   .     S
C111   O307    1.278   .     A
C111   O303    1.275   .     A
C111   C811    1.453   1_545 S
C112   O1032   1.277   .     S
C112   O1037   1.277   .     S
C113   O310    1.281   .     A
C113   O338    1.282   .     A
C114   C166    1.420   .     A
C114   N278    1.432   .     S
C114   C442    1.403   .     S
C115   O311    1.281   .     A
C115   O339    1.282   .     A
C116   O336    1.282   .     A
C116   O312    1.282   .     A
C117   O337    1.282   .     A
C117   O313    1.282   .     A
C118   O314    1.282   .     A
C118   O343    1.282   .     A
C119   O344    1.282   .     A
C119   O315    1.282   .     A
C120   O316    1.281   .     A
C120   O340    1.281   .     A
C121   O317    1.281   .     A
C121   O342    1.281   .     A
C122   O329    1.282   .     A
C122   O318    1.282   .     A
C123   O331    1.282   .     A
C123   O320    1.282   .     A
C124   O321    1.282   .     A
C124   O327    1.281   .     A
C125   C167    1.420   .     A
C125   N279    1.432   .     S
C125   C443    1.403   1_455 S
C126   O322    1.282   .     A
C126   O328    1.281   .     A
C127   O323    1.281   .     A
C127   O334    1.281   .     A
C128   O335    1.281   .     A
C128   O324    1.281   .     A
C129   O332    1.282   .     A
C129   O325    1.282   .     A
C130   O333    1.282   .     A
C130   O326    1.282   .     A
C131   H169    1.083   .     S
C131   C148    1.386   .     A
C132   H180    1.083   .     S
C132   C146    1.386   .     A
C133   C145    1.386   .     A
C133   H191    1.083   .     S
C134   H202    1.083   .     S
C134   C144    1.386   .     A
C135   C143    1.386   .     A
C135   H213    1.083   .     S
C136   N280    1.429   .     S
C136   C168    1.424   .     A
C136   C808    1.403   1_545 S
C137   C142    1.386   .     A
C137   H224    1.083   .     S
C138   H235    1.083   .     S
C138   C141    1.386   .     A
C139   C140    1.386   .     A
C139   H246    1.083   .     S
C140   H257    1.083   .     S
C141   H170    1.083   .     S
C142   H171    1.083   .     S
C143   H172    1.083   .     S
C144   H173    1.083   .     S
C145   H174    1.083   .     S
C146   H175    1.083   .     S
C147   N281    1.428   .     S
C148   H176    1.083   .     S
C149   C165    1.386   .     A
C149   H177    1.083   .     S
C150   C164    1.386   .     A
C150   H178    1.083   .     S
C151   H179    1.083   .     S
C151   C163    1.386   .     A
C152   H181    1.083   .     S
C152   C162    1.386   .     A
C153   C161    1.386   .     A
C153   H182    1.083   .     S
C154   H183    1.083   .     S
C154   C160    1.386   .     A
C155   C159    1.386   .     A
C155   H184    1.083   .     S
C156   H185    1.083   .     S
C156   C157    1.386   .     A
C157   H186    1.083   .     S
C158   N282    1.429   .     S
C158   C811    1.402   1_545 S
C159   H187    1.083   .     S
C160   H188    1.083   .     S
C161   H189    1.083   .     S
C162   H190    1.083   .     S
C163   H192    1.083   .     S
C164   H193    1.083   .     S
C165   H194    1.083   .     S
C166   C398    1.427   .     S
C167   C400    1.427   1_455 S
C168   C765    1.428   1_545 S
H195   N273    1.031   .     S
H199   N274    1.031   .     S
H204   N275    1.030   .     S
H208   N277    1.031   .     S
H212   N278    1.031   .     S
H215   C429    1.112   1_455 S
H217   N279    1.031   .     S
H220   C430    1.112   .     S
H221   N280    1.031   .     S
H225   C795    1.112   .     S
H226   N281    1.030   .     S
H227   C797    1.110   .     S
H230   N282    1.031   .     S
H234   N283    1.031   .     S
H239   N284    1.030   .     S
H243   N285    1.031   .     S
H248   N286    1.031   .     S
H252   N288    1.031   .     S
H256   N289    1.031   .     S
H261   N290    1.030   .     S
N275   C791    1.446   .     S
N281   C797    1.446   .     S
O297   Zn352   1.949   .     S
O297   Zn360   1.949   .     S
O297   Zn349   1.947   .     S
O297   Zn1084  1.948   1_545 S
O298   Zn351   1.949   .     S
O299   Zn354   1.948   .     S
O299   C471    1.279   .     S
O300   Zn353   1.948   .     S
O300   C472    1.279   1_455 S
O301   Zn363   1.949   .     S
O301   C473    1.275   1_455 S
O302   C474    1.279   1_455 A
O302   Zn362   1.949   .     S
O303   Zn357   1.949   .     S
O304   Zn349   1.949   .     S
O304   C840    1.277   1_545 S
O305   Zn359   1.949   .     S
O305   C473    1.280   1_455 S
O306   Zn358   1.949   .     S
O306   C474    1.277   1_455 S
O307   Zn361   1.948   .     S
O308   Zn355   1.948   .     S
O308   Zn357   1.947   .     S
O308   Zn361   1.949   .     S
O308   Zn1079  1.949   1_545 S
O309   Zn360   1.948   .     S
O309   C840    1.277   1_545 S
O310   Zn352   1.937   .     S
O311   Zn351   1.937   .     S
O312   Zn354   1.936   .     S
O313   Zn353   1.936   .     S
O314   Zn356   1.938   .     S
O315   Zn355   1.938   .     S
O316   Zn350   1.936   .     S
O317   Zn364   1.936   .     S
O318   Zn351   1.936   .     S
O319   Zn350   1.947   .     S
O319   Zn358   1.949   .     S
O319   Zn362   1.948   .     S
O319   Zn718   1.949   1_455 S
O320   Zn352   1.936   .     S
O321   Zn364   1.938   .     S
O322   Zn350   1.938   .     S
O323   Zn355   1.936   .     S
O324   Zn356   1.936   .     S
O325   Zn353   1.937   .     S
O326   Zn354   1.937   .     S
O327   Zn723   1.937   .     S
O328   Zn358   1.937   .     S
O329   Zn1089  1.936   .     S
O330   Zn359   1.949   .     S
O330   Zn363   1.948   .     S
O330   Zn353   1.949   .     S
O330   Zn728   1.947   1_455 S
O331   Zn360   1.936   .     S
O332   Zn363   1.938   .     S
O333   Zn726   1.938   .     S
O334   Zn357   1.936   .     S
O335   Zn1077  1.936   .     S
O336   Zn722   1.936   .     S
O337   Zn359   1.936   .     S
O338   Zn349   1.938   .     S
O339   Zn1085  1.938   .     S
O340   Zn362   1.936   .     S
O341   Zn356   1.949   .     S
O342   Zn727   1.936   .     S
O343   Zn1088  1.937   .     S
O344   Zn361   1.937   .     S
O345   Zn355   1.949   .     S
O345   C834    1.279   1_545 S
O346   Zn350   1.949   .     S
O347   Zn364   1.949   .     S
O348   Zn352   1.949   .     S
O348   C833    1.280   1_545 S
Zn349  O1063   1.936   1_545 S
Zn351  O1036   1.949   .     S
Zn354  O683    1.949   .     S
Zn356  O1025   1.948   .     S
Zn357  O1067   1.938   1_545 S
Zn358  O700    1.936   1_455 S
Zn359  O691    1.937   1_455 S
Zn360  O1071   1.937   1_545 S
Zn361  O1057   1.936   1_545 S
Zn362  O697    1.938   1_455 S
Zn363  O706    1.936   1_455 S
Zn364  O694    1.947   .     S
C365   C442    1.402   .     A
C365   N637    1.429   .     S
C365   C368    1.414   .     A
C366   C378    1.417   .     A
C366   C448    1.403   .     A
C366   N647    1.429   .     S
C367   C511    1.416   .     A
C367   C454    1.420   .     A
C367   C402    1.425   .     A
C368   C398    1.422   .     A
C368   C455    1.419   .     A
C369   C400    1.422   .     A
C369   C445    1.414   .     A
C369   C457    1.419   .     A
C370   C458    1.420   .     A
C370   C456    1.413   .     A
C370   C401    1.424   .     A
C371   C467    1.420   .     A
C371   C459    1.420   .     A
C371   C1130   1.423   1_545 S
C372   C399    1.420   .     A
C372   C460    1.421   .     A
C372   C403    1.427   .     A
C373   C410    1.416   .     A
C373   C461    1.419   .     A
C373   C1132   1.424   1_545 S
C374   C405    1.428   .     A
C374   C462    1.423   .     A
C374   C421    1.424   .     A
C375   C463    1.420   .     A
C375   C432    1.416   .     A
C375   C42     1.425   1_655 S
C376   C522    1.414   .     A
C376   C464    1.420   .     A
C376   C1131   1.424   1_545 S
C377   N648    1.429   .     S
C377   C379    1.413   .     A
C377   C85     1.400   1_655 S
C378   C404    1.422   .     A
C378   C465    1.419   .     A
C379   C466    1.420   .     A
C379   C41     1.424   1_655 S
C380   C468    1.420   .     A
C380   C388    1.420   .     A
C380   C406    1.423   .     A
C381   C484    1.455   .     S
C381   C512    1.402   .     A
C381   C514    1.402   .     A
C382   C485    1.455   .     S
C382   C513    1.402   .     A
C382   C510    1.402   .     A
C383   C477    1.456   .     S
C383   C509    1.402   .     A
C383   C516    1.402   .     A
C384   C508    1.402   .     A
C384   C515    1.402   .     A
C384   C479    1.456   .     S
C385   C480    1.455   .     S
C385   C507    1.402   .     A
C385   C518    1.402   .     A
C386   C506    1.402   .     A
C386   C517    1.402   .     A
C386   C481    1.455   .     S
C387   C482    1.456   .     S
C387   C505    1.402   .     A
C387   C520    1.402   .     A
C388   C450    1.404   .     A
C388   N649    1.429   .     S
C389   C504    1.402   .     A
C389   C483    1.456   .     S
C389   C519    1.402   .     A
C390   C503    1.402   .     A
C390   C523    1.402   .     A
C390   C493    1.456   .     S
C391   C502    1.402   .     A
C391   C521    1.402   .     A
C391   C494    1.456   .     S
C392   C501    1.402   .     A
C392   C486    1.455   .     S
C392   C525    1.402   .     A
C393   C499    1.402   .     A
C393   C524    1.402   .     A
C393   C487    1.455   .     S
C394   C498    1.402   .     A
C394   C527    1.402   .     A
C394   C488    1.456   .     S
C395   C526    1.402   .     A
C395   C497    1.402   .     A
C395   C490    1.456   .     S
C396   C491    1.455   .     S
C396   C529    1.402   .     A
C396   C496    1.402   .     A
C397   C528    1.402   .     A
C397   C495    1.402   .     A
C397   C492    1.455   .     S
C399   N650    1.432   .     S
C399   C447    1.403   .     A
C400   C34     1.417   1_655 S
C400   C167    1.427   1_655 S
C401   C402    1.419   .     A
C401   C1260   1.428   .     S
C402   C1099   1.423   .     S
C403   C1104   1.424   .     S
C403   C404    1.416   1_556 S
C404   C1101   1.424   .     S
C404   C403    1.416   1_554 S
C405   C406    1.419   1_556 S
C406   C405    1.419   1_554 S
C407   N629    1.157   .     T
C407   C451    1.454   .     S
C408   N640    1.157   .     T
C408   C452    1.454   .     S
C409   N651    1.158   .     T
C409   C453    1.454   .     S
C410   N652    1.429   .     S
C410   C1176   1.403   1_545 S
C411   N655    1.158   .     T
C411   C454    1.456   .     S
C412   C455    1.457   .     S
C412   N656    1.158   .     T
C413   N657    1.158   .     T
C413   C457    1.457   .     S
C414   N658    1.158   .     T
C414   C458    1.457   .     S
C415   C459    1.457   .     S
C415   N659    1.158   .     T
C416   N660    1.158   .     T
C416   C460    1.454   .     S
C417   N630    1.158   .     T
C417   C461    1.456   .     S
C418   N631    1.158   .     T
C418   C462    1.454   .     S
C419   N632    1.158   .     T
C419   C463    1.457   .     S
C420   N633    1.158   .     T
C420   C464    1.456   .     S
C421   C449    1.403   .     A
C421   N653    1.429   .     S
C422   C465    1.457   .     S
C422   N634    1.158   .     T
C423   C466    1.457   .     S
C423   N635    1.158   .     T
C424   N636    1.158   .     T
C424   C468    1.457   .     S
C425   H561    1.111   .     S
C425   H560    1.110   .     S
C425   H562    1.111   .     S
C425   N637    1.447   .     S
C426   H565    1.111   .     S
C426   N638    1.447   .     S
C426   H564    1.110   .     S
C426   H567    1.111   .     S
C427   H570    1.111   .     S
C427   H571    1.111   .     S
C427   H569    1.110   .     S
C427   N1367   1.446   1_545 S
C428   H574    1.110   .     S
C428   H573    1.110   .     S
C428   H575    1.111   .     S
C428   N641    1.448   .     S
C429   N642    1.452   .     S
C429   H578    1.108   .     S
C429   H580    1.110   .     S
C429   H215    1.112   1_655 S
C430   H583    1.110   .     S
C430   N643    1.452   .     S
C430   H582    1.108   .     S
C431   H587    1.110   .     S
C431   H586    1.108   .     S
C431   N644    1.451   .     S
C431   H1317   1.112   1_545 S
C432   N654    1.428   .     S
C432   C86     1.402   1_655 S
C433   H593    1.111   .     S
C433   H592    1.111   .     S
C433   H1319   1.110   1_545 S
C433   N1373   1.446   1_545 S
C434   N646    1.447   .     S
C434   H595    1.110   .     S
C434   H597    1.111   .     S
C434   H596    1.111   .     S
C435   H602    1.111   .     S
C435   N647    1.447   .     S
C435   H601    1.111   .     S
C435   H600    1.110   .     S
C436   N648    1.446   .     S
C436   H606    1.111   .     S
C436   H604    1.110   .     S
C436   H605    1.111   .     S
C437   H609    1.110   .     S
C437   H611    1.111   .     S
C437   H608    1.110   .     S
C437   N649    1.448   .     S
C438   N650    1.452   .     S
C438   H615    1.110   .     S
C438   H613    1.108   .     S
C438   H614    1.112   .     S
C439   H618    1.111   .     S
C439   N652    1.447   .     S
C439   H619    1.111   .     S
C439   H617    1.110   .     S
C440   H624    1.112   .     S
C440   H623    1.110   .     S
C440   H622    1.108   .     S
C440   N653    1.451   .     S
C441   H627    1.111   .     S
C441   N654    1.446   .     S
C441   H626    1.110   .     S
C441   H628    1.111   .     S
C442   C471    1.453   .     S
C443   C472    1.453   .     S
C443   C445    1.402   .     A
C443   C125    1.403   1_655 S
C444   C456    1.400   .     A
C444   C469    1.457   .     S
C444   C1228   1.403   .     S
C445   N638    1.429   .     S
C446   C511    1.402   .     A
C446   C470    1.458   .     S
C446   C1195   1.404   .     S
C447   C1203   1.453   .     S
C447   C1250   1.402   .     S
C448   C476    1.454   .     S
C448   C1138   1.403   .     S
C451   C457    1.404   .     A
C451   C530    1.419   .     A
C452   C455    1.404   .     A
C452   C531    1.420   .     A
C453   C459    1.407   .     A
C453   C532    1.423   .     A
C454   C458    1.402   .     A
C456   N639    1.429   .     S
C460   C465    1.405   1_556 S
C461   C464    1.402   1_554 S
C462   C468    1.407   1_556 S
C463   C466    1.402   1_554 S
C464   C461    1.402   1_556 S
C465   C460    1.405   1_554 S
C466   C463    1.402   1_556 S
C467   N641    1.429   .     S
C467   C1174   1.404   1_545 S
C468   C462    1.407   1_554 S
C469   O705    1.275   .     A
C469   O1440   1.280   .     S
C470   O662    1.277   .     A
C470   O1437   1.279   .     S
C471   O710    1.275   .     A
C472   O711    1.275   .     A
C472   O300    1.279   1_655 S
C473   C85     1.457   1_655 S
C473   O301    1.275   1_655 S
C473   O305    1.280   1_655 S
C474   O302    1.279   1_655 A
C474   C86     1.458   1_655 S
C474   O306    1.277   1_655 S
C475   O671    1.278   .     A
C475   O667    1.275   .     A
C475   C1175   1.453   1_545 S
C476   O1396   1.277   .     S
C476   O1401   1.277   .     S
C477   O674    1.281   .     A
C477   O702    1.282   .     A
C478   C530    1.420   .     A
C478   N642    1.432   .     S
C478   C78     1.403   1_655 S
C479   O675    1.281   .     A
C479   O703    1.282   .     A
C480   O700    1.282   .     A
C480   O676    1.282   .     A
C481   O701    1.282   .     A
C481   O677    1.282   .     A
C482   O678    1.282   .     A
C482   O707    1.282   .     A
C483   O708    1.282   .     A
C483   O679    1.282   .     A
C484   O680    1.281   .     A
C484   O704    1.281   .     A
C485   O681    1.281   .     A
C485   O706    1.281   .     A
C486   O693    1.282   .     A
C486   O682    1.282   .     A
C487   O695    1.282   .     A
C487   O684    1.282   .     A
C488   O685    1.282   .     A
C488   O691    1.281   .     A
C489   C531    1.420   .     A
C489   N643    1.432   .     S
C490   O686    1.282   .     A
C490   O692    1.281   .     A
C491   O687    1.281   .     A
C491   O698    1.281   .     A
C492   O699    1.281   .     A
C492   O688    1.281   .     A
C493   O696    1.282   .     A
C493   O689    1.282   .     A
C494   O697    1.282   .     A
C494   O690    1.282   .     A
C495   H533    1.083   .     S
C495   C512    1.386   .     A
C496   H544    1.083   .     S
C496   C510    1.386   .     A
C497   C509    1.386   .     A
C497   H555    1.083   .     S
C498   H566    1.083   .     S
C498   C508    1.386   .     A
C499   C507    1.386   .     A
C499   H577    1.083   .     S
C500   N644    1.429   .     S
C500   C532    1.424   .     A
C500   C1172   1.403   1_545 S
C501   C506    1.386   .     A
C501   H588    1.083   .     S
C502   H599    1.083   .     S
C502   C505    1.386   .     A
C503   C504    1.386   .     A
C503   H610    1.083   .     S
C504   H621    1.083   .     S
C505   H534    1.083   .     S
C506   H535    1.083   .     S
C507   H536    1.083   .     S
C508   H537    1.083   .     S
C509   H538    1.083   .     S
C510   H539    1.083   .     S
C511   N645    1.428   .     S
C512   H540    1.083   .     S
C513   C529    1.386   .     A
C513   H541    1.083   .     S
C514   C528    1.386   .     A
C514   H542    1.083   .     S
C515   H543    1.083   .     S
C515   C527    1.386   .     A
C516   H545    1.083   .     S
C516   C526    1.386   .     A
C517   C525    1.386   .     A
C517   H546    1.083   .     S
C518   H547    1.083   .     S
C518   C524    1.386   .     A
C519   C523    1.386   .     A
C519   H548    1.083   .     S
C520   H549    1.083   .     S
C520   C521    1.386   .     A
C521   H550    1.083   .     S
C522   N646    1.429   .     S
C522   C1175   1.402   1_545 S
C523   H551    1.083   .     S
C524   H552    1.083   .     S
C525   H553    1.083   .     S
C526   H554    1.083   .     S
C527   H556    1.083   .     S
C528   H557    1.083   .     S
C529   H558    1.083   .     S
C530   C34     1.427   1_655 S
C532   C1129   1.428   1_545 S
H559   N637    1.031   .     S
H563   N638    1.031   .     S
H568   N639    1.030   .     S
H572   N641    1.031   .     S
H576   N642    1.031   .     S
H581   N643    1.031   .     S
H584   C66     1.112   1_655 S
H585   N644    1.031   .     S
H589   C1159   1.112   .     S
H590   N645    1.030   .     S
H591   C1161   1.110   .     S
H594   N646    1.031   .     S
H598   N647    1.031   .     S
H603   N648    1.030   .     S
H607   N649    1.031   .     S
H612   N650    1.031   .     S
H616   N652    1.031   .     S
H620   N653    1.031   .     S
H625   N654    1.030   .     S
N639   C1155   1.446   .     S
N645   C1161   1.446   .     S
O661   Zn716   1.949   .     S
O661   Zn724   1.949   .     S
O661   Zn713   1.947   .     S
O661   Zn1448  1.948   1_545 S
O662   Zn715   1.949   .     S
O663   Zn718   1.948   .     S
O663   C107    1.279   1_655 S
O664   Zn717   1.948   .     S
O665   Zn727   1.949   .     S
O666   Zn726   1.949   .     S
O667   Zn721   1.949   .     S
O668   Zn713   1.949   .     S
O668   C1204   1.277   1_545 S
O669   Zn723   1.949   .     S
O670   Zn722   1.949   .     S
O671   Zn725   1.948   .     S
O672   Zn719   1.948   .     S
O672   Zn721   1.947   .     S
O672   Zn725   1.949   .     S
O672   Zn1443  1.949   1_545 S
O673   Zn724   1.948   .     S
O673   C1204   1.277   1_545 S
O674   Zn716   1.937   .     S
O675   Zn715   1.937   .     S
O676   Zn718   1.936   .     S
O677   Zn717   1.936   .     S
O678   Zn720   1.938   .     S
O679   Zn719   1.938   .     S
O680   Zn714   1.936   .     S
O681   Zn728   1.936   .     S
O682   Zn715   1.936   .     S
O683   Zn714   1.947   .     S
O683   Zn722   1.949   .     S
O683   Zn726   1.948   .     S
O684   Zn716   1.936   .     S
O685   Zn728   1.938   .     S
O686   Zn714   1.938   .     S
O687   Zn719   1.936   .     S
O688   Zn720   1.936   .     S
O689   Zn717   1.937   .     S
O690   Zn718   1.937   .     S
O691   Zn359   1.937   1_655 S
O692   Zn722   1.937   .     S
O693   Zn1453  1.936   .     S
O694   Zn723   1.949   .     S
O694   Zn727   1.948   .     S
O694   Zn717   1.949   .     S
O695   Zn724   1.936   .     S
O696   Zn727   1.938   .     S
O697   Zn362   1.938   1_655 S
O698   Zn721   1.936   .     S
O699   Zn1441  1.936   .     S
O700   Zn358   1.936   1_655 S
O701   Zn723   1.936   .     S
O702   Zn713   1.938   .     S
O703   Zn1449  1.938   .     S
O704   Zn726   1.936   .     S
O705   Zn720   1.949   .     S
O706   Zn363   1.936   1_655 S
O707   Zn1452  1.937   .     S
O708   Zn725   1.937   .     S
O709   Zn719   1.949   .     S
O709   C1198   1.279   1_545 S
O710   Zn714   1.949   .     S
O711   Zn728   1.949   .     S
O712   Zn716   1.949   .     S
O712   C1197   1.280   1_545 S
Zn713  O1427   1.936   1_545 S
Zn715  O1400   1.949   .     S
Zn718  O319    1.949   1_655 S
Zn720  O1389   1.948   .     S
Zn721  O1431   1.938   1_545 S
Zn724  O1435   1.937   1_545 S
Zn725  O1421   1.936   1_545 S
Zn728  O330    1.947   1_655 S
C729   C806    1.402   .     A
C729   N1001   1.429   .     S
C729   C732    1.414   .     A
C730   C742    1.417   .     A
C730   C812    1.403   .     A
C730   N1011   1.429   .     S
C731   C875    1.416   .     A
C731   C818    1.420   .     A
C731   C766    1.425   .     A
C732   C762    1.422   .     A
C732   C819    1.419   .     A
C733   C764    1.422   .     A
C733   C809    1.414   .     A
C733   C821    1.419   .     A
C734   C822    1.420   .     A
C734   C820    1.413   .     A
C734   C765    1.424   .     A
C735   C831    1.420   .     A
C735   C823    1.420   .     A
C736   C763    1.420   .     A
C736   C824    1.421   .     A
C736   C767    1.427   .     A
C737   C774    1.416   .     A
C737   C825    1.419   .     A
C738   C769    1.428   .     A
C738   C826    1.423   .     A
C738   C785    1.424   .     A
C739   C827    1.420   .     A
C739   C796    1.416   .     A
C739   C1134   1.425   .     S
C740   C886    1.414   .     A
C740   C828    1.420   .     A
C741   N1012   1.429   .     S
C741   C743    1.413   .     A
C741   C1177   1.400   .     S
C742   C768    1.422   .     A
C742   C829    1.419   .     A
C743   C830    1.420   .     A
C743   C1133   1.424   .     S
C744   C832    1.420   .     A
C744   C752    1.420   .     A
C744   C770    1.423   .     A
C745   C848    1.455   .     S
C745   C876    1.402   .     A
C745   C878    1.402   .     A
C746   C849    1.455   .     S
C746   C877    1.402   .     A
C746   C874    1.402   .     A
C747   C841    1.456   .     S
C747   C873    1.402   .     A
C747   C880    1.402   .     A
C748   C872    1.402   .     A
C748   C879    1.402   .     A
C748   C843    1.456   .     S
C749   C844    1.455   .     S
C749   C871    1.402   .     A
C749   C882    1.402   .     A
C750   C870    1.402   .     A
C750   C881    1.402   .     A
C750   C845    1.455   .     S
C751   C846    1.456   .     S
C751   C869    1.402   .     A
C751   C884    1.402   .     A
C752   C814    1.404   .     A
C752   N1013   1.429   .     S
C753   C868    1.402   .     A
C753   C847    1.456   .     S
C753   C883    1.402   .     A
C754   C867    1.402   .     A
C754   C887    1.402   .     A
C754   C857    1.456   .     S
C755   C866    1.402   .     A
C755   C885    1.402   .     A
C755   C858    1.456   .     S
C756   C865    1.402   .     A
C756   C850    1.455   .     S
C756   C889    1.402   .     A
C757   C863    1.402   .     A
C757   C888    1.402   .     A
C757   C851    1.455   .     S
C758   C862    1.402   .     A
C758   C891    1.402   .     A
C758   C852    1.456   .     S
C759   C890    1.402   .     A
C759   C861    1.402   .     A
C759   C854    1.456   .     S
C760   C855    1.455   .     S
C760   C893    1.402   .     A
C760   C860    1.402   .     A
C761   C892    1.402   .     A
C761   C859    1.402   .     A
C761   C856    1.455   .     S
C762   C1128   1.417   1_455 S
C762   C1258   1.427   1_455 S
C763   N1014   1.432   .     S
C763   C811    1.403   .     A
C764   C1126   1.417   .     S
C764   C1259   1.427   .     S
C765   C766    1.419   .     A
C765   C168    1.428   1_565 S
C766   C7      1.423   1_565 S
C767   C12     1.424   1_565 S
C767   C768    1.416   1_556 S
C768   C9      1.424   1_565 S
C768   C767    1.416   1_554 S
C769   C1107   1.424   1_455 S
C769   C770    1.419   1_556 S
C770   C1103   1.425   1_455 S
C770   C769    1.419   1_554 S
C771   N993    1.157   .     T
C771   C815    1.454   .     S
C772   N1004   1.157   .     T
C772   C816    1.454   .     S
C773   N1015   1.158   .     T
C773   C817    1.454   .     S
C774   N1016   1.429   .     S
C775   N1019   1.158   .     T
C775   C818    1.456   .     S
C776   C819    1.457   .     S
C776   N1020   1.158   .     T
C777   N1021   1.158   .     T
C777   C821    1.457   .     S
C778   N1022   1.158   .     T
C778   C822    1.457   .     S
C779   C823    1.457   .     S
C779   N1023   1.158   .     T
C780   N1024   1.158   .     T
C780   C824    1.454   .     S
C781   N994    1.158   .     T
C781   C825    1.456   .     S
C782   N995    1.158   .     T
C782   C826    1.454   .     S
C783   N996    1.158   .     T
C783   C827    1.457   .     S
C784   N997    1.158   .     T
C784   C828    1.456   .     S
C785   C813    1.403   .     A
C785   N1017   1.429   .     S
C786   C829    1.457   .     S
C786   N998    1.158   .     T
C787   C830    1.457   .     S
C787   N999    1.158   .     T
C788   N1000   1.158   .     T
C788   C832    1.457   .     S
C789   H925    1.111   .     S
C789   H924    1.110   .     S
C789   H926    1.111   .     S
C789   N1001   1.447   .     S
C790   H929    1.111   .     S
C790   N1002   1.447   .     S
C790   H928    1.110   .     S
C790   H931    1.111   .     S
C791   H934    1.111   .     S
C791   H935    1.111   .     S
C791   H933    1.110   .     S
C792   H938    1.110   .     S
C792   H937    1.110   .     S
C792   H939    1.111   .     S
C792   N1005   1.448   .     S
C793   N1006   1.452   .     S
C793   H942    1.108   .     S
C793   H944    1.110   .     S
C793   H1307   1.112   .     S
C794   H947    1.110   .     S
C794   N1007   1.452   .     S
C794   H946    1.108   .     S
C794   H1312   1.112   1_455 S
C795   H951    1.110   .     S
C795   H950    1.108   .     S
C795   N1008   1.451   .     S
C796   N1018   1.428   .     S
C796   C1178   1.402   .     S
C797   H957    1.111   .     S
C797   H956    1.111   .     S
C798   N1010   1.447   .     S
C798   H959    1.110   .     S
C798   H961    1.111   .     S
C798   H960    1.111   .     S
C799   H966    1.111   .     S
C799   N1011   1.447   .     S
C799   H965    1.111   .     S
C799   H964    1.110   .     S
C800   N1012   1.446   .     S
C800   H970    1.111   .     S
C800   H968    1.110   .     S
C800   H969    1.111   .     S
C801   H973    1.110   .     S
C801   H975    1.111   .     S
C801   H972    1.110   .     S
C801   N1013   1.448   .     S
C802   N1014   1.452   .     S
C802   H979    1.110   .     S
C802   H977    1.108   .     S
C802   H978    1.112   .     S
C803   H982    1.111   .     S
C803   N1016   1.447   .     S
C803   H983    1.111   .     S
C803   H981    1.110   .     S
C804   H988    1.112   .     S
C804   H987    1.110   .     S
C804   H986    1.108   .     S
C804   N1017   1.451   .     S
C805   H991    1.111   .     S
C805   N1018   1.446   .     S
C805   H990    1.110   .     S
C805   H992    1.111   .     S
C806   C835    1.453   .     S
C806   C1206   1.403   1_455 S
C807   C836    1.453   .     S
C807   C809    1.402   .     A
C807   C1217   1.403   .     S
C808   C820    1.400   .     A
C808   C833    1.457   .     S
C808   C136    1.403   1_565 S
C809   N1002   1.429   .     S
C810   C875    1.402   .     A
C810   C834    1.458   .     S
C810   C103    1.404   1_565 S
C811   C111    1.453   1_565 S
C811   C158    1.402   1_565 S
C812   C840    1.454   .     S
C812   C46     1.403   1_565 S
C813   C1105   1.400   1_455 S
C813   C1201   1.457   1_455 S
C814   C1160   1.402   1_455 S
C814   C1202   1.458   1_455 S
C815   C821    1.404   .     A
C815   C894    1.419   .     A
C816   C819    1.404   .     A
C816   C895    1.420   .     A
C817   C823    1.407   .     A
C817   C896    1.423   .     A
C818   C822    1.402   .     A
C820   N1003   1.429   .     S
C824   C829    1.405   1_556 S
C825   C828    1.402   1_554 S
C826   C832    1.407   1_556 S
C827   C830    1.402   1_554 S
C828   C825    1.402   1_556 S
C829   C824    1.405   1_554 S
C830   C827    1.402   1_556 S
C831   N1005   1.429   .     S
C832   C826    1.407   1_554 S
C833   O1069   1.275   .     A
C833   O348    1.280   1_565 S
C834   O1026   1.277   .     A
C834   O345    1.279   1_565 S
C835   O1074   1.275   .     A
C835   O1391   1.279   1_455 S
C836   O1075   1.275   .     A
C836   O1392   1.279   .     S
C837   C1177   1.457   .     S
C837   O1393   1.275   .     S
C837   O1397   1.280   .     S
C838   O1394   1.279   .     A
C838   C1178   1.458   .     S
C838   O1398   1.277   .     S
C839   O1035   1.278   .     A
C839   O1031   1.275   .     A
C840   O304    1.277   1_565 S
C840   O309    1.277   1_565 S
C841   O1038   1.281   .     A
C841   O1066   1.282   .     A
C842   C894    1.420   .     A
C842   N1006   1.432   .     S
C842   C1170   1.403   .     S
C843   O1039   1.281   .     A
C843   O1067   1.282   .     A
C844   O1064   1.282   .     A
C844   O1040   1.282   .     A
C845   O1065   1.282   .     A
C845   O1041   1.282   .     A
C846   O1042   1.282   .     A
C846   O1071   1.282   .     A
C847   O1072   1.282   .     A
C847   O1043   1.282   .     A
C848   O1044   1.281   .     A
C848   O1068   1.281   .     A
C849   O1045   1.281   .     A
C849   O1070   1.281   .     A
C850   O1057   1.282   .     A
C850   O1046   1.282   .     A
C851   O1059   1.282   .     A
C851   O1048   1.282   .     A
C852   O1049   1.282   .     A
C852   O1055   1.281   .     A
C853   C895    1.420   .     A
C853   N1007   1.432   .     S
C853   C1171   1.403   1_455 S
C854   O1050   1.282   .     A
C854   O1056   1.281   .     A
C855   O1051   1.281   .     A
C855   O1062   1.281   .     A
C856   O1063   1.281   .     A
C856   O1052   1.281   .     A
C857   O1060   1.282   .     A
C857   O1053   1.282   .     A
C858   O1061   1.282   .     A
C858   O1054   1.282   .     A
C859   H897    1.083   .     S
C859   C876    1.386   .     A
C860   H908    1.083   .     S
C860   C874    1.386   .     A
C861   C873    1.386   .     A
C861   H919    1.083   .     S
C862   H930    1.083   .     S
C862   C872    1.386   .     A
C863   C871    1.386   .     A
C863   H941    1.083   .     S
C864   N1008   1.429   .     S
C864   C896    1.424   .     A
C865   C870    1.386   .     A
C865   H952    1.083   .     S
C866   H963    1.083   .     S
C866   C869    1.386   .     A
C867   C868    1.386   .     A
C867   H974    1.083   .     S
C868   H985    1.083   .     S
C869   H898    1.083   .     S
C870   H899    1.083   .     S
C871   H900    1.083   .     S
C872   H901    1.083   .     S
C873   H902    1.083   .     S
C874   H903    1.083   .     S
C875   N1009   1.428   .     S
C876   H904    1.083   .     S
C877   C893    1.386   .     A
C877   H905    1.083   .     S
C878   C892    1.386   .     A
C878   H906    1.083   .     S
C879   H907    1.083   .     S
C879   C891    1.386   .     A
C880   H909    1.083   .     S
C880   C890    1.386   .     A
C881   C889    1.386   .     A
C881   H910    1.083   .     S
C882   H911    1.083   .     S
C882   C888    1.386   .     A
C883   C887    1.386   .     A
C883   H912    1.083   .     S
C884   H913    1.083   .     S
C884   C885    1.386   .     A
C885   H914    1.083   .     S
C886   N1010   1.429   .     S
C887   H915    1.083   .     S
C888   H916    1.083   .     S
C889   H917    1.083   .     S
C890   H918    1.083   .     S
C891   H920    1.083   .     S
C892   H921    1.083   .     S
C893   H922    1.083   .     S
C894   C1126   1.427   .     S
C895   C1128   1.427   1_455 S
H923   N1001   1.031   .     S
H927   N1002   1.031   .     S
H932   N1003   1.030   .     S
H936   N1005   1.031   .     S
H940   N1006   1.031   .     S
H943   C1157   1.112   1_455 S
H945   N1007   1.031   .     S
H948   C1158   1.112   .     S
H949   N1008   1.031   .     S
H953   C67     1.112   1_565 S
H954   N1009   1.030   .     S
H955   C69     1.110   1_565 S
H958   N1010   1.031   .     S
H962   N1011   1.031   .     S
H967   N1012   1.030   .     S
H971   N1013   1.031   .     S
H976   N1014   1.031   .     S
H980   N1016   1.031   .     S
H984   N1017   1.031   .     S
H989   N1018   1.030   .     S
N1003  C63     1.446   1_565 S
N1009  C69     1.446   1_565 S
O1025  Zn1080  1.949   .     S
O1025  Zn1088  1.949   .     S
O1025  Zn1077  1.947   .     S
O1026  Zn1079  1.949   .     S
O1027  Zn1082  1.948   .     S
O1027  C1199   1.279   .     S
O1028  Zn1081  1.948   .     S
O1028  C1200   1.279   1_455 S
O1029  Zn1091  1.949   .     S
O1029  C1201   1.275   1_455 S
O1030  C1202   1.279   1_455 A
O1030  Zn1090  1.949   .     S
O1031  Zn1085  1.949   .     S
O1032  Zn1077  1.949   .     S
O1033  Zn1087  1.949   .     S
O1033  C1201   1.280   1_455 S
O1034  Zn1086  1.949   .     S
O1034  C1202   1.277   1_455 S
O1035  Zn1089  1.948   .     S
O1036  Zn1083  1.948   .     S
O1036  Zn1085  1.947   .     S
O1036  Zn1089  1.949   .     S
O1037  Zn1088  1.948   .     S
O1038  Zn1080  1.937   .     S
O1039  Zn1079  1.937   .     S
O1040  Zn1082  1.936   .     S
O1041  Zn1081  1.936   .     S
O1042  Zn1084  1.938   .     S
O1043  Zn1083  1.938   .     S
O1044  Zn1078  1.936   .     S
O1045  Zn1092  1.936   .     S
O1046  Zn1079  1.936   .     S
O1047  Zn1078  1.947   .     S
O1047  Zn1086  1.949   .     S
O1047  Zn1090  1.948   .     S
O1047  Zn1446  1.949   1_455 S
O1048  Zn1080  1.936   .     S
O1049  Zn1092  1.938   .     S
O1050  Zn1078  1.938   .     S
O1051  Zn1083  1.936   .     S
O1052  Zn1084  1.936   .     S
O1053  Zn1081  1.937   .     S
O1054  Zn1082  1.937   .     S
O1055  Zn1451  1.937   .     S
O1056  Zn1086  1.937   .     S
O1057  Zn361   1.936   1_565 S
O1058  Zn1087  1.949   .     S
O1058  Zn1091  1.948   .     S
O1058  Zn1081  1.949   .     S
O1058  Zn1456  1.947   1_455 S
O1059  Zn1088  1.936   .     S
O1060  Zn1091  1.938   .     S
O1061  Zn1454  1.938   .     S
O1062  Zn1085  1.936   .     S
O1063  Zn349   1.936   1_565 S
O1064  Zn1450  1.936   .     S
O1065  Zn1087  1.936   .     S
O1066  Zn1077  1.938   .     S
O1067  Zn357   1.938   1_565 S
O1068  Zn1090  1.936   .     S
O1069  Zn1084  1.949   .     S
O1070  Zn1455  1.936   .     S
O1071  Zn360   1.937   1_565 S
O1072  Zn1089  1.937   .     S
O1073  Zn1083  1.949   .     S
O1074  Zn1078  1.949   .     S
O1075  Zn1092  1.949   .     S
O1076  Zn1080  1.949   .     S
Zn1079 O308    1.949   1_565 S
Zn1082 O1411   1.949   .     S
Zn1084 O297    1.948   1_565 S
Zn1086 O1428   1.936   1_455 S
Zn1087 O1419   1.937   1_455 S
Zn1090 O1425   1.938   1_455 S
Zn1091 O1434   1.936   1_455 S
Zn1092 O1422   1.947   .     S
C1093  C1170   1.402   .     A
C1093  N1365   1.429   .     S
C1093  C1096   1.414   .     A
C1094  C1106   1.417   .     A
C1094  C1176   1.403   .     A
C1094  N1375   1.429   .     S
C1095  C1239   1.416   .     A
C1095  C1182   1.420   .     A
C1095  C1130   1.425   .     A
C1096  C1126   1.422   .     A
C1096  C1183   1.419   .     A
C1097  C1128   1.422   .     A
C1097  C1173   1.414   .     A
C1097  C1185   1.419   .     A
C1098  C1186   1.420   .     A
C1098  C1184   1.413   .     A
C1098  C1129   1.424   .     A
C1099  C1195   1.420   .     A
C1099  C1187   1.420   .     A
C1100  C1127   1.420   .     A
C1100  C1188   1.421   .     A
C1100  C1131   1.427   .     A
C1101  C1138   1.416   .     A
C1101  C1189   1.419   .     A
C1102  C1133   1.428   .     A
C1102  C1190   1.423   .     A
C1102  C1149   1.424   .     A
C1103  C1191   1.420   .     A
C1103  C1160   1.416   .     A
C1103  C770    1.425   1_655 S
C1104  C1250   1.414   .     A
C1104  C1192   1.420   .     A
C1105  N1376   1.429   .     S
C1105  C1107   1.413   .     A
C1105  C813    1.400   1_655 S
C1106  C1132   1.422   .     A
C1106  C1193   1.419   .     A
C1107  C1194   1.420   .     A
C1107  C769    1.424   1_655 S
C1108  C1196   1.420   .     A
C1108  C1116   1.420   .     A
C1108  C1134   1.423   .     A
C1109  C1212   1.455   .     S
C1109  C1240   1.402   .     A
C1109  C1242   1.402   .     A
C1110  C1213   1.455   .     S
C1110  C1241   1.402   .     A
C1110  C1238   1.402   .     A
C1111  C1205   1.456   .     S
C1111  C1237   1.402   .     A
C1111  C1244   1.402   .     A
C1112  C1236   1.402   .     A
C1112  C1243   1.402   .     A
C1112  C1207   1.456   .     S
C1113  C1208   1.455   .     S
C1113  C1235   1.402   .     A
C1113  C1246   1.402   .     A
C1114  C1234   1.402   .     A
C1114  C1245   1.402   .     A
C1114  C1209   1.455   .     S
C1115  C1210   1.456   .     S
C1115  C1233   1.402   .     A
C1115  C1248   1.402   .     A
C1116  C1178   1.404   .     A
C1116  N1377   1.429   .     S
C1117  C1232   1.402   .     A
C1117  C1211   1.456   .     S
C1117  C1247   1.402   .     A
C1118  C1231   1.402   .     A
C1118  C1251   1.402   .     A
C1118  C1221   1.456   .     S
C1119  C1230   1.402   .     A
C1119  C1249   1.402   .     A
C1119  C1222   1.456   .     S
C1120  C1229   1.402   .     A
C1120  C1214   1.455   .     S
C1120  C1253   1.402   .     A
C1121  C1227   1.402   .     A
C1121  C1252   1.402   .     A
C1121  C1215   1.455   .     S
C1122  C1226   1.402   .     A
C1122  C1255   1.402   .     A
C1122  C1216   1.456   .     S
C1123  C1254   1.402   .     A
C1123  C1225   1.402   .     A
C1123  C1218   1.456   .     S
C1124  C1219   1.455   .     S
C1124  C1257   1.402   .     A
C1124  C1224   1.402   .     A
C1125  C1256   1.402   .     A
C1125  C1223   1.402   .     A
C1125  C1220   1.455   .     S
C1127  N1378   1.432   .     S
C1127  C1175   1.403   .     A
C1128  C762    1.417   1_655 S
C1128  C895    1.427   1_655 S
C1129  C1130   1.419   .     A
C1129  C532    1.428   1_565 S
C1130  C371    1.423   1_565 S
C1131  C376    1.424   1_565 S
C1131  C1132   1.416   1_556 S
C1132  C373    1.424   1_565 S
C1132  C1131   1.416   1_554 S
C1133  C1134   1.419   1_556 S
C1134  C1133   1.419   1_554 S
C1135  N1357   1.157   .     T
C1135  C1179   1.454   .     S
C1136  N1368   1.157   .     T
C1136  C1180   1.454   .     S
C1137  N1379   1.158   .     T
C1137  C1181   1.454   .     S
C1138  N1380   1.429   .     S
C1139  N1383   1.158   .     T
C1139  C1182   1.456   .     S
C1140  C1183   1.457   .     S
C1140  N1384   1.158   .     T
C1141  N1385   1.158   .     T
C1141  C1185   1.457   .     S
C1142  N1386   1.158   .     T
C1142  C1186   1.457   .     S
C1143  C1187   1.457   .     S
C1143  N1387   1.158   .     T
C1144  N1388   1.158   .     T
C1144  C1188   1.454   .     S
C1145  N1358   1.158   .     T
C1145  C1189   1.456   .     S
C1146  N1359   1.158   .     T
C1146  C1190   1.454   .     S
C1147  N1360   1.158   .     T
C1147  C1191   1.457   .     S
C1148  N1361   1.158   .     T
C1148  C1192   1.456   .     S
C1149  C1177   1.403   .     A
C1149  N1381   1.429   .     S
C1150  C1193   1.457   .     S
C1150  N1362   1.158   .     T
C1151  C1194   1.457   .     S
C1151  N1363   1.158   .     T
C1152  N1364   1.158   .     T
C1152  C1196   1.457   .     S
C1153  H1289   1.111   .     S
C1153  H1288   1.110   .     S
C1153  H1290   1.111   .     S
C1153  N1365   1.447   .     S
C1154  H1293   1.111   .     S
C1154  N1366   1.447   .     S
C1154  H1292   1.110   .     S
C1154  H1295   1.111   .     S
C1155  H1298   1.111   .     S
C1155  H1299   1.111   .     S
C1155  H1297   1.110   .     S
C1156  H1302   1.110   .     S
C1156  H1301   1.110   .     S
C1156  H1303   1.111   .     S
C1156  N1369   1.448   .     S
C1157  N1370   1.452   .     S
C1157  H1306   1.108   .     S
C1157  H1308   1.110   .     S
C1157  H943    1.112   1_655 S
C1158  H1311   1.110   .     S
C1158  N1371   1.452   .     S
C1158  H1310   1.108   .     S
C1159  H1315   1.110   .     S
C1159  H1314   1.108   .     S
C1159  N1372   1.451   .     S
C1160  N1382   1.428   .     S
C1160  C814    1.402   1_655 S
C1161  H1321   1.111   .     S
C1161  H1320   1.111   .     S
C1162  N1374   1.447   .     S
C1162  H1323   1.110   .     S
C1162  H1325   1.111   .     S
C1162  H1324   1.111   .     S
C1163  H1330   1.111   .     S
C1163  N1375   1.447   .     S
C1163  H1329   1.111   .     S
C1163  H1328   1.110   .     S
C1164  N1376   1.446   .     S
C1164  H1334   1.111   .     S
C1164  H1332   1.110   .     S
C1164  H1333   1.111   .     S
C1165  H1337   1.110   .     S
C1165  H1339   1.111   .     S
C1165  H1336   1.110   .     S
C1165  N1377   1.448   .     S
C1166  N1378   1.452   .     S
C1166  H1343   1.110   .     S
C1166  H1341   1.108   .     S
C1166  H1342   1.112   .     S
C1167  H1346   1.111   .     S
C1167  N1380   1.447   .     S
C1167  H1347   1.111   .     S
C1167  H1345   1.110   .     S
C1168  H1352   1.112   .     S
C1168  H1351   1.110   .     S
C1168  H1350   1.108   .     S
C1168  N1381   1.451   .     S
C1169  H1355   1.111   .     S
C1169  N1382   1.446   .     S
C1169  H1354   1.110   .     S
C1169  H1356   1.111   .     S
C1170  C1199   1.453   .     S
C1171  C1200   1.453   .     S
C1171  C1173   1.402   .     A
C1171  C853    1.403   1_655 S
C1172  C1184   1.400   .     A
C1172  C1197   1.457   .     S
C1172  C500    1.403   1_565 S
C1173  N1366   1.429   .     S
C1174  C1239   1.402   .     A
C1174  C1198   1.458   .     S
C1174  C467    1.404   1_565 S
C1175  C475    1.453   1_565 S
C1175  C522    1.402   1_565 S
C1176  C1204   1.454   .     S
C1176  C410    1.403   1_565 S
C1179  C1185   1.404   .     A
C1179  C1258   1.419   .     A
C1180  C1183   1.404   .     A
C1180  C1259   1.420   .     A
C1181  C1187   1.407   .     A
C1181  C1260   1.423   .     A
C1182  C1186   1.402   .     A
C1184  N1367   1.429   .     S
C1188  C1193   1.405   1_556 S
C1189  C1192   1.402   1_554 S
C1190  C1196   1.407   1_556 S
C1191  C1194   1.402   1_554 S
C1192  C1189   1.402   1_556 S
C1193  C1188   1.405   1_554 S
C1194  C1191   1.402   1_556 S
C1195  N1369   1.429   .     S
C1196  C1190   1.407   1_554 S
C1197  O1433   1.275   .     A
C1197  O712    1.280   1_565 S
C1198  O1390   1.277   .     A
C1198  O709    1.279   1_565 S
C1199  O1438   1.275   .     A
C1200  O1439   1.275   .     A
C1200  O1028   1.279   1_655 S
C1201  C813    1.457   1_655 S
C1201  O1029   1.275   1_655 S
C1201  O1033   1.280   1_655 S
C1202  O1030   1.279   1_655 A
C1202  C814    1.458   1_655 S
C1202  O1034   1.277   1_655 S
C1203  O1399   1.278   .     A
C1203  O1395   1.275   .     A
C1204  O668    1.277   1_565 S
C1204  O673    1.277   1_565 S
C1205  O1402   1.281   .     A
C1205  O1430   1.282   .     A
C1206  C1258   1.420   .     A
C1206  N1370   1.432   .     S
C1206  C806    1.403   1_655 S
C1207  O1403   1.281   .     A
C1207  O1431   1.282   .     A
C1208  O1428   1.282   .     A
C1208  O1404   1.282   .     A
C1209  O1429   1.282   .     A
C1209  O1405   1.282   .     A
C1210  O1406   1.282   .     A
C1210  O1435   1.282   .     A
C1211  O1436   1.282   .     A
C1211  O1407   1.282   .     A
C1212  O1408   1.281   .     A
C1212  O1432   1.281   .     A
C1213  O1409   1.281   .     A
C1213  O1434   1.281   .     A
C1214  O1421   1.282   .     A
C1214  O1410   1.282   .     A
C1215  O1423   1.282   .     A
C1215  O1412   1.282   .     A
C1216  O1413   1.282   .     A
C1216  O1419   1.281   .     A
C1217  C1259   1.420   .     A
C1217  N1371   1.432   .     S
C1218  O1414   1.282   .     A
C1218  O1420   1.281   .     A
C1219  O1415   1.281   .     A
C1219  O1426   1.281   .     A
C1220  O1427   1.281   .     A
C1220  O1416   1.281   .     A
C1221  O1424   1.282   .     A
C1221  O1417   1.282   .     A
C1222  O1425   1.282   .     A
C1222  O1418   1.282   .     A
C1223  H1261   1.083   .     S
C1223  C1240   1.386   .     A
C1224  H1272   1.083   .     S
C1224  C1238   1.386   .     A
C1225  C1237   1.386   .     A
C1225  H1283   1.083   .     S
C1226  H1294   1.083   .     S
C1226  C1236   1.386   .     A
C1227  C1235   1.386   .     A
C1227  H1305   1.083   .     S
C1228  N1372   1.429   .     S
C1228  C1260   1.424   .     A
C1229  C1234   1.386   .     A
C1229  H1316   1.083   .     S
C1230  H1327   1.083   .     S
C1230  C1233   1.386   .     A
C1231  C1232   1.386   .     A
C1231  H1338   1.083   .     S
C1232  H1349   1.083   .     S
C1233  H1262   1.083   .     S
C1234  H1263   1.083   .     S
C1235  H1264   1.083   .     S
C1236  H1265   1.083   .     S
C1237  H1266   1.083   .     S
C1238  H1267   1.083   .     S
C1239  N1373   1.428   .     S
C1240  H1268   1.083   .     S
C1241  C1257   1.386   .     A
C1241  H1269   1.083   .     S
C1242  C1256   1.386   .     A
C1242  H1270   1.083   .     S
C1243  H1271   1.083   .     S
C1243  C1255   1.386   .     A
C1244  H1273   1.083   .     S
C1244  C1254   1.386   .     A
C1245  C1253   1.386   .     A
C1245  H1274   1.083   .     S
C1246  H1275   1.083   .     S
C1246  C1252   1.386   .     A
C1247  C1251   1.386   .     A
C1247  H1276   1.083   .     S
C1248  H1277   1.083   .     S
C1248  C1249   1.386   .     A
C1249  H1278   1.083   .     S
C1250  N1374   1.429   .     S
C1251  H1279   1.083   .     S
C1252  H1280   1.083   .     S
C1253  H1281   1.083   .     S
C1254  H1282   1.083   .     S
C1255  H1284   1.083   .     S
C1256  H1285   1.083   .     S
C1257  H1286   1.083   .     S
C1258  C762    1.427   1_655 S
H1287  N1365   1.031   .     S
H1291  N1366   1.031   .     S
H1296  N1367   1.030   .     S
H1300  N1369   1.031   .     S
H1304  N1370   1.031   .     S
H1309  N1371   1.031   .     S
H1312  C794    1.112   1_655 S
H1313  N1372   1.031   .     S
H1317  C431    1.112   1_565 S
H1318  N1373   1.030   .     S
H1319  C433    1.110   1_565 S
H1322  N1374   1.031   .     S
H1326  N1375   1.031   .     S
H1331  N1376   1.030   .     S
H1335  N1377   1.031   .     S
H1340  N1378   1.031   .     S
H1344  N1380   1.031   .     S
H1348  N1381   1.031   .     S
H1353  N1382   1.030   .     S
N1367  C427    1.446   1_565 S
N1373  C433    1.446   1_565 S
O1389  Zn1444  1.949   .     S
O1389  Zn1452  1.949   .     S
O1389  Zn1441  1.947   .     S
O1390  Zn1443  1.949   .     S
O1391  Zn1446  1.948   .     S
O1391  C835    1.279   1_655 S
O1392  Zn1445  1.948   .     S
O1393  Zn1455  1.949   .     S
O1394  Zn1454  1.949   .     S
O1395  Zn1449  1.949   .     S
O1396  Zn1441  1.949   .     S
O1397  Zn1451  1.949   .     S
O1398  Zn1450  1.949   .     S
O1399  Zn1453  1.948   .     S
O1400  Zn1447  1.948   .     S
O1400  Zn1449  1.947   .     S
O1400  Zn1453  1.949   .     S
O1401  Zn1452  1.948   .     S
O1402  Zn1444  1.937   .     S
O1403  Zn1443  1.937   .     S
O1404  Zn1446  1.936   .     S
O1405  Zn1445  1.936   .     S
O1406  Zn1448  1.938   .     S
O1407  Zn1447  1.938   .     S
O1408  Zn1442  1.936   .     S
O1409  Zn1456  1.936   .     S
O1410  Zn1443  1.936   .     S
O1411  Zn1442  1.947   .     S
O1411  Zn1450  1.949   .     S
O1411  Zn1454  1.948   .     S
O1412  Zn1444  1.936   .     S
O1413  Zn1456  1.938   .     S
O1414  Zn1442  1.938   .     S
O1415  Zn1447  1.936   .     S
O1416  Zn1448  1.936   .     S
O1417  Zn1445  1.937   .     S
O1418  Zn1446  1.937   .     S
O1419  Zn1087  1.937   1_655 S
O1420  Zn1450  1.937   .     S
O1421  Zn725   1.936   1_565 S
O1422  Zn1451  1.949   .     S
O1422  Zn1455  1.948   .     S
O1422  Zn1445  1.949   .     S
O1423  Zn1452  1.936   .     S
O1424  Zn1455  1.938   .     S
O1425  Zn1090  1.938   1_655 S
O1426  Zn1449  1.936   .     S
O1427  Zn713   1.936   1_565 S
O1428  Zn1086  1.936   1_655 S
O1429  Zn1451  1.936   .     S
O1430  Zn1441  1.938   .     S
O1431  Zn721   1.938   1_565 S
O1432  Zn1454  1.936   .     S
O1433  Zn1448  1.949   .     S
O1434  Zn1091  1.936   1_655 S
O1435  Zn724   1.937   1_565 S
O1436  Zn1453  1.937   .     S
O1437  Zn1447  1.949   .     S
O1438  Zn1442  1.949   .     S
O1439  Zn1456  1.949   .     S
O1440  Zn1444  1.949   .     S
Zn1443 O672    1.949   1_565 S
Zn1446 O1047   1.949   1_655 S
Zn1448 O661    1.948   1_565 S
Zn1456 O1058   1.947   1_655 S
