data_str_m3_o2_o10_pcu_sym.130
_audit_creation_date              2020-01-03
_audit_creation_method            'Materials Studio'
_symmetry_space_group_name_H-M    'P1'
_symmetry_Int_Tables_number       1
_symmetry_cell_setting            triclinic
loop_
_symmetry_equiv_pos_as_xyz
  x,y,z
_cell_length_a                    25.7210
_cell_length_b                    29.9295
_cell_length_c                    28.5911
_cell_angle_alpha                 88.8692
_cell_angle_beta                  97.6406
_cell_angle_gamma                 92.1777
loop_
_atom_site_label
_atom_site_type_symbol
_atom_site_fract_x
_atom_site_fract_y
_atom_site_fract_z
_atom_site_U_iso_or_equiv
_atom_site_adp_type
_atom_site_occupancy
C1     C     0.16665   0.16420   0.25028   0.00000  Uiso   1.00
C2     C     0.16757   0.33605   0.24982   0.00000  Uiso   1.00
C3     C     0.14817   0.21101   0.05194   0.00000  Uiso   1.00
C4     C     0.21183   0.26899   0.45134   0.00000  Uiso   1.00
C5     C     0.14554   0.21387   0.10096   0.00000  Uiso   1.00
C6     C     0.20796   0.27035   0.40139   0.00000  Uiso   1.00
C7     C     0.19186   0.28399   0.10265   0.00000  Uiso   1.00
C8     C     0.12923   0.22601   0.39624   0.00000  Uiso   1.00
C9     C     0.19345   0.28209   0.05374   0.00000  Uiso   1.00
C10    C     0.13117   0.22641   0.44554   0.00000  Uiso   1.00
C11    C     0.17232   0.24583   0.02736   0.00000  Uiso   1.00
C12    C     0.17258   0.24671   0.47430   0.00000  Uiso   1.00
C13    C     0.06722   0.25042   0.23775   0.00000  Uiso   1.00
C14    C     0.26614   0.25138   0.26207   0.00000  Uiso   1.00
C15    C     0.01229   0.24967   0.23097   0.00000  Uiso   1.00
C16    C     0.32104   0.25571   0.26800   0.00000  Uiso   1.00
C17    C     0.11588   0.04725   0.24275   0.00000  Uiso   1.00
C18    C     0.12833   0.45110   0.21501   0.00000  Uiso   1.00
C19    C     0.11784   0.09343   0.24475   0.00000  Uiso   1.00
C20    C     0.13082   0.40499   0.21622   0.00000  Uiso   1.00
C21    C     0.16640   0.11655   0.25034   0.00000  Uiso   1.00
C22    C     0.16754   0.38411   0.24934   0.00000  Uiso   1.00
C23    C     0.21355   0.09410   0.25199   0.00000  Uiso   1.00
C24    C     0.20176   0.40953   0.28222   0.00000  Uiso   1.00
C25    C     0.21113   0.04798   0.24883   0.00000  Uiso   1.00
C26    C     0.19756   0.45546   0.28150   0.00000  Uiso   1.00
C27    C     0.16267   0.02457   0.24543   0.00000  Uiso   1.00
C28    C     0.16212   0.47626   0.24746   0.00000  Uiso   1.00
H29    H     0.32552   0.24264   0.19580   0.00000  Uiso   1.00
H30    H     0.00788   0.26444   0.30251   0.00000  Uiso   1.00
N31    N     0.16667   0.24999   0.12624   0.00000  Uiso   1.00
N32    N     0.16667   0.25001   0.37377   0.00000  Uiso   1.00
O33    O     0.16667   0.18454   0.28974   0.00000  Uiso   1.00
O34    O     0.16666   0.31547   0.21026   0.00000  Uiso   1.00
O35    O     0.16667   0.18453   0.21026   0.00000  Uiso   1.00
O36    O     0.16666   0.31547   0.28974   0.00000  Uiso   1.00
O37    O     0.09058   0.25000   0.28045   0.00000  Uiso   1.00
O38    O     0.24275   0.25000   0.21956   0.00000  Uiso   1.00
O39    O     0.09058   0.25000   0.20097   0.00000  Uiso   1.00
O40    O     0.24275   0.25001   0.29904   0.00000  Uiso   1.00
Zn41   Zn    0.16667   0.25001   0.30307   0.00000  Uiso   1.00
Zn42   Zn    0.16667   0.25000   0.19693   0.00000  Uiso   1.00
H43    H     0.07825   0.02929   0.24000   0.00000  Uiso   1.00
H44    H     0.10077   0.46709   0.18854   0.00000  Uiso   1.00
H45    H     0.08166   0.11122   0.24180   0.00000  Uiso   1.00
H46    H     0.10398   0.38552   0.19142   0.00000  Uiso   1.00
S47    S     0.27554   0.12256   0.25793   0.00000  Uiso   1.00
O48    O     0.28094   0.15158   0.30069   0.00000  Uiso   1.00
O49    O     0.31897   0.08990   0.26347   0.00000  Uiso   1.00
O50    O     0.28028   0.15490   0.20986   0.00000  Uiso   1.00
H51    H     0.27382   0.13417   0.18296   0.00000  Uiso   1.00
S52    S     0.25074   0.38645   0.32424   0.00000  Uiso   1.00
O53    O     0.27321   0.34612   0.30511   0.00000  Uiso   1.00
O54    O     0.29431   0.42075   0.33707   0.00000  Uiso   1.00
O55    O     0.22331   0.37209   0.37280   0.00000  Uiso   1.00
H56    H     0.25309   0.37018   0.39849   0.00000  Uiso   1.00
H57    H     0.24700   0.03000   0.24962   0.00000  Uiso   1.00
H58    H     0.22259   0.47542   0.30724   0.00000  Uiso   1.00
H59    H     0.13151   0.18143   0.03367   0.00000  Uiso   1.00
H60    H     0.24576   0.28493   0.47163   0.00000  Uiso   1.00
H61    H     0.12692   0.18670   0.11878   0.00000  Uiso   1.00
H62    H     0.23907   0.28676   0.38484   0.00000  Uiso   1.00
S63    S     0.22134   0.33400   0.12877   0.00000  Uiso   1.00
O64    O     0.25604   0.35651   0.09630   0.00000  Uiso   1.00
O65    O     0.17857   0.36530   0.13490   0.00000  Uiso   1.00
O66    O     0.25899   0.32551   0.18047   0.00000  Uiso   1.00
H67    H     0.26871   0.35580   0.19286   0.00000  Uiso   1.00
S68    S     0.07613   0.19103   0.36958   0.00000  Uiso   1.00
O69    O     0.07359   0.14996   0.40054   0.00000  Uiso   1.00
O70    O     0.02627   0.21526   0.37066   0.00000  Uiso   1.00
O71    O     0.07810   0.17321   0.31484   0.00000  Uiso   1.00
H72    H     0.05560   0.14560   0.31205   0.00000  Uiso   1.00
H73    H     0.21011   0.31003   0.03557   0.00000  Uiso   1.00
H74    H     0.09953   0.21021   0.46171   0.00000  Uiso   1.00
C75    C     0.49998   0.16420   0.25028   0.00000  Uiso   1.00
C76    C     0.50090   0.33605   0.24982   0.00000  Uiso   1.00
C77    C     0.48150   0.21101   0.05194   0.00000  Uiso   1.00
C78    C     0.54516   0.26899   0.45134   0.00000  Uiso   1.00
C79    C     0.47887   0.21387   0.10096   0.00000  Uiso   1.00
C80    C     0.54130   0.27035   0.40139   0.00000  Uiso   1.00
C81    C     0.52519   0.28399   0.10265   0.00000  Uiso   1.00
C82    C     0.46256   0.22601   0.39624   0.00000  Uiso   1.00
C83    C     0.52678   0.28209   0.05374   0.00000  Uiso   1.00
C84    C     0.46450   0.22641   0.44554   0.00000  Uiso   1.00
C85    C     0.50565   0.24583   0.02736   0.00000  Uiso   1.00
C86    C     0.50591   0.24671   0.47430   0.00000  Uiso   1.00
C87    C     0.40056   0.25042   0.23775   0.00000  Uiso   1.00
C88    C     0.59947   0.25138   0.26207   0.00000  Uiso   1.00
C89    C     0.34562   0.24967   0.23097   0.00000  Uiso   1.00
C90    C     0.65437   0.25571   0.26800   0.00000  Uiso   1.00
C91    C     0.44921   0.04725   0.24275   0.00000  Uiso   1.00
C92    C     0.46167   0.45110   0.21501   0.00000  Uiso   1.00
C93    C     0.45117   0.09343   0.24475   0.00000  Uiso   1.00
C94    C     0.46416   0.40499   0.21622   0.00000  Uiso   1.00
C95    C     0.49974   0.11655   0.25034   0.00000  Uiso   1.00
C96    C     0.50087   0.38411   0.24934   0.00000  Uiso   1.00
C97    C     0.54688   0.09410   0.25199   0.00000  Uiso   1.00
C98    C     0.53509   0.40953   0.28222   0.00000  Uiso   1.00
C99    C     0.54446   0.04798   0.24883   0.00000  Uiso   1.00
C100   C     0.53090   0.45546   0.28150   0.00000  Uiso   1.00
C101   C     0.49600   0.02457   0.24543   0.00000  Uiso   1.00
C102   C     0.49545   0.47626   0.24746   0.00000  Uiso   1.00
H103   H     0.65885   0.24264   0.19580   0.00000  Uiso   1.00
H104   H     0.34122   0.26444   0.30251   0.00000  Uiso   1.00
N105   N     0.50000   0.24999   0.12624   0.00000  Uiso   1.00
N106   N     0.50000   0.25001   0.37377   0.00000  Uiso   1.00
O107   O     0.50000   0.18454   0.28974   0.00000  Uiso   1.00
O108   O     0.50000   0.31547   0.21026   0.00000  Uiso   1.00
O109   O     0.50000   0.18453   0.21026   0.00000  Uiso   1.00
O110   O     0.50000   0.31547   0.28974   0.00000  Uiso   1.00
O111   O     0.42392   0.25000   0.28045   0.00000  Uiso   1.00
O112   O     0.57608   0.25000   0.21956   0.00000  Uiso   1.00
O113   O     0.42392   0.25000   0.20097   0.00000  Uiso   1.00
O114   O     0.57608   0.25001   0.29904   0.00000  Uiso   1.00
Zn115  Zn    0.50000   0.25001   0.30307   0.00000  Uiso   1.00
Zn116  Zn    0.50000   0.25000   0.19693   0.00000  Uiso   1.00
H117   H     0.41158   0.02929   0.24000   0.00000  Uiso   1.00
H118   H     0.43410   0.46709   0.18854   0.00000  Uiso   1.00
H119   H     0.41500   0.11122   0.24180   0.00000  Uiso   1.00
H120   H     0.43731   0.38552   0.19142   0.00000  Uiso   1.00
S121   S     0.60887   0.12256   0.25793   0.00000  Uiso   1.00
O122   O     0.61427   0.15158   0.30069   0.00000  Uiso   1.00
O123   O     0.65231   0.08990   0.26347   0.00000  Uiso   1.00
O124   O     0.61361   0.15490   0.20986   0.00000  Uiso   1.00
H125   H     0.60715   0.13417   0.18296   0.00000  Uiso   1.00
S126   S     0.58407   0.38645   0.32424   0.00000  Uiso   1.00
O127   O     0.60654   0.34612   0.30511   0.00000  Uiso   1.00
O128   O     0.62764   0.42075   0.33707   0.00000  Uiso   1.00
O129   O     0.55664   0.37209   0.37280   0.00000  Uiso   1.00
H130   H     0.58642   0.37018   0.39849   0.00000  Uiso   1.00
H131   H     0.58034   0.03000   0.24962   0.00000  Uiso   1.00
H132   H     0.55593   0.47542   0.30724   0.00000  Uiso   1.00
H133   H     0.46484   0.18143   0.03367   0.00000  Uiso   1.00
H134   H     0.57909   0.28493   0.47163   0.00000  Uiso   1.00
H135   H     0.46025   0.18670   0.11878   0.00000  Uiso   1.00
H136   H     0.57240   0.28676   0.38484   0.00000  Uiso   1.00
S137   S     0.55467   0.33400   0.12877   0.00000  Uiso   1.00
O138   O     0.58937   0.35651   0.09630   0.00000  Uiso   1.00
O139   O     0.51190   0.36530   0.13490   0.00000  Uiso   1.00
O140   O     0.59232   0.32551   0.18047   0.00000  Uiso   1.00
H141   H     0.60205   0.35580   0.19286   0.00000  Uiso   1.00
S142   S     0.40946   0.19103   0.36958   0.00000  Uiso   1.00
O143   O     0.40692   0.14996   0.40054   0.00000  Uiso   1.00
O144   O     0.35961   0.21526   0.37066   0.00000  Uiso   1.00
O145   O     0.41143   0.17321   0.31484   0.00000  Uiso   1.00
H146   H     0.38893   0.14560   0.31205   0.00000  Uiso   1.00
H147   H     0.54345   0.31003   0.03557   0.00000  Uiso   1.00
H148   H     0.43287   0.21021   0.46171   0.00000  Uiso   1.00
C149   C     0.83331   0.16420   0.25028   0.00000  Uiso   1.00
C150   C     0.83424   0.33605   0.24982   0.00000  Uiso   1.00
C151   C     0.81484   0.21101   0.05194   0.00000  Uiso   1.00
C152   C     0.87850   0.26899   0.45134   0.00000  Uiso   1.00
C153   C     0.81221   0.21387   0.10096   0.00000  Uiso   1.00
C154   C     0.87463   0.27035   0.40139   0.00000  Uiso   1.00
C155   C     0.85853   0.28399   0.10265   0.00000  Uiso   1.00
C156   C     0.79589   0.22601   0.39624   0.00000  Uiso   1.00
C157   C     0.86011   0.28209   0.05374   0.00000  Uiso   1.00
C158   C     0.79784   0.22641   0.44554   0.00000  Uiso   1.00
C159   C     0.83898   0.24583   0.02736   0.00000  Uiso   1.00
C160   C     0.83924   0.24671   0.47430   0.00000  Uiso   1.00
C161   C     0.73389   0.25042   0.23775   0.00000  Uiso   1.00
C162   C     0.93280   0.25138   0.26207   0.00000  Uiso   1.00
C163   C     0.67896   0.24967   0.23097   0.00000  Uiso   1.00
C164   C     0.98770   0.25571   0.26800   0.00000  Uiso   1.00
C165   C     0.78254   0.04725   0.24275   0.00000  Uiso   1.00
C166   C     0.79500   0.45110   0.21501   0.00000  Uiso   1.00
C167   C     0.78451   0.09343   0.24475   0.00000  Uiso   1.00
C168   C     0.79749   0.40499   0.21622   0.00000  Uiso   1.00
C169   C     0.83307   0.11655   0.25034   0.00000  Uiso   1.00
C170   C     0.83421   0.38411   0.24934   0.00000  Uiso   1.00
C171   C     0.88021   0.09410   0.25199   0.00000  Uiso   1.00
C172   C     0.86843   0.40953   0.28222   0.00000  Uiso   1.00
C173   C     0.87780   0.04798   0.24883   0.00000  Uiso   1.00
C174   C     0.86423   0.45546   0.28150   0.00000  Uiso   1.00
C175   C     0.82933   0.02457   0.24543   0.00000  Uiso   1.00
C176   C     0.82878   0.47626   0.24746   0.00000  Uiso   1.00
H177   H     0.99219   0.24264   0.19580   0.00000  Uiso   1.00
H178   H     0.67455   0.26444   0.30251   0.00000  Uiso   1.00
N179   N     0.83333   0.24999   0.12624   0.00000  Uiso   1.00
N180   N     0.83333   0.25001   0.37377   0.00000  Uiso   1.00
O181   O     0.83334   0.18454   0.28974   0.00000  Uiso   1.00
O182   O     0.83333   0.31547   0.21026   0.00000  Uiso   1.00
O183   O     0.83334   0.18453   0.21026   0.00000  Uiso   1.00
O184   O     0.83333   0.31547   0.28974   0.00000  Uiso   1.00
O185   O     0.75725   0.25000   0.28045   0.00000  Uiso   1.00
O186   O     0.90942   0.25000   0.21956   0.00000  Uiso   1.00
O187   O     0.75725   0.25000   0.20097   0.00000  Uiso   1.00
O188   O     0.90942   0.25001   0.29904   0.00000  Uiso   1.00
Zn189  Zn    0.83333   0.25001   0.30307   0.00000  Uiso   1.00
Zn190  Zn    0.83333   0.25000   0.19693   0.00000  Uiso   1.00
H191   H     0.74491   0.02929   0.24000   0.00000  Uiso   1.00
H192   H     0.76743   0.46709   0.18854   0.00000  Uiso   1.00
H193   H     0.74833   0.11122   0.24180   0.00000  Uiso   1.00
H194   H     0.77065   0.38552   0.19142   0.00000  Uiso   1.00
S195   S     0.94221   0.12256   0.25793   0.00000  Uiso   1.00
O196   O     0.94760   0.15158   0.30069   0.00000  Uiso   1.00
O197   O     0.98564   0.08990   0.26347   0.00000  Uiso   1.00
O198   O     0.94694   0.15490   0.20986   0.00000  Uiso   1.00
H199   H     0.94049   0.13417   0.18296   0.00000  Uiso   1.00
S200   S     0.91741   0.38645   0.32424   0.00000  Uiso   1.00
O201   O     0.93988   0.34612   0.30511   0.00000  Uiso   1.00
O202   O     0.96097   0.42075   0.33707   0.00000  Uiso   1.00
O203   O     0.88998   0.37209   0.37280   0.00000  Uiso   1.00
H204   H     0.91976   0.37018   0.39849   0.00000  Uiso   1.00
H205   H     0.91367   0.03000   0.24962   0.00000  Uiso   1.00
H206   H     0.88926   0.47542   0.30724   0.00000  Uiso   1.00
H207   H     0.79817   0.18143   0.03367   0.00000  Uiso   1.00
H208   H     0.91242   0.28493   0.47163   0.00000  Uiso   1.00
H209   H     0.79359   0.18670   0.11878   0.00000  Uiso   1.00
H210   H     0.90574   0.28676   0.38484   0.00000  Uiso   1.00
S211   S     0.88800   0.33400   0.12877   0.00000  Uiso   1.00
O212   O     0.92271   0.35651   0.09630   0.00000  Uiso   1.00
O213   O     0.84524   0.36530   0.13490   0.00000  Uiso   1.00
O214   O     0.92565   0.32551   0.18047   0.00000  Uiso   1.00
H215   H     0.93538   0.35580   0.19286   0.00000  Uiso   1.00
S216   S     0.74279   0.19103   0.36958   0.00000  Uiso   1.00
O217   O     0.74026   0.14996   0.40054   0.00000  Uiso   1.00
O218   O     0.69294   0.21526   0.37066   0.00000  Uiso   1.00
O219   O     0.74476   0.17321   0.31484   0.00000  Uiso   1.00
H220   H     0.72227   0.14560   0.31205   0.00000  Uiso   1.00
H221   H     0.87678   0.31003   0.03557   0.00000  Uiso   1.00
H222   H     0.76620   0.21021   0.46171   0.00000  Uiso   1.00
C223   C     0.16665   0.66420   0.25028   0.00000  Uiso   1.00
C224   C     0.16757   0.83605   0.24982   0.00000  Uiso   1.00
C225   C     0.14817   0.71101   0.05194   0.00000  Uiso   1.00
C226   C     0.21183   0.76899   0.45134   0.00000  Uiso   1.00
C227   C     0.14554   0.71387   0.10096   0.00000  Uiso   1.00
C228   C     0.20796   0.77035   0.40139   0.00000  Uiso   1.00
C229   C     0.19186   0.78399   0.10265   0.00000  Uiso   1.00
C230   C     0.12923   0.72601   0.39624   0.00000  Uiso   1.00
C231   C     0.19345   0.78209   0.05374   0.00000  Uiso   1.00
C232   C     0.13117   0.72641   0.44554   0.00000  Uiso   1.00
C233   C     0.17232   0.74583   0.02736   0.00000  Uiso   1.00
C234   C     0.17258   0.74671   0.47430   0.00000  Uiso   1.00
C235   C     0.06722   0.75042   0.23775   0.00000  Uiso   1.00
C236   C     0.26614   0.75138   0.26207   0.00000  Uiso   1.00
C237   C     0.01229   0.74967   0.23097   0.00000  Uiso   1.00
C238   C     0.32104   0.75571   0.26800   0.00000  Uiso   1.00
C239   C     0.11588   0.54725   0.24275   0.00000  Uiso   1.00
C240   C     0.12833   0.95110   0.21501   0.00000  Uiso   1.00
C241   C     0.11784   0.59343   0.24475   0.00000  Uiso   1.00
C242   C     0.13082   0.90499   0.21622   0.00000  Uiso   1.00
C243   C     0.16640   0.61655   0.25034   0.00000  Uiso   1.00
C244   C     0.16754   0.88411   0.24934   0.00000  Uiso   1.00
C245   C     0.21355   0.59410   0.25199   0.00000  Uiso   1.00
C246   C     0.20176   0.90953   0.28222   0.00000  Uiso   1.00
C247   C     0.21113   0.54798   0.24883   0.00000  Uiso   1.00
C248   C     0.19756   0.95546   0.28150   0.00000  Uiso   1.00
C249   C     0.16267   0.52457   0.24543   0.00000  Uiso   1.00
C250   C     0.16212   0.97626   0.24746   0.00000  Uiso   1.00
H251   H     0.32552   0.74264   0.19580   0.00000  Uiso   1.00
H252   H     0.00788   0.76444   0.30251   0.00000  Uiso   1.00
N253   N     0.16667   0.74999   0.12624   0.00000  Uiso   1.00
N254   N     0.16667   0.75001   0.37377   0.00000  Uiso   1.00
O255   O     0.16667   0.68454   0.28974   0.00000  Uiso   1.00
O256   O     0.16666   0.81547   0.21026   0.00000  Uiso   1.00
O257   O     0.16667   0.68453   0.21026   0.00000  Uiso   1.00
O258   O     0.16666   0.81547   0.28974   0.00000  Uiso   1.00
O259   O     0.09058   0.75000   0.28045   0.00000  Uiso   1.00
O260   O     0.24275   0.75000   0.21956   0.00000  Uiso   1.00
O261   O     0.09058   0.75000   0.20097   0.00000  Uiso   1.00
O262   O     0.24275   0.75001   0.29904   0.00000  Uiso   1.00
Zn263  Zn    0.16667   0.75001   0.30307   0.00000  Uiso   1.00
Zn264  Zn    0.16667   0.75000   0.19693   0.00000  Uiso   1.00
H265   H     0.07825   0.52929   0.24000   0.00000  Uiso   1.00
H266   H     0.10077   0.96709   0.18854   0.00000  Uiso   1.00
H267   H     0.08166   0.61122   0.24180   0.00000  Uiso   1.00
H268   H     0.10398   0.88552   0.19142   0.00000  Uiso   1.00
S269   S     0.27554   0.62256   0.25793   0.00000  Uiso   1.00
O270   O     0.28094   0.65158   0.30069   0.00000  Uiso   1.00
O271   O     0.31897   0.58990   0.26347   0.00000  Uiso   1.00
O272   O     0.28028   0.65490   0.20986   0.00000  Uiso   1.00
H273   H     0.27382   0.63417   0.18296   0.00000  Uiso   1.00
S274   S     0.25074   0.88645   0.32424   0.00000  Uiso   1.00
O275   O     0.27321   0.84612   0.30511   0.00000  Uiso   1.00
O276   O     0.29431   0.92075   0.33707   0.00000  Uiso   1.00
O277   O     0.22331   0.87209   0.37280   0.00000  Uiso   1.00
H278   H     0.25309   0.87018   0.39849   0.00000  Uiso   1.00
H279   H     0.24700   0.53000   0.24962   0.00000  Uiso   1.00
H280   H     0.22259   0.97542   0.30724   0.00000  Uiso   1.00
H281   H     0.13151   0.68143   0.03367   0.00000  Uiso   1.00
H282   H     0.24576   0.78493   0.47163   0.00000  Uiso   1.00
H283   H     0.12692   0.68670   0.11878   0.00000  Uiso   1.00
H284   H     0.23907   0.78676   0.38484   0.00000  Uiso   1.00
S285   S     0.22134   0.83400   0.12877   0.00000  Uiso   1.00
O286   O     0.25604   0.85651   0.09630   0.00000  Uiso   1.00
O287   O     0.17857   0.86530   0.13490   0.00000  Uiso   1.00
O288   O     0.25899   0.82551   0.18047   0.00000  Uiso   1.00
H289   H     0.26871   0.85580   0.19286   0.00000  Uiso   1.00
S290   S     0.07613   0.69103   0.36958   0.00000  Uiso   1.00
O291   O     0.07359   0.64996   0.40054   0.00000  Uiso   1.00
O292   O     0.02627   0.71526   0.37066   0.00000  Uiso   1.00
O293   O     0.07810   0.67321   0.31484   0.00000  Uiso   1.00
H294   H     0.05560   0.64560   0.31205   0.00000  Uiso   1.00
H295   H     0.21011   0.81003   0.03557   0.00000  Uiso   1.00
H296   H     0.09953   0.71021   0.46171   0.00000  Uiso   1.00
C297   C     0.49998   0.66420   0.25028   0.00000  Uiso   1.00
C298   C     0.50090   0.83605   0.24982   0.00000  Uiso   1.00
C299   C     0.48150   0.71101   0.05194   0.00000  Uiso   1.00
C300   C     0.54516   0.76899   0.45134   0.00000  Uiso   1.00
C301   C     0.47887   0.71387   0.10096   0.00000  Uiso   1.00
C302   C     0.54130   0.77035   0.40139   0.00000  Uiso   1.00
C303   C     0.52519   0.78399   0.10265   0.00000  Uiso   1.00
C304   C     0.46256   0.72601   0.39624   0.00000  Uiso   1.00
C305   C     0.52678   0.78209   0.05374   0.00000  Uiso   1.00
C306   C     0.46450   0.72641   0.44554   0.00000  Uiso   1.00
C307   C     0.50565   0.74583   0.02736   0.00000  Uiso   1.00
C308   C     0.50591   0.74671   0.47430   0.00000  Uiso   1.00
C309   C     0.40056   0.75042   0.23775   0.00000  Uiso   1.00
C310   C     0.59947   0.75138   0.26207   0.00000  Uiso   1.00
C311   C     0.34562   0.74967   0.23097   0.00000  Uiso   1.00
C312   C     0.65437   0.75571   0.26800   0.00000  Uiso   1.00
C313   C     0.44921   0.54725   0.24275   0.00000  Uiso   1.00
C314   C     0.46167   0.95110   0.21501   0.00000  Uiso   1.00
C315   C     0.45117   0.59343   0.24475   0.00000  Uiso   1.00
C316   C     0.46416   0.90499   0.21622   0.00000  Uiso   1.00
C317   C     0.49974   0.61655   0.25034   0.00000  Uiso   1.00
C318   C     0.50087   0.88411   0.24934   0.00000  Uiso   1.00
C319   C     0.54688   0.59410   0.25199   0.00000  Uiso   1.00
C320   C     0.53509   0.90953   0.28222   0.00000  Uiso   1.00
C321   C     0.54446   0.54798   0.24883   0.00000  Uiso   1.00
C322   C     0.53090   0.95546   0.28150   0.00000  Uiso   1.00
C323   C     0.49600   0.52457   0.24543   0.00000  Uiso   1.00
C324   C     0.49545   0.97626   0.24746   0.00000  Uiso   1.00
H325   H     0.65885   0.74264   0.19580   0.00000  Uiso   1.00
H326   H     0.34122   0.76444   0.30251   0.00000  Uiso   1.00
N327   N     0.50000   0.74999   0.12624   0.00000  Uiso   1.00
N328   N     0.50000   0.75001   0.37377   0.00000  Uiso   1.00
O329   O     0.50000   0.68454   0.28974   0.00000  Uiso   1.00
O330   O     0.50000   0.81547   0.21026   0.00000  Uiso   1.00
O331   O     0.50000   0.68453   0.21026   0.00000  Uiso   1.00
O332   O     0.50000   0.81547   0.28974   0.00000  Uiso   1.00
O333   O     0.42392   0.75000   0.28045   0.00000  Uiso   1.00
O334   O     0.57608   0.75000   0.21956   0.00000  Uiso   1.00
O335   O     0.42392   0.75000   0.20097   0.00000  Uiso   1.00
O336   O     0.57608   0.75001   0.29904   0.00000  Uiso   1.00
Zn337  Zn    0.50000   0.75001   0.30307   0.00000  Uiso   1.00
Zn338  Zn    0.50000   0.75000   0.19693   0.00000  Uiso   1.00
H339   H     0.41158   0.52929   0.24000   0.00000  Uiso   1.00
H340   H     0.43410   0.96709   0.18854   0.00000  Uiso   1.00
H341   H     0.41500   0.61122   0.24180   0.00000  Uiso   1.00
H342   H     0.43731   0.88552   0.19142   0.00000  Uiso   1.00
S343   S     0.60887   0.62256   0.25793   0.00000  Uiso   1.00
O344   O     0.61427   0.65158   0.30069   0.00000  Uiso   1.00
O345   O     0.65231   0.58990   0.26347   0.00000  Uiso   1.00
O346   O     0.61361   0.65490   0.20986   0.00000  Uiso   1.00
H347   H     0.60715   0.63417   0.18296   0.00000  Uiso   1.00
S348   S     0.58407   0.88645   0.32424   0.00000  Uiso   1.00
O349   O     0.60654   0.84612   0.30511   0.00000  Uiso   1.00
O350   O     0.62764   0.92075   0.33707   0.00000  Uiso   1.00
O351   O     0.55664   0.87209   0.37280   0.00000  Uiso   1.00
H352   H     0.58642   0.87018   0.39849   0.00000  Uiso   1.00
H353   H     0.58034   0.53000   0.24962   0.00000  Uiso   1.00
H354   H     0.55593   0.97542   0.30724   0.00000  Uiso   1.00
H355   H     0.46484   0.68143   0.03367   0.00000  Uiso   1.00
H356   H     0.57909   0.78493   0.47163   0.00000  Uiso   1.00
H357   H     0.46025   0.68670   0.11878   0.00000  Uiso   1.00
H358   H     0.57240   0.78676   0.38484   0.00000  Uiso   1.00
S359   S     0.55467   0.83400   0.12877   0.00000  Uiso   1.00
O360   O     0.58937   0.85651   0.09630   0.00000  Uiso   1.00
O361   O     0.51190   0.86530   0.13490   0.00000  Uiso   1.00
O362   O     0.59232   0.82551   0.18047   0.00000  Uiso   1.00
H363   H     0.60205   0.85580   0.19286   0.00000  Uiso   1.00
S364   S     0.40946   0.69103   0.36958   0.00000  Uiso   1.00
O365   O     0.40692   0.64996   0.40054   0.00000  Uiso   1.00
O366   O     0.35961   0.71526   0.37066   0.00000  Uiso   1.00
O367   O     0.41143   0.67321   0.31484   0.00000  Uiso   1.00
H368   H     0.38893   0.64560   0.31205   0.00000  Uiso   1.00
H369   H     0.54345   0.81003   0.03557   0.00000  Uiso   1.00
H370   H     0.43287   0.71021   0.46171   0.00000  Uiso   1.00
C371   C     0.83331   0.66420   0.25028   0.00000  Uiso   1.00
C372   C     0.83424   0.83605   0.24982   0.00000  Uiso   1.00
C373   C     0.81484   0.71101   0.05194   0.00000  Uiso   1.00
C374   C     0.87850   0.76899   0.45134   0.00000  Uiso   1.00
C375   C     0.81221   0.71387   0.10096   0.00000  Uiso   1.00
C376   C     0.87463   0.77035   0.40139   0.00000  Uiso   1.00
C377   C     0.85853   0.78399   0.10265   0.00000  Uiso   1.00
C378   C     0.79589   0.72601   0.39624   0.00000  Uiso   1.00
C379   C     0.86011   0.78209   0.05374   0.00000  Uiso   1.00
C380   C     0.79784   0.72641   0.44554   0.00000  Uiso   1.00
C381   C     0.83898   0.74583   0.02736   0.00000  Uiso   1.00
C382   C     0.83924   0.74671   0.47430   0.00000  Uiso   1.00
C383   C     0.73389   0.75042   0.23775   0.00000  Uiso   1.00
C384   C     0.93280   0.75138   0.26207   0.00000  Uiso   1.00
C385   C     0.67896   0.74967   0.23097   0.00000  Uiso   1.00
C386   C     0.98770   0.75571   0.26800   0.00000  Uiso   1.00
C387   C     0.78254   0.54725   0.24275   0.00000  Uiso   1.00
C388   C     0.79500   0.95110   0.21501   0.00000  Uiso   1.00
C389   C     0.78451   0.59343   0.24475   0.00000  Uiso   1.00
C390   C     0.79749   0.90499   0.21622   0.00000  Uiso   1.00
C391   C     0.83307   0.61655   0.25034   0.00000  Uiso   1.00
C392   C     0.83421   0.88411   0.24934   0.00000  Uiso   1.00
C393   C     0.88021   0.59410   0.25199   0.00000  Uiso   1.00
C394   C     0.86843   0.90953   0.28222   0.00000  Uiso   1.00
C395   C     0.87780   0.54798   0.24883   0.00000  Uiso   1.00
C396   C     0.86423   0.95546   0.28150   0.00000  Uiso   1.00
C397   C     0.82933   0.52457   0.24543   0.00000  Uiso   1.00
C398   C     0.82878   0.97626   0.24746   0.00000  Uiso   1.00
H399   H     0.99219   0.74264   0.19580   0.00000  Uiso   1.00
H400   H     0.67455   0.76444   0.30251   0.00000  Uiso   1.00
N401   N     0.83333   0.74999   0.12624   0.00000  Uiso   1.00
N402   N     0.83333   0.75001   0.37377   0.00000  Uiso   1.00
O403   O     0.83334   0.68454   0.28974   0.00000  Uiso   1.00
O404   O     0.83333   0.81547   0.21026   0.00000  Uiso   1.00
O405   O     0.83334   0.68453   0.21026   0.00000  Uiso   1.00
O406   O     0.83333   0.81547   0.28974   0.00000  Uiso   1.00
O407   O     0.75725   0.75000   0.28045   0.00000  Uiso   1.00
O408   O     0.90942   0.75000   0.21956   0.00000  Uiso   1.00
O409   O     0.75725   0.75000   0.20097   0.00000  Uiso   1.00
O410   O     0.90942   0.75001   0.29904   0.00000  Uiso   1.00
Zn411  Zn    0.83333   0.75001   0.30307   0.00000  Uiso   1.00
Zn412  Zn    0.83333   0.75000   0.19693   0.00000  Uiso   1.00
H413   H     0.74491   0.52929   0.24000   0.00000  Uiso   1.00
H414   H     0.76743   0.96709   0.18854   0.00000  Uiso   1.00
H415   H     0.74833   0.61122   0.24180   0.00000  Uiso   1.00
H416   H     0.77065   0.88552   0.19142   0.00000  Uiso   1.00
S417   S     0.94221   0.62256   0.25793   0.00000  Uiso   1.00
O418   O     0.94760   0.65158   0.30069   0.00000  Uiso   1.00
O419   O     0.98564   0.58990   0.26347   0.00000  Uiso   1.00
O420   O     0.94694   0.65490   0.20986   0.00000  Uiso   1.00
H421   H     0.94049   0.63417   0.18296   0.00000  Uiso   1.00
S422   S     0.91741   0.88645   0.32424   0.00000  Uiso   1.00
O423   O     0.93988   0.84612   0.30511   0.00000  Uiso   1.00
O424   O     0.96097   0.92075   0.33707   0.00000  Uiso   1.00
O425   O     0.88998   0.87209   0.37280   0.00000  Uiso   1.00
H426   H     0.91976   0.87018   0.39849   0.00000  Uiso   1.00
H427   H     0.91367   0.53000   0.24962   0.00000  Uiso   1.00
H428   H     0.88926   0.97542   0.30724   0.00000  Uiso   1.00
H429   H     0.79817   0.68143   0.03367   0.00000  Uiso   1.00
H430   H     0.91242   0.78493   0.47163   0.00000  Uiso   1.00
H431   H     0.79359   0.68670   0.11878   0.00000  Uiso   1.00
H432   H     0.90574   0.78676   0.38484   0.00000  Uiso   1.00
S433   S     0.88800   0.83400   0.12877   0.00000  Uiso   1.00
O434   O     0.92271   0.85651   0.09630   0.00000  Uiso   1.00
O435   O     0.84524   0.86530   0.13490   0.00000  Uiso   1.00
O436   O     0.92565   0.82551   0.18047   0.00000  Uiso   1.00
H437   H     0.93538   0.85580   0.19286   0.00000  Uiso   1.00
S438   S     0.74279   0.69103   0.36958   0.00000  Uiso   1.00
O439   O     0.74026   0.64996   0.40054   0.00000  Uiso   1.00
O440   O     0.69294   0.71526   0.37066   0.00000  Uiso   1.00
O441   O     0.74476   0.67321   0.31484   0.00000  Uiso   1.00
H442   H     0.72227   0.64560   0.31205   0.00000  Uiso   1.00
H443   H     0.87678   0.81003   0.03557   0.00000  Uiso   1.00
H444   H     0.76620   0.71021   0.46171   0.00000  Uiso   1.00
C445   C     0.16665   0.16420   0.75028   0.00000  Uiso   1.00
C446   C     0.16757   0.33605   0.74982   0.00000  Uiso   1.00
C447   C     0.14817   0.21101   0.55194   0.00000  Uiso   1.00
C448   C     0.21183   0.26899   0.95134   0.00000  Uiso   1.00
C449   C     0.14554   0.21387   0.60096   0.00000  Uiso   1.00
C450   C     0.20796   0.27035   0.90139   0.00000  Uiso   1.00
C451   C     0.19186   0.28399   0.60265   0.00000  Uiso   1.00
C452   C     0.12923   0.22601   0.89624   0.00000  Uiso   1.00
C453   C     0.19345   0.28209   0.55374   0.00000  Uiso   1.00
C454   C     0.13117   0.22641   0.94554   0.00000  Uiso   1.00
C455   C     0.17232   0.24583   0.52736   0.00000  Uiso   1.00
C456   C     0.17258   0.24671   0.97430   0.00000  Uiso   1.00
C457   C     0.06722   0.25042   0.73775   0.00000  Uiso   1.00
C458   C     0.26614   0.25138   0.76207   0.00000  Uiso   1.00
C459   C     0.01229   0.24967   0.73097   0.00000  Uiso   1.00
C460   C     0.32104   0.25571   0.76800   0.00000  Uiso   1.00
C461   C     0.11588   0.04725   0.74275   0.00000  Uiso   1.00
C462   C     0.12833   0.45110   0.71501   0.00000  Uiso   1.00
C463   C     0.11784   0.09343   0.74475   0.00000  Uiso   1.00
C464   C     0.13082   0.40499   0.71622   0.00000  Uiso   1.00
C465   C     0.16640   0.11655   0.75034   0.00000  Uiso   1.00
C466   C     0.16754   0.38411   0.74934   0.00000  Uiso   1.00
C467   C     0.21355   0.09410   0.75199   0.00000  Uiso   1.00
C468   C     0.20176   0.40953   0.78222   0.00000  Uiso   1.00
C469   C     0.21113   0.04798   0.74883   0.00000  Uiso   1.00
C470   C     0.19756   0.45546   0.78150   0.00000  Uiso   1.00
C471   C     0.16267   0.02457   0.74543   0.00000  Uiso   1.00
C472   C     0.16212   0.47626   0.74746   0.00000  Uiso   1.00
H473   H     0.32552   0.24264   0.69580   0.00000  Uiso   1.00
H474   H     0.00788   0.26444   0.80251   0.00000  Uiso   1.00
N475   N     0.16667   0.24999   0.62624   0.00000  Uiso   1.00
N476   N     0.16667   0.25001   0.87377   0.00000  Uiso   1.00
O477   O     0.16667   0.18454   0.78974   0.00000  Uiso   1.00
O478   O     0.16666   0.31547   0.71026   0.00000  Uiso   1.00
O479   O     0.16667   0.18453   0.71026   0.00000  Uiso   1.00
O480   O     0.16666   0.31547   0.78974   0.00000  Uiso   1.00
O481   O     0.09058   0.25000   0.78045   0.00000  Uiso   1.00
O482   O     0.24275   0.25000   0.71956   0.00000  Uiso   1.00
O483   O     0.09058   0.25000   0.70097   0.00000  Uiso   1.00
O484   O     0.24275   0.25001   0.79904   0.00000  Uiso   1.00
Zn485  Zn    0.16667   0.25001   0.80307   0.00000  Uiso   1.00
Zn486  Zn    0.16667   0.25000   0.69693   0.00000  Uiso   1.00
H487   H     0.07825   0.02929   0.74000   0.00000  Uiso   1.00
H488   H     0.10077   0.46709   0.68854   0.00000  Uiso   1.00
H489   H     0.08166   0.11122   0.74180   0.00000  Uiso   1.00
H490   H     0.10398   0.38552   0.69142   0.00000  Uiso   1.00
S491   S     0.27554   0.12256   0.75793   0.00000  Uiso   1.00
O492   O     0.28094   0.15158   0.80069   0.00000  Uiso   1.00
O493   O     0.31897   0.08990   0.76347   0.00000  Uiso   1.00
O494   O     0.28028   0.15490   0.70986   0.00000  Uiso   1.00
H495   H     0.27382   0.13417   0.68296   0.00000  Uiso   1.00
S496   S     0.25074   0.38645   0.82424   0.00000  Uiso   1.00
O497   O     0.27321   0.34612   0.80511   0.00000  Uiso   1.00
O498   O     0.29431   0.42075   0.83707   0.00000  Uiso   1.00
O499   O     0.22331   0.37209   0.87280   0.00000  Uiso   1.00
H500   H     0.25309   0.37018   0.89849   0.00000  Uiso   1.00
H501   H     0.24700   0.03000   0.74962   0.00000  Uiso   1.00
H502   H     0.22259   0.47542   0.80724   0.00000  Uiso   1.00
H503   H     0.13151   0.18143   0.53367   0.00000  Uiso   1.00
H504   H     0.24576   0.28493   0.97163   0.00000  Uiso   1.00
H505   H     0.12692   0.18670   0.61878   0.00000  Uiso   1.00
H506   H     0.23907   0.28676   0.88484   0.00000  Uiso   1.00
S507   S     0.22134   0.33400   0.62877   0.00000  Uiso   1.00
O508   O     0.25604   0.35651   0.59630   0.00000  Uiso   1.00
O509   O     0.17857   0.36530   0.63490   0.00000  Uiso   1.00
O510   O     0.25899   0.32551   0.68047   0.00000  Uiso   1.00
H511   H     0.26871   0.35580   0.69286   0.00000  Uiso   1.00
S512   S     0.07613   0.19103   0.86958   0.00000  Uiso   1.00
O513   O     0.07359   0.14996   0.90054   0.00000  Uiso   1.00
O514   O     0.02627   0.21526   0.87066   0.00000  Uiso   1.00
O515   O     0.07810   0.17321   0.81484   0.00000  Uiso   1.00
H516   H     0.05560   0.14560   0.81205   0.00000  Uiso   1.00
H517   H     0.21011   0.31003   0.53557   0.00000  Uiso   1.00
H518   H     0.09953   0.21021   0.96171   0.00000  Uiso   1.00
C519   C     0.49998   0.16420   0.75028   0.00000  Uiso   1.00
C520   C     0.50090   0.33605   0.74982   0.00000  Uiso   1.00
C521   C     0.48150   0.21101   0.55194   0.00000  Uiso   1.00
C522   C     0.54516   0.26899   0.95134   0.00000  Uiso   1.00
C523   C     0.47887   0.21387   0.60096   0.00000  Uiso   1.00
C524   C     0.54130   0.27035   0.90139   0.00000  Uiso   1.00
C525   C     0.52519   0.28399   0.60265   0.00000  Uiso   1.00
C526   C     0.46256   0.22601   0.89624   0.00000  Uiso   1.00
C527   C     0.52678   0.28209   0.55374   0.00000  Uiso   1.00
C528   C     0.46450   0.22641   0.94554   0.00000  Uiso   1.00
C529   C     0.50565   0.24583   0.52736   0.00000  Uiso   1.00
C530   C     0.50591   0.24671   0.97430   0.00000  Uiso   1.00
C531   C     0.40056   0.25042   0.73775   0.00000  Uiso   1.00
C532   C     0.59947   0.25138   0.76207   0.00000  Uiso   1.00
C533   C     0.34562   0.24967   0.73097   0.00000  Uiso   1.00
C534   C     0.65437   0.25571   0.76800   0.00000  Uiso   1.00
C535   C     0.44921   0.04725   0.74275   0.00000  Uiso   1.00
C536   C     0.46167   0.45110   0.71501   0.00000  Uiso   1.00
C537   C     0.45117   0.09343   0.74475   0.00000  Uiso   1.00
C538   C     0.46416   0.40499   0.71622   0.00000  Uiso   1.00
C539   C     0.49974   0.11655   0.75034   0.00000  Uiso   1.00
C540   C     0.50087   0.38411   0.74934   0.00000  Uiso   1.00
C541   C     0.54688   0.09410   0.75199   0.00000  Uiso   1.00
C542   C     0.53509   0.40953   0.78222   0.00000  Uiso   1.00
C543   C     0.54446   0.04798   0.74883   0.00000  Uiso   1.00
C544   C     0.53090   0.45546   0.78150   0.00000  Uiso   1.00
C545   C     0.49600   0.02457   0.74543   0.00000  Uiso   1.00
C546   C     0.49545   0.47626   0.74746   0.00000  Uiso   1.00
H547   H     0.65885   0.24264   0.69580   0.00000  Uiso   1.00
H548   H     0.34122   0.26444   0.80251   0.00000  Uiso   1.00
N549   N     0.50000   0.24999   0.62624   0.00000  Uiso   1.00
N550   N     0.50000   0.25001   0.87377   0.00000  Uiso   1.00
O551   O     0.50000   0.18454   0.78974   0.00000  Uiso   1.00
O552   O     0.50000   0.31547   0.71026   0.00000  Uiso   1.00
O553   O     0.50000   0.18453   0.71026   0.00000  Uiso   1.00
O554   O     0.50000   0.31547   0.78974   0.00000  Uiso   1.00
O555   O     0.42392   0.25000   0.78045   0.00000  Uiso   1.00
O556   O     0.57608   0.25000   0.71956   0.00000  Uiso   1.00
O557   O     0.42392   0.25000   0.70097   0.00000  Uiso   1.00
O558   O     0.57608   0.25001   0.79904   0.00000  Uiso   1.00
Zn559  Zn    0.50000   0.25001   0.80307   0.00000  Uiso   1.00
Zn560  Zn    0.50000   0.25000   0.69693   0.00000  Uiso   1.00
H561   H     0.41158   0.02929   0.74000   0.00000  Uiso   1.00
H562   H     0.43410   0.46709   0.68854   0.00000  Uiso   1.00
H563   H     0.41500   0.11122   0.74180   0.00000  Uiso   1.00
H564   H     0.43731   0.38552   0.69142   0.00000  Uiso   1.00
S565   S     0.60887   0.12256   0.75793   0.00000  Uiso   1.00
O566   O     0.61427   0.15158   0.80069   0.00000  Uiso   1.00
O567   O     0.65231   0.08990   0.76347   0.00000  Uiso   1.00
O568   O     0.61361   0.15490   0.70986   0.00000  Uiso   1.00
H569   H     0.60715   0.13417   0.68296   0.00000  Uiso   1.00
S570   S     0.58407   0.38645   0.82424   0.00000  Uiso   1.00
O571   O     0.60654   0.34612   0.80511   0.00000  Uiso   1.00
O572   O     0.62764   0.42075   0.83707   0.00000  Uiso   1.00
O573   O     0.55664   0.37209   0.87280   0.00000  Uiso   1.00
H574   H     0.58642   0.37018   0.89849   0.00000  Uiso   1.00
H575   H     0.58034   0.03000   0.74962   0.00000  Uiso   1.00
H576   H     0.55593   0.47542   0.80724   0.00000  Uiso   1.00
H577   H     0.46484   0.18143   0.53367   0.00000  Uiso   1.00
H578   H     0.57909   0.28493   0.97163   0.00000  Uiso   1.00
H579   H     0.46025   0.18670   0.61878   0.00000  Uiso   1.00
H580   H     0.57240   0.28676   0.88484   0.00000  Uiso   1.00
S581   S     0.55467   0.33400   0.62877   0.00000  Uiso   1.00
O582   O     0.58937   0.35651   0.59630   0.00000  Uiso   1.00
O583   O     0.51190   0.36530   0.63490   0.00000  Uiso   1.00
O584   O     0.59232   0.32551   0.68047   0.00000  Uiso   1.00
H585   H     0.60205   0.35580   0.69286   0.00000  Uiso   1.00
S586   S     0.40946   0.19103   0.86958   0.00000  Uiso   1.00
O587   O     0.40692   0.14996   0.90054   0.00000  Uiso   1.00
O588   O     0.35961   0.21526   0.87066   0.00000  Uiso   1.00
O589   O     0.41143   0.17321   0.81484   0.00000  Uiso   1.00
H590   H     0.38893   0.14560   0.81205   0.00000  Uiso   1.00
H591   H     0.54345   0.31003   0.53557   0.00000  Uiso   1.00
H592   H     0.43287   0.21021   0.96171   0.00000  Uiso   1.00
C593   C     0.83331   0.16420   0.75028   0.00000  Uiso   1.00
C594   C     0.83424   0.33605   0.74982   0.00000  Uiso   1.00
C595   C     0.81484   0.21101   0.55194   0.00000  Uiso   1.00
C596   C     0.87850   0.26899   0.95134   0.00000  Uiso   1.00
C597   C     0.81221   0.21387   0.60096   0.00000  Uiso   1.00
C598   C     0.87463   0.27035   0.90139   0.00000  Uiso   1.00
C599   C     0.85853   0.28399   0.60265   0.00000  Uiso   1.00
C600   C     0.79589   0.22601   0.89624   0.00000  Uiso   1.00
C601   C     0.86011   0.28209   0.55374   0.00000  Uiso   1.00
C602   C     0.79784   0.22641   0.94554   0.00000  Uiso   1.00
C603   C     0.83898   0.24583   0.52736   0.00000  Uiso   1.00
C604   C     0.83924   0.24671   0.97430   0.00000  Uiso   1.00
C605   C     0.73389   0.25042   0.73775   0.00000  Uiso   1.00
C606   C     0.93280   0.25138   0.76207   0.00000  Uiso   1.00
C607   C     0.67896   0.24967   0.73097   0.00000  Uiso   1.00
C608   C     0.98770   0.25571   0.76800   0.00000  Uiso   1.00
C609   C     0.78254   0.04725   0.74275   0.00000  Uiso   1.00
C610   C     0.79500   0.45110   0.71501   0.00000  Uiso   1.00
C611   C     0.78451   0.09343   0.74475   0.00000  Uiso   1.00
C612   C     0.79749   0.40499   0.71622   0.00000  Uiso   1.00
C613   C     0.83307   0.11655   0.75034   0.00000  Uiso   1.00
C614   C     0.83421   0.38411   0.74934   0.00000  Uiso   1.00
C615   C     0.88021   0.09410   0.75199   0.00000  Uiso   1.00
C616   C     0.86843   0.40953   0.78222   0.00000  Uiso   1.00
C617   C     0.87780   0.04798   0.74883   0.00000  Uiso   1.00
C618   C     0.86423   0.45546   0.78150   0.00000  Uiso   1.00
C619   C     0.82933   0.02457   0.74543   0.00000  Uiso   1.00
C620   C     0.82878   0.47626   0.74746   0.00000  Uiso   1.00
H621   H     0.99219   0.24264   0.69580   0.00000  Uiso   1.00
H622   H     0.67455   0.26444   0.80251   0.00000  Uiso   1.00
N623   N     0.83333   0.24999   0.62624   0.00000  Uiso   1.00
N624   N     0.83333   0.25001   0.87377   0.00000  Uiso   1.00
O625   O     0.83334   0.18454   0.78974   0.00000  Uiso   1.00
O626   O     0.83333   0.31547   0.71026   0.00000  Uiso   1.00
O627   O     0.83334   0.18453   0.71026   0.00000  Uiso   1.00
O628   O     0.83333   0.31547   0.78974   0.00000  Uiso   1.00
O629   O     0.75725   0.25000   0.78045   0.00000  Uiso   1.00
O630   O     0.90942   0.25000   0.71956   0.00000  Uiso   1.00
O631   O     0.75725   0.25000   0.70097   0.00000  Uiso   1.00
O632   O     0.90942   0.25001   0.79904   0.00000  Uiso   1.00
Zn633  Zn    0.83333   0.25001   0.80307   0.00000  Uiso   1.00
Zn634  Zn    0.83333   0.25000   0.69693   0.00000  Uiso   1.00
H635   H     0.74491   0.02929   0.74000   0.00000  Uiso   1.00
H636   H     0.76743   0.46709   0.68854   0.00000  Uiso   1.00
H637   H     0.74833   0.11122   0.74180   0.00000  Uiso   1.00
H638   H     0.77065   0.38552   0.69142   0.00000  Uiso   1.00
S639   S     0.94221   0.12256   0.75793   0.00000  Uiso   1.00
O640   O     0.94760   0.15158   0.80069   0.00000  Uiso   1.00
O641   O     0.98564   0.08990   0.76347   0.00000  Uiso   1.00
O642   O     0.94694   0.15490   0.70986   0.00000  Uiso   1.00
H643   H     0.94049   0.13417   0.68296   0.00000  Uiso   1.00
S644   S     0.91741   0.38645   0.82424   0.00000  Uiso   1.00
O645   O     0.93988   0.34612   0.80511   0.00000  Uiso   1.00
O646   O     0.96097   0.42075   0.83707   0.00000  Uiso   1.00
O647   O     0.88998   0.37209   0.87280   0.00000  Uiso   1.00
H648   H     0.91976   0.37018   0.89849   0.00000  Uiso   1.00
H649   H     0.91367   0.03000   0.74962   0.00000  Uiso   1.00
H650   H     0.88926   0.47542   0.80724   0.00000  Uiso   1.00
H651   H     0.79817   0.18143   0.53367   0.00000  Uiso   1.00
H652   H     0.91242   0.28493   0.97163   0.00000  Uiso   1.00
H653   H     0.79359   0.18670   0.61878   0.00000  Uiso   1.00
H654   H     0.90574   0.28676   0.88484   0.00000  Uiso   1.00
S655   S     0.88800   0.33400   0.62877   0.00000  Uiso   1.00
O656   O     0.92271   0.35651   0.59630   0.00000  Uiso   1.00
O657   O     0.84524   0.36530   0.63490   0.00000  Uiso   1.00
O658   O     0.92565   0.32551   0.68047   0.00000  Uiso   1.00
H659   H     0.93538   0.35580   0.69286   0.00000  Uiso   1.00
S660   S     0.74279   0.19103   0.86958   0.00000  Uiso   1.00
O661   O     0.74026   0.14996   0.90054   0.00000  Uiso   1.00
O662   O     0.69294   0.21526   0.87066   0.00000  Uiso   1.00
O663   O     0.74476   0.17321   0.81484   0.00000  Uiso   1.00
H664   H     0.72227   0.14560   0.81205   0.00000  Uiso   1.00
H665   H     0.87678   0.31003   0.53557   0.00000  Uiso   1.00
H666   H     0.76620   0.21021   0.96171   0.00000  Uiso   1.00
C667   C     0.16665   0.66420   0.75028   0.00000  Uiso   1.00
C668   C     0.16757   0.83605   0.74982   0.00000  Uiso   1.00
C669   C     0.14817   0.71101   0.55194   0.00000  Uiso   1.00
C670   C     0.21183   0.76899   0.95134   0.00000  Uiso   1.00
C671   C     0.14554   0.71387   0.60096   0.00000  Uiso   1.00
C672   C     0.20796   0.77035   0.90139   0.00000  Uiso   1.00
C673   C     0.19186   0.78399   0.60265   0.00000  Uiso   1.00
C674   C     0.12923   0.72601   0.89624   0.00000  Uiso   1.00
C675   C     0.19345   0.78209   0.55374   0.00000  Uiso   1.00
C676   C     0.13117   0.72641   0.94554   0.00000  Uiso   1.00
C677   C     0.17232   0.74583   0.52736   0.00000  Uiso   1.00
C678   C     0.17258   0.74671   0.97430   0.00000  Uiso   1.00
C679   C     0.06722   0.75042   0.73775   0.00000  Uiso   1.00
C680   C     0.26614   0.75138   0.76207   0.00000  Uiso   1.00
C681   C     0.01229   0.74967   0.73097   0.00000  Uiso   1.00
C682   C     0.32104   0.75571   0.76800   0.00000  Uiso   1.00
C683   C     0.11588   0.54725   0.74275   0.00000  Uiso   1.00
C684   C     0.12833   0.95110   0.71501   0.00000  Uiso   1.00
C685   C     0.11784   0.59343   0.74475   0.00000  Uiso   1.00
C686   C     0.13082   0.90499   0.71622   0.00000  Uiso   1.00
C687   C     0.16640   0.61655   0.75034   0.00000  Uiso   1.00
C688   C     0.16754   0.88411   0.74934   0.00000  Uiso   1.00
C689   C     0.21355   0.59410   0.75199   0.00000  Uiso   1.00
C690   C     0.20176   0.90953   0.78222   0.00000  Uiso   1.00
C691   C     0.21113   0.54798   0.74883   0.00000  Uiso   1.00
C692   C     0.19756   0.95546   0.78150   0.00000  Uiso   1.00
C693   C     0.16267   0.52457   0.74543   0.00000  Uiso   1.00
C694   C     0.16212   0.97626   0.74746   0.00000  Uiso   1.00
H695   H     0.32552   0.74264   0.69580   0.00000  Uiso   1.00
H696   H     0.00788   0.76444   0.80251   0.00000  Uiso   1.00
N697   N     0.16667   0.74999   0.62624   0.00000  Uiso   1.00
N698   N     0.16667   0.75001   0.87377   0.00000  Uiso   1.00
O699   O     0.16667   0.68454   0.78974   0.00000  Uiso   1.00
O700   O     0.16666   0.81547   0.71026   0.00000  Uiso   1.00
O701   O     0.16667   0.68453   0.71026   0.00000  Uiso   1.00
O702   O     0.16666   0.81547   0.78974   0.00000  Uiso   1.00
O703   O     0.09058   0.75000   0.78045   0.00000  Uiso   1.00
O704   O     0.24275   0.75000   0.71956   0.00000  Uiso   1.00
O705   O     0.09058   0.75000   0.70097   0.00000  Uiso   1.00
O706   O     0.24275   0.75001   0.79904   0.00000  Uiso   1.00
Zn707  Zn    0.16667   0.75001   0.80307   0.00000  Uiso   1.00
Zn708  Zn    0.16667   0.75000   0.69693   0.00000  Uiso   1.00
H709   H     0.07825   0.52929   0.74000   0.00000  Uiso   1.00
H710   H     0.10077   0.96709   0.68854   0.00000  Uiso   1.00
H711   H     0.08166   0.61122   0.74180   0.00000  Uiso   1.00
H712   H     0.10398   0.88552   0.69142   0.00000  Uiso   1.00
S713   S     0.27554   0.62256   0.75793   0.00000  Uiso   1.00
O714   O     0.28094   0.65158   0.80069   0.00000  Uiso   1.00
O715   O     0.31897   0.58990   0.76347   0.00000  Uiso   1.00
O716   O     0.28028   0.65490   0.70986   0.00000  Uiso   1.00
H717   H     0.27382   0.63417   0.68296   0.00000  Uiso   1.00
S718   S     0.25074   0.88645   0.82424   0.00000  Uiso   1.00
O719   O     0.27321   0.84612   0.80511   0.00000  Uiso   1.00
O720   O     0.29431   0.92075   0.83707   0.00000  Uiso   1.00
O721   O     0.22331   0.87209   0.87280   0.00000  Uiso   1.00
H722   H     0.25309   0.87018   0.89849   0.00000  Uiso   1.00
H723   H     0.24700   0.53000   0.74962   0.00000  Uiso   1.00
H724   H     0.22259   0.97542   0.80724   0.00000  Uiso   1.00
H725   H     0.13151   0.68143   0.53367   0.00000  Uiso   1.00
H726   H     0.24576   0.78493   0.97163   0.00000  Uiso   1.00
H727   H     0.12692   0.68670   0.61878   0.00000  Uiso   1.00
H728   H     0.23907   0.78676   0.88484   0.00000  Uiso   1.00
S729   S     0.22134   0.83400   0.62877   0.00000  Uiso   1.00
O730   O     0.25604   0.85651   0.59630   0.00000  Uiso   1.00
O731   O     0.17857   0.86530   0.63490   0.00000  Uiso   1.00
O732   O     0.25899   0.82551   0.68047   0.00000  Uiso   1.00
H733   H     0.26871   0.85580   0.69286   0.00000  Uiso   1.00
S734   S     0.07613   0.69103   0.86958   0.00000  Uiso   1.00
O735   O     0.07359   0.64996   0.90054   0.00000  Uiso   1.00
O736   O     0.02627   0.71526   0.87066   0.00000  Uiso   1.00
O737   O     0.07810   0.67321   0.81484   0.00000  Uiso   1.00
H738   H     0.05560   0.64560   0.81205   0.00000  Uiso   1.00
H739   H     0.21011   0.81003   0.53557   0.00000  Uiso   1.00
H740   H     0.09953   0.71021   0.96171   0.00000  Uiso   1.00
C741   C     0.49998   0.66420   0.75028   0.00000  Uiso   1.00
C742   C     0.50090   0.83605   0.74982   0.00000  Uiso   1.00
C743   C     0.48150   0.71101   0.55194   0.00000  Uiso   1.00
C744   C     0.54516   0.76899   0.95134   0.00000  Uiso   1.00
C745   C     0.47887   0.71387   0.60096   0.00000  Uiso   1.00
C746   C     0.54130   0.77035   0.90139   0.00000  Uiso   1.00
C747   C     0.52519   0.78399   0.60265   0.00000  Uiso   1.00
C748   C     0.46256   0.72601   0.89624   0.00000  Uiso   1.00
C749   C     0.52678   0.78209   0.55374   0.00000  Uiso   1.00
C750   C     0.46450   0.72641   0.94554   0.00000  Uiso   1.00
C751   C     0.50565   0.74583   0.52736   0.00000  Uiso   1.00
C752   C     0.50591   0.74671   0.97430   0.00000  Uiso   1.00
C753   C     0.40056   0.75042   0.73775   0.00000  Uiso   1.00
C754   C     0.59947   0.75138   0.76207   0.00000  Uiso   1.00
C755   C     0.34562   0.74967   0.73097   0.00000  Uiso   1.00
C756   C     0.65437   0.75571   0.76800   0.00000  Uiso   1.00
C757   C     0.44921   0.54725   0.74275   0.00000  Uiso   1.00
C758   C     0.46167   0.95110   0.71501   0.00000  Uiso   1.00
C759   C     0.45117   0.59343   0.74475   0.00000  Uiso   1.00
C760   C     0.46416   0.90499   0.71622   0.00000  Uiso   1.00
C761   C     0.49974   0.61655   0.75034   0.00000  Uiso   1.00
C762   C     0.50087   0.88411   0.74934   0.00000  Uiso   1.00
C763   C     0.54688   0.59410   0.75199   0.00000  Uiso   1.00
C764   C     0.53509   0.90953   0.78222   0.00000  Uiso   1.00
C765   C     0.54446   0.54798   0.74883   0.00000  Uiso   1.00
C766   C     0.53090   0.95546   0.78150   0.00000  Uiso   1.00
C767   C     0.49600   0.52457   0.74543   0.00000  Uiso   1.00
C768   C     0.49545   0.97626   0.74746   0.00000  Uiso   1.00
H769   H     0.65885   0.74264   0.69580   0.00000  Uiso   1.00
H770   H     0.34122   0.76444   0.80251   0.00000  Uiso   1.00
N771   N     0.50000   0.74999   0.62624   0.00000  Uiso   1.00
N772   N     0.50000   0.75001   0.87377   0.00000  Uiso   1.00
O773   O     0.50000   0.68454   0.78974   0.00000  Uiso   1.00
O774   O     0.50000   0.81547   0.71026   0.00000  Uiso   1.00
O775   O     0.50000   0.68453   0.71026   0.00000  Uiso   1.00
O776   O     0.50000   0.81547   0.78974   0.00000  Uiso   1.00
O777   O     0.42392   0.75000   0.78045   0.00000  Uiso   1.00
O778   O     0.57608   0.75000   0.71956   0.00000  Uiso   1.00
O779   O     0.42392   0.75000   0.70097   0.00000  Uiso   1.00
O780   O     0.57608   0.75001   0.79904   0.00000  Uiso   1.00
Zn781  Zn    0.50000   0.75001   0.80307   0.00000  Uiso   1.00
Zn782  Zn    0.50000   0.75000   0.69693   0.00000  Uiso   1.00
H783   H     0.41158   0.52929   0.74000   0.00000  Uiso   1.00
H784   H     0.43410   0.96709   0.68854   0.00000  Uiso   1.00
H785   H     0.41500   0.61122   0.74180   0.00000  Uiso   1.00
H786   H     0.43731   0.88552   0.69142   0.00000  Uiso   1.00
S787   S     0.60887   0.62256   0.75793   0.00000  Uiso   1.00
O788   O     0.61427   0.65158   0.80069   0.00000  Uiso   1.00
O789   O     0.65231   0.58990   0.76347   0.00000  Uiso   1.00
O790   O     0.61361   0.65490   0.70986   0.00000  Uiso   1.00
H791   H     0.60715   0.63417   0.68296   0.00000  Uiso   1.00
S792   S     0.58407   0.88645   0.82424   0.00000  Uiso   1.00
O793   O     0.60654   0.84612   0.80511   0.00000  Uiso   1.00
O794   O     0.62764   0.92075   0.83707   0.00000  Uiso   1.00
O795   O     0.55664   0.87209   0.87280   0.00000  Uiso   1.00
H796   H     0.58642   0.87018   0.89849   0.00000  Uiso   1.00
H797   H     0.58034   0.53000   0.74962   0.00000  Uiso   1.00
H798   H     0.55593   0.97542   0.80724   0.00000  Uiso   1.00
H799   H     0.46484   0.68143   0.53367   0.00000  Uiso   1.00
H800   H     0.57909   0.78493   0.97163   0.00000  Uiso   1.00
H801   H     0.46025   0.68670   0.61878   0.00000  Uiso   1.00
H802   H     0.57240   0.78676   0.88484   0.00000  Uiso   1.00
S803   S     0.55467   0.83400   0.62877   0.00000  Uiso   1.00
O804   O     0.58937   0.85651   0.59630   0.00000  Uiso   1.00
O805   O     0.51190   0.86530   0.63490   0.00000  Uiso   1.00
O806   O     0.59232   0.82551   0.68047   0.00000  Uiso   1.00
H807   H     0.60205   0.85580   0.69286   0.00000  Uiso   1.00
S808   S     0.40946   0.69103   0.86958   0.00000  Uiso   1.00
O809   O     0.40692   0.64996   0.90054   0.00000  Uiso   1.00
O810   O     0.35961   0.71526   0.87066   0.00000  Uiso   1.00
O811   O     0.41143   0.67321   0.81484   0.00000  Uiso   1.00
H812   H     0.38893   0.64560   0.81205   0.00000  Uiso   1.00
H813   H     0.54345   0.81003   0.53557   0.00000  Uiso   1.00
H814   H     0.43287   0.71021   0.96171   0.00000  Uiso   1.00
C815   C     0.83331   0.66420   0.75028   0.00000  Uiso   1.00
C816   C     0.83424   0.83605   0.74982   0.00000  Uiso   1.00
C817   C     0.81484   0.71101   0.55194   0.00000  Uiso   1.00
C818   C     0.87850   0.76899   0.95134   0.00000  Uiso   1.00
C819   C     0.81221   0.71387   0.60096   0.00000  Uiso   1.00
C820   C     0.87463   0.77035   0.90139   0.00000  Uiso   1.00
C821   C     0.85853   0.78399   0.60265   0.00000  Uiso   1.00
C822   C     0.79589   0.72601   0.89624   0.00000  Uiso   1.00
C823   C     0.86011   0.78209   0.55374   0.00000  Uiso   1.00
C824   C     0.79784   0.72641   0.94554   0.00000  Uiso   1.00
C825   C     0.83898   0.74583   0.52736   0.00000  Uiso   1.00
C826   C     0.83924   0.74671   0.97430   0.00000  Uiso   1.00
C827   C     0.73389   0.75042   0.73775   0.00000  Uiso   1.00
C828   C     0.93280   0.75138   0.76207   0.00000  Uiso   1.00
C829   C     0.67896   0.74967   0.73097   0.00000  Uiso   1.00
C830   C     0.98770   0.75571   0.76800   0.00000  Uiso   1.00
C831   C     0.78254   0.54725   0.74275   0.00000  Uiso   1.00
C832   C     0.79500   0.95110   0.71501   0.00000  Uiso   1.00
C833   C     0.78451   0.59343   0.74475   0.00000  Uiso   1.00
C834   C     0.79749   0.90499   0.71622   0.00000  Uiso   1.00
C835   C     0.83307   0.61655   0.75034   0.00000  Uiso   1.00
C836   C     0.83421   0.88411   0.74934   0.00000  Uiso   1.00
C837   C     0.88021   0.59410   0.75199   0.00000  Uiso   1.00
C838   C     0.86843   0.90953   0.78222   0.00000  Uiso   1.00
C839   C     0.87780   0.54798   0.74883   0.00000  Uiso   1.00
C840   C     0.86423   0.95546   0.78150   0.00000  Uiso   1.00
C841   C     0.82933   0.52457   0.74543   0.00000  Uiso   1.00
C842   C     0.82878   0.97626   0.74746   0.00000  Uiso   1.00
H843   H     0.99219   0.74264   0.69580   0.00000  Uiso   1.00
H844   H     0.67455   0.76444   0.80251   0.00000  Uiso   1.00
N845   N     0.83333   0.74999   0.62624   0.00000  Uiso   1.00
N846   N     0.83333   0.75001   0.87377   0.00000  Uiso   1.00
O847   O     0.83334   0.68454   0.78974   0.00000  Uiso   1.00
O848   O     0.83333   0.81547   0.71026   0.00000  Uiso   1.00
O849   O     0.83334   0.68453   0.71026   0.00000  Uiso   1.00
O850   O     0.83333   0.81547   0.78974   0.00000  Uiso   1.00
O851   O     0.75725   0.75000   0.78045   0.00000  Uiso   1.00
O852   O     0.90942   0.75000   0.71956   0.00000  Uiso   1.00
O853   O     0.75725   0.75000   0.70097   0.00000  Uiso   1.00
O854   O     0.90942   0.75001   0.79904   0.00000  Uiso   1.00
Zn855  Zn    0.83333   0.75001   0.80307   0.00000  Uiso   1.00
Zn856  Zn    0.83333   0.75000   0.69693   0.00000  Uiso   1.00
H857   H     0.74491   0.52929   0.74000   0.00000  Uiso   1.00
H858   H     0.76743   0.96709   0.68854   0.00000  Uiso   1.00
H859   H     0.74833   0.61122   0.74180   0.00000  Uiso   1.00
H860   H     0.77065   0.88552   0.69142   0.00000  Uiso   1.00
S861   S     0.94221   0.62256   0.75793   0.00000  Uiso   1.00
O862   O     0.94760   0.65158   0.80069   0.00000  Uiso   1.00
O863   O     0.98564   0.58990   0.76347   0.00000  Uiso   1.00
O864   O     0.94694   0.65490   0.70986   0.00000  Uiso   1.00
H865   H     0.94049   0.63417   0.68296   0.00000  Uiso   1.00
S866   S     0.91741   0.88645   0.82424   0.00000  Uiso   1.00
O867   O     0.93988   0.84612   0.80511   0.00000  Uiso   1.00
O868   O     0.96097   0.92075   0.83707   0.00000  Uiso   1.00
O869   O     0.88998   0.87209   0.87280   0.00000  Uiso   1.00
H870   H     0.91976   0.87018   0.89849   0.00000  Uiso   1.00
H871   H     0.91367   0.53000   0.74962   0.00000  Uiso   1.00
H872   H     0.88926   0.97542   0.80724   0.00000  Uiso   1.00
H873   H     0.79817   0.68143   0.53367   0.00000  Uiso   1.00
H874   H     0.91242   0.78493   0.97163   0.00000  Uiso   1.00
H875   H     0.79359   0.68670   0.61878   0.00000  Uiso   1.00
H876   H     0.90574   0.78676   0.88484   0.00000  Uiso   1.00
S877   S     0.88800   0.83400   0.62877   0.00000  Uiso   1.00
O878   O     0.92271   0.85651   0.59630   0.00000  Uiso   1.00
O879   O     0.84524   0.86530   0.63490   0.00000  Uiso   1.00
O880   O     0.92565   0.82551   0.68047   0.00000  Uiso   1.00
H881   H     0.93538   0.85580   0.69286   0.00000  Uiso   1.00
S882   S     0.74279   0.69103   0.86958   0.00000  Uiso   1.00
O883   O     0.74026   0.64996   0.90054   0.00000  Uiso   1.00
O884   O     0.69294   0.71526   0.87066   0.00000  Uiso   1.00
O885   O     0.74476   0.67321   0.81484   0.00000  Uiso   1.00
H886   H     0.72227   0.64560   0.81205   0.00000  Uiso   1.00
H887   H     0.87678   0.81003   0.53557   0.00000  Uiso   1.00
H888   H     0.76620   0.71021   0.96171   0.00000  Uiso   1.00
loop_
_geom_bond_atom_site_label_1
_geom_bond_atom_site_label_2
_geom_bond_distance
_geom_bond_site_symmetry_2
_ccdc_geom_bond_type
C1     C21     1.426   .     S
C1     O33     1.292   .     A
C1     O35     1.285   .     A
C2     C22     1.438   .     S
C2     O34     1.296   .     A
C2     O36     1.289   .     A
C3     C11     1.416   .     A
C3     C5      1.416   .     A
C3     H59     1.082   .     S
C4     H60     1.082   .     S
C4     C12     1.415   .     A
C4     C6      1.418   .     A
C5     H61     1.081   .     S
C5     N31     1.367   .     A
C6     N32     1.367   .     A
C6     H62     1.080   .     S
C7     S63     1.783   .     S
C7     N31     1.396   .     A
C7     C9      1.407   .     A
C8     S68     1.786   .     S
C8     N32     1.396   .     A
C8     C10     1.404   .     A
C9     C11     1.386   .     A
C9     H73     1.081   .     S
C10    H74     1.083   .     S
C10    C12     1.385   .     A
C11    C456    1.518   1_554 S
C12    C455    1.518   .     S
C13    O37     1.287   .     A
C13    C15     1.400   .     S
C13    O39     1.279   .     A
C14    O40     1.283   .     A
C14    O38     1.283   .     A
C14    C16     1.401   .     S
C15    C164    1.322   1_455 S
C15    H177    1.088   1_455 S
C16    C89     1.322   .     S
C16    H104    1.084   .     S
C17    H43     1.083   .     S
C17    C19     1.383   .     A
C17    C27     1.397   .     A
C18    H44     1.083   .     S
C18    C20     1.383   .     A
C18    C28     1.395   .     A
C19    H45     1.082   .     S
C19    C21     1.397   .     A
C20    H46     1.084   .     S
C20    C22     1.401   .     A
C21    C23     1.403   .     A
C22    C24     1.412   .     A
C23    S47     1.768   .     S
C23    C25     1.384   .     A
C24    S52     1.772   .     S
C24    C26     1.383   .     A
C25    C27     1.399   .     A
C25    H57     1.083   .     S
C26    H58     1.084   .     S
C26    C28     1.396   .     A
C27    C250    1.446   1_545 S
C28    C249    1.446   .     S
H29    C89     1.088   .     S
H30    C164    1.084   1_455 S
N31    Zn42    2.021   .     S
N32    Zn41    2.021   .     S
O33    Zn41    2.004   .     S
O34    Zn42    2.004   .     S
O35    Zn42    1.989   .     S
O36    Zn41    1.989   .     S
O37    Zn41    1.978   .     S
O38    Zn42    1.978   .     S
O39    Zn42    1.976   .     S
O40    Zn41    1.976   .     S
S47    O48     1.502   .     D
S47    O49     1.503   .     D
S47    O50     1.680   .     S
O50    H51     0.990   .     S
S52    O55     1.681   .     S
S52    O54     1.504   .     D
S52    O53     1.501   .     D
O55    H56     0.991   .     S
S63    O65     1.502   .     D
S63    O66     1.677   .     S
S63    O64     1.504   .     D
O66    H67     0.991   .     S
S68    O70     1.501   .     D
S68    O71     1.671   .     S
S68    O69     1.505   .     D
O71    H72     0.989   .     S
C75    C95     1.426   .     S
C75    O107    1.292   .     A
C75    O109    1.285   .     A
C76    C96     1.438   .     S
C76    O108    1.296   .     A
C76    O110    1.289   .     A
C77    C85     1.416   .     A
C77    C79     1.416   .     A
C77    H133    1.082   .     S
C78    H134    1.082   .     S
C78    C86     1.415   .     A
C78    C80     1.418   .     A
C79    H135    1.081   .     S
C79    N105    1.367   .     A
C80    N106    1.367   .     A
C80    H136    1.080   .     S
C81    S137    1.783   .     S
C81    N105    1.396   .     A
C81    C83     1.407   .     A
C82    S142    1.786   .     S
C82    N106    1.396   .     A
C82    C84     1.404   .     A
C83    C85     1.386   .     A
C83    H147    1.081   .     S
C84    H148    1.083   .     S
C84    C86     1.385   .     A
C85    C530    1.518   1_554 S
C86    C529    1.518   .     S
C87    O111    1.287   .     A
C87    C89     1.400   .     S
C87    O113    1.279   .     A
C88    O114    1.283   .     A
C88    O112    1.283   .     A
C88    C90     1.401   .     S
C90    C163    1.322   .     S
C90    H178    1.084   .     S
C91    H117    1.083   .     S
C91    C93     1.383   .     A
C91    C101    1.397   .     A
C92    H118    1.083   .     S
C92    C94     1.383   .     A
C92    C102    1.395   .     A
C93    H119    1.082   .     S
C93    C95     1.397   .     A
C94    H120    1.084   .     S
C94    C96     1.401   .     A
C95    C97     1.403   .     A
C96    C98     1.412   .     A
C97    S121    1.768   .     S
C97    C99     1.384   .     A
C98    S126    1.772   .     S
C98    C100    1.383   .     A
C99    C101    1.399   .     A
C99    H131    1.083   .     S
C100   H132    1.084   .     S
C100   C102    1.396   .     A
C101   C324    1.446   1_545 S
C102   C323    1.446   .     S
H103   C163    1.088   .     S
N105   Zn116   2.021   .     S
N106   Zn115   2.021   .     S
O107   Zn115   2.004   .     S
O108   Zn116   2.004   .     S
O109   Zn116   1.989   .     S
O110   Zn115   1.989   .     S
O111   Zn115   1.978   .     S
O112   Zn116   1.978   .     S
O113   Zn116   1.976   .     S
O114   Zn115   1.976   .     S
S121   O122    1.502   .     D
S121   O123    1.503   .     D
S121   O124    1.680   .     S
O124   H125    0.990   .     S
S126   O129    1.681   .     S
S126   O128    1.504   .     D
S126   O127    1.501   .     D
O129   H130    0.991   .     S
S137   O139    1.502   .     D
S137   O140    1.677   .     S
S137   O138    1.504   .     D
O140   H141    0.991   .     S
S142   O144    1.501   .     D
S142   O145    1.671   .     S
S142   O143    1.505   .     D
O145   H146    0.989   .     S
C149   C169    1.426   .     S
C149   O181    1.292   .     A
C149   O183    1.285   .     A
C150   C170    1.438   .     S
C150   O182    1.296   .     A
C150   O184    1.289   .     A
C151   C159    1.416   .     A
C151   C153    1.416   .     A
C151   H207    1.082   .     S
C152   H208    1.082   .     S
C152   C160    1.415   .     A
C152   C154    1.418   .     A
C153   H209    1.081   .     S
C153   N179    1.367   .     A
C154   N180    1.367   .     A
C154   H210    1.080   .     S
C155   S211    1.783   .     S
C155   N179    1.396   .     A
C155   C157    1.407   .     A
C156   S216    1.786   .     S
C156   N180    1.396   .     A
C156   C158    1.404   .     A
C157   C159    1.386   .     A
C157   H221    1.081   .     S
C158   H222    1.083   .     S
C158   C160    1.385   .     A
C159   C604    1.518   1_554 S
C160   C603    1.518   .     S
C161   O185    1.287   .     A
C161   C163    1.400   .     S
C161   O187    1.279   .     A
C162   O188    1.283   .     A
C162   O186    1.283   .     A
C162   C164    1.401   .     S
C164   C15     1.322   1_655 S
C164   H30     1.084   1_655 S
C165   H191    1.083   .     S
C165   C167    1.383   .     A
C165   C175    1.397   .     A
C166   H192    1.083   .     S
C166   C168    1.383   .     A
C166   C176    1.395   .     A
C167   H193    1.082   .     S
C167   C169    1.397   .     A
C168   H194    1.084   .     S
C168   C170    1.401   .     A
C169   C171    1.403   .     A
C170   C172    1.412   .     A
C171   S195    1.768   .     S
C171   C173    1.384   .     A
C172   S200    1.772   .     S
C172   C174    1.383   .     A
C173   C175    1.399   .     A
C173   H205    1.083   .     S
C174   H206    1.084   .     S
C174   C176    1.396   .     A
C175   C398    1.446   1_545 S
C176   C397    1.446   .     S
H177   C15     1.088   1_655 S
N179   Zn190   2.021   .     S
N180   Zn189   2.021   .     S
O181   Zn189   2.004   .     S
O182   Zn190   2.004   .     S
O183   Zn190   1.989   .     S
O184   Zn189   1.989   .     S
O185   Zn189   1.978   .     S
O186   Zn190   1.978   .     S
O187   Zn190   1.976   .     S
O188   Zn189   1.976   .     S
S195   O196    1.502   .     D
S195   O197    1.503   .     D
S195   O198    1.680   .     S
O198   H199    0.990   .     S
S200   O203    1.681   .     S
S200   O202    1.504   .     D
S200   O201    1.501   .     D
O203   H204    0.991   .     S
S211   O213    1.502   .     D
S211   O214    1.677   .     S
S211   O212    1.504   .     D
O214   H215    0.991   .     S
S216   O218    1.501   .     D
S216   O219    1.671   .     S
S216   O217    1.505   .     D
O219   H220    0.989   .     S
C223   C243    1.426   .     S
C223   O255    1.292   .     A
C223   O257    1.285   .     A
C224   C244    1.438   .     S
C224   O256    1.296   .     A
C224   O258    1.289   .     A
C225   C233    1.416   .     A
C225   C227    1.416   .     A
C225   H281    1.082   .     S
C226   H282    1.082   .     S
C226   C234    1.415   .     A
C226   C228    1.418   .     A
C227   H283    1.081   .     S
C227   N253    1.367   .     A
C228   N254    1.367   .     A
C228   H284    1.080   .     S
C229   S285    1.783   .     S
C229   N253    1.396   .     A
C229   C231    1.407   .     A
C230   S290    1.786   .     S
C230   N254    1.396   .     A
C230   C232    1.404   .     A
C231   C233    1.386   .     A
C231   H295    1.081   .     S
C232   H296    1.083   .     S
C232   C234    1.385   .     A
C233   C678    1.518   1_554 S
C234   C677    1.518   .     S
C235   O259    1.287   .     A
C235   C237    1.400   .     S
C235   O261    1.279   .     A
C236   O262    1.283   .     A
C236   O260    1.283   .     A
C236   C238    1.401   .     S
C237   C386    1.322   1_455 S
C237   H399    1.088   1_455 S
C238   C311    1.322   .     S
C238   H326    1.084   .     S
C239   H265    1.083   .     S
C239   C241    1.383   .     A
C239   C249    1.397   .     A
C240   H266    1.083   .     S
C240   C242    1.383   .     A
C240   C250    1.395   .     A
C241   H267    1.082   .     S
C241   C243    1.397   .     A
C242   H268    1.084   .     S
C242   C244    1.401   .     A
C243   C245    1.403   .     A
C244   C246    1.412   .     A
C245   S269    1.768   .     S
C245   C247    1.384   .     A
C246   S274    1.772   .     S
C246   C248    1.383   .     A
C247   C249    1.399   .     A
C247   H279    1.083   .     S
C248   H280    1.084   .     S
C248   C250    1.396   .     A
C250   C27     1.446   1_565 S
H251   C311    1.088   .     S
H252   C386    1.084   1_455 S
N253   Zn264   2.021   .     S
N254   Zn263   2.021   .     S
O255   Zn263   2.004   .     S
O256   Zn264   2.004   .     S
O257   Zn264   1.989   .     S
O258   Zn263   1.989   .     S
O259   Zn263   1.978   .     S
O260   Zn264   1.978   .     S
O261   Zn264   1.976   .     S
O262   Zn263   1.976   .     S
S269   O270    1.502   .     D
S269   O271    1.503   .     D
S269   O272    1.680   .     S
O272   H273    0.990   .     S
S274   O277    1.681   .     S
S274   O276    1.504   .     D
S274   O275    1.501   .     D
O277   H278    0.991   .     S
S285   O287    1.502   .     D
S285   O288    1.677   .     S
S285   O286    1.504   .     D
O288   H289    0.991   .     S
S290   O292    1.501   .     D
S290   O293    1.671   .     S
S290   O291    1.505   .     D
O293   H294    0.989   .     S
C297   C317    1.426   .     S
C297   O329    1.292   .     A
C297   O331    1.285   .     A
C298   C318    1.438   .     S
C298   O330    1.296   .     A
C298   O332    1.289   .     A
C299   C307    1.416   .     A
C299   C301    1.416   .     A
C299   H355    1.082   .     S
C300   H356    1.082   .     S
C300   C308    1.415   .     A
C300   C302    1.418   .     A
C301   H357    1.081   .     S
C301   N327    1.367   .     A
C302   N328    1.367   .     A
C302   H358    1.080   .     S
C303   S359    1.783   .     S
C303   N327    1.396   .     A
C303   C305    1.407   .     A
C304   S364    1.786   .     S
C304   N328    1.396   .     A
C304   C306    1.404   .     A
C305   C307    1.386   .     A
C305   H369    1.081   .     S
C306   H370    1.083   .     S
C306   C308    1.385   .     A
C307   C752    1.518   1_554 S
C308   C751    1.518   .     S
C309   O333    1.287   .     A
C309   C311    1.400   .     S
C309   O335    1.279   .     A
C310   O336    1.283   .     A
C310   O334    1.283   .     A
C310   C312    1.401   .     S
C312   C385    1.322   .     S
C312   H400    1.084   .     S
C313   H339    1.083   .     S
C313   C315    1.383   .     A
C313   C323    1.397   .     A
C314   H340    1.083   .     S
C314   C316    1.383   .     A
C314   C324    1.395   .     A
C315   H341    1.082   .     S
C315   C317    1.397   .     A
C316   H342    1.084   .     S
C316   C318    1.401   .     A
C317   C319    1.403   .     A
C318   C320    1.412   .     A
C319   S343    1.768   .     S
C319   C321    1.384   .     A
C320   S348    1.772   .     S
C320   C322    1.383   .     A
C321   C323    1.399   .     A
C321   H353    1.083   .     S
C322   H354    1.084   .     S
C322   C324    1.396   .     A
C324   C101    1.446   1_565 S
H325   C385    1.088   .     S
N327   Zn338   2.021   .     S
N328   Zn337   2.021   .     S
O329   Zn337   2.004   .     S
O330   Zn338   2.004   .     S
O331   Zn338   1.989   .     S
O332   Zn337   1.989   .     S
O333   Zn337   1.978   .     S
O334   Zn338   1.978   .     S
O335   Zn338   1.976   .     S
O336   Zn337   1.976   .     S
S343   O344    1.502   .     D
S343   O345    1.503   .     D
S343   O346    1.680   .     S
O346   H347    0.990   .     S
S348   O351    1.681   .     S
S348   O350    1.504   .     D
S348   O349    1.501   .     D
O351   H352    0.991   .     S
S359   O361    1.502   .     D
S359   O362    1.677   .     S
S359   O360    1.504   .     D
O362   H363    0.991   .     S
S364   O366    1.501   .     D
S364   O367    1.671   .     S
S364   O365    1.505   .     D
O367   H368    0.989   .     S
C371   C391    1.426   .     S
C371   O403    1.292   .     A
C371   O405    1.285   .     A
C372   C392    1.438   .     S
C372   O404    1.296   .     A
C372   O406    1.289   .     A
C373   C381    1.416   .     A
C373   C375    1.416   .     A
C373   H429    1.082   .     S
C374   H430    1.082   .     S
C374   C382    1.415   .     A
C374   C376    1.418   .     A
C375   H431    1.081   .     S
C375   N401    1.367   .     A
C376   N402    1.367   .     A
C376   H432    1.080   .     S
C377   S433    1.783   .     S
C377   N401    1.396   .     A
C377   C379    1.407   .     A
C378   S438    1.786   .     S
C378   N402    1.396   .     A
C378   C380    1.404   .     A
C379   C381    1.386   .     A
C379   H443    1.081   .     S
C380   H444    1.083   .     S
C380   C382    1.385   .     A
C381   C826    1.518   1_554 S
C382   C825    1.518   .     S
C383   O407    1.287   .     A
C383   C385    1.400   .     S
C383   O409    1.279   .     A
C384   O410    1.283   .     A
C384   O408    1.283   .     A
C384   C386    1.401   .     S
C386   C237    1.322   1_655 S
C386   H252    1.084   1_655 S
C387   H413    1.083   .     S
C387   C389    1.383   .     A
C387   C397    1.397   .     A
C388   H414    1.083   .     S
C388   C390    1.383   .     A
C388   C398    1.395   .     A
C389   H415    1.082   .     S
C389   C391    1.397   .     A
C390   H416    1.084   .     S
C390   C392    1.401   .     A
C391   C393    1.403   .     A
C392   C394    1.412   .     A
C393   S417    1.768   .     S
C393   C395    1.384   .     A
C394   S422    1.772   .     S
C394   C396    1.383   .     A
C395   C397    1.399   .     A
C395   H427    1.083   .     S
C396   H428    1.084   .     S
C396   C398    1.396   .     A
C398   C175    1.446   1_565 S
H399   C237    1.088   1_655 S
N401   Zn412   2.021   .     S
N402   Zn411   2.021   .     S
O403   Zn411   2.004   .     S
O404   Zn412   2.004   .     S
O405   Zn412   1.989   .     S
O406   Zn411   1.989   .     S
O407   Zn411   1.978   .     S
O408   Zn412   1.978   .     S
O409   Zn412   1.976   .     S
O410   Zn411   1.976   .     S
S417   O418    1.502   .     D
S417   O419    1.503   .     D
S417   O420    1.680   .     S
O420   H421    0.990   .     S
S422   O425    1.681   .     S
S422   O424    1.504   .     D
S422   O423    1.501   .     D
O425   H426    0.991   .     S
S433   O435    1.502   .     D
S433   O436    1.677   .     S
S433   O434    1.504   .     D
O436   H437    0.991   .     S
S438   O440    1.501   .     D
S438   O441    1.671   .     S
S438   O439    1.505   .     D
O441   H442    0.989   .     S
C445   C465    1.426   .     S
C445   O477    1.292   .     A
C445   O479    1.285   .     A
C446   C466    1.438   .     S
C446   O478    1.296   .     A
C446   O480    1.289   .     A
C447   C455    1.416   .     A
C447   C449    1.416   .     A
C447   H503    1.082   .     S
C448   H504    1.082   .     S
C448   C456    1.415   .     A
C448   C450    1.418   .     A
C449   H505    1.081   .     S
C449   N475    1.367   .     A
C450   N476    1.367   .     A
C450   H506    1.080   .     S
C451   S507    1.783   .     S
C451   N475    1.396   .     A
C451   C453    1.407   .     A
C452   S512    1.786   .     S
C452   N476    1.396   .     A
C452   C454    1.404   .     A
C453   C455    1.386   .     A
C453   H517    1.081   .     S
C454   H518    1.083   .     S
C454   C456    1.385   .     A
C456   C11     1.518   1_556 S
C457   O481    1.287   .     A
C457   C459    1.400   .     S
C457   O483    1.279   .     A
C458   O484    1.283   .     A
C458   O482    1.283   .     A
C458   C460    1.401   .     S
C459   C608    1.322   1_455 S
C459   H621    1.088   1_455 S
C460   C533    1.322   .     S
C460   H548    1.084   .     S
C461   H487    1.083   .     S
C461   C463    1.383   .     A
C461   C471    1.397   .     A
C462   H488    1.083   .     S
C462   C464    1.383   .     A
C462   C472    1.395   .     A
C463   H489    1.082   .     S
C463   C465    1.397   .     A
C464   H490    1.084   .     S
C464   C466    1.401   .     A
C465   C467    1.403   .     A
C466   C468    1.412   .     A
C467   S491    1.768   .     S
C467   C469    1.384   .     A
C468   S496    1.772   .     S
C468   C470    1.383   .     A
C469   C471    1.399   .     A
C469   H501    1.083   .     S
C470   H502    1.084   .     S
C470   C472    1.396   .     A
C471   C694    1.446   1_545 S
C472   C693    1.446   .     S
H473   C533    1.088   .     S
H474   C608    1.084   1_455 S
N475   Zn486   2.021   .     S
N476   Zn485   2.021   .     S
O477   Zn485   2.004   .     S
O478   Zn486   2.004   .     S
O479   Zn486   1.989   .     S
O480   Zn485   1.989   .     S
O481   Zn485   1.978   .     S
O482   Zn486   1.978   .     S
O483   Zn486   1.976   .     S
O484   Zn485   1.976   .     S
S491   O492    1.502   .     D
S491   O493    1.503   .     D
S491   O494    1.680   .     S
O494   H495    0.990   .     S
S496   O499    1.681   .     S
S496   O498    1.504   .     D
S496   O497    1.501   .     D
O499   H500    0.991   .     S
S507   O509    1.502   .     D
S507   O510    1.677   .     S
S507   O508    1.504   .     D
O510   H511    0.991   .     S
S512   O514    1.501   .     D
S512   O515    1.671   .     S
S512   O513    1.505   .     D
O515   H516    0.989   .     S
C519   C539    1.426   .     S
C519   O551    1.292   .     A
C519   O553    1.285   .     A
C520   C540    1.438   .     S
C520   O552    1.296   .     A
C520   O554    1.289   .     A
C521   C529    1.416   .     A
C521   C523    1.416   .     A
C521   H577    1.082   .     S
C522   H578    1.082   .     S
C522   C530    1.415   .     A
C522   C524    1.418   .     A
C523   H579    1.081   .     S
C523   N549    1.367   .     A
C524   N550    1.367   .     A
C524   H580    1.080   .     S
C525   S581    1.783   .     S
C525   N549    1.396   .     A
C525   C527    1.407   .     A
C526   S586    1.786   .     S
C526   N550    1.396   .     A
C526   C528    1.404   .     A
C527   C529    1.386   .     A
C527   H591    1.081   .     S
C528   H592    1.083   .     S
C528   C530    1.385   .     A
C530   C85     1.518   1_556 S
C531   O555    1.287   .     A
C531   C533    1.400   .     S
C531   O557    1.279   .     A
C532   O558    1.283   .     A
C532   O556    1.283   .     A
C532   C534    1.401   .     S
C534   C607    1.322   .     S
C534   H622    1.084   .     S
C535   H561    1.083   .     S
C535   C537    1.383   .     A
C535   C545    1.397   .     A
C536   H562    1.083   .     S
C536   C538    1.383   .     A
C536   C546    1.395   .     A
C537   H563    1.082   .     S
C537   C539    1.397   .     A
C538   H564    1.084   .     S
C538   C540    1.401   .     A
C539   C541    1.403   .     A
C540   C542    1.412   .     A
C541   S565    1.768   .     S
C541   C543    1.384   .     A
C542   S570    1.772   .     S
C542   C544    1.383   .     A
C543   C545    1.399   .     A
C543   H575    1.083   .     S
C544   H576    1.084   .     S
C544   C546    1.396   .     A
C545   C768    1.446   1_545 S
C546   C767    1.446   .     S
H547   C607    1.088   .     S
N549   Zn560   2.021   .     S
N550   Zn559   2.021   .     S
O551   Zn559   2.004   .     S
O552   Zn560   2.004   .     S
O553   Zn560   1.989   .     S
O554   Zn559   1.989   .     S
O555   Zn559   1.978   .     S
O556   Zn560   1.978   .     S
O557   Zn560   1.976   .     S
O558   Zn559   1.976   .     S
S565   O566    1.502   .     D
S565   O567    1.503   .     D
S565   O568    1.680   .     S
O568   H569    0.990   .     S
S570   O573    1.681   .     S
S570   O572    1.504   .     D
S570   O571    1.501   .     D
O573   H574    0.991   .     S
S581   O583    1.502   .     D
S581   O584    1.677   .     S
S581   O582    1.504   .     D
O584   H585    0.991   .     S
S586   O588    1.501   .     D
S586   O589    1.671   .     S
S586   O587    1.505   .     D
O589   H590    0.989   .     S
C593   C613    1.426   .     S
C593   O625    1.292   .     A
C593   O627    1.285   .     A
C594   C614    1.438   .     S
C594   O626    1.296   .     A
C594   O628    1.289   .     A
C595   C603    1.416   .     A
C595   C597    1.416   .     A
C595   H651    1.082   .     S
C596   H652    1.082   .     S
C596   C604    1.415   .     A
C596   C598    1.418   .     A
C597   H653    1.081   .     S
C597   N623    1.367   .     A
C598   N624    1.367   .     A
C598   H654    1.080   .     S
C599   S655    1.783   .     S
C599   N623    1.396   .     A
C599   C601    1.407   .     A
C600   S660    1.786   .     S
C600   N624    1.396   .     A
C600   C602    1.404   .     A
C601   C603    1.386   .     A
C601   H665    1.081   .     S
C602   H666    1.083   .     S
C602   C604    1.385   .     A
C604   C159    1.518   1_556 S
C605   O629    1.287   .     A
C605   C607    1.400   .     S
C605   O631    1.279   .     A
C606   O632    1.283   .     A
C606   O630    1.283   .     A
C606   C608    1.401   .     S
C608   C459    1.322   1_655 S
C608   H474    1.084   1_655 S
C609   H635    1.083   .     S
C609   C611    1.383   .     A
C609   C619    1.397   .     A
C610   H636    1.083   .     S
C610   C612    1.383   .     A
C610   C620    1.395   .     A
C611   H637    1.082   .     S
C611   C613    1.397   .     A
C612   H638    1.084   .     S
C612   C614    1.401   .     A
C613   C615    1.403   .     A
C614   C616    1.412   .     A
C615   S639    1.768   .     S
C615   C617    1.384   .     A
C616   S644    1.772   .     S
C616   C618    1.383   .     A
C617   C619    1.399   .     A
C617   H649    1.083   .     S
C618   H650    1.084   .     S
C618   C620    1.396   .     A
C619   C842    1.446   1_545 S
C620   C841    1.446   .     S
H621   C459    1.088   1_655 S
N623   Zn634   2.021   .     S
N624   Zn633   2.021   .     S
O625   Zn633   2.004   .     S
O626   Zn634   2.004   .     S
O627   Zn634   1.989   .     S
O628   Zn633   1.989   .     S
O629   Zn633   1.978   .     S
O630   Zn634   1.978   .     S
O631   Zn634   1.976   .     S
O632   Zn633   1.976   .     S
S639   O640    1.502   .     D
S639   O641    1.503   .     D
S639   O642    1.680   .     S
O642   H643    0.990   .     S
S644   O647    1.681   .     S
S644   O646    1.504   .     D
S644   O645    1.501   .     D
O647   H648    0.991   .     S
S655   O657    1.502   .     D
S655   O658    1.677   .     S
S655   O656    1.504   .     D
O658   H659    0.991   .     S
S660   O662    1.501   .     D
S660   O663    1.671   .     S
S660   O661    1.505   .     D
O663   H664    0.989   .     S
C667   C687    1.426   .     S
C667   O699    1.292   .     A
C667   O701    1.285   .     A
C668   C688    1.438   .     S
C668   O700    1.296   .     A
C668   O702    1.289   .     A
C669   C677    1.416   .     A
C669   C671    1.416   .     A
C669   H725    1.082   .     S
C670   H726    1.082   .     S
C670   C678    1.415   .     A
C670   C672    1.418   .     A
C671   H727    1.081   .     S
C671   N697    1.367   .     A
C672   N698    1.367   .     A
C672   H728    1.080   .     S
C673   S729    1.783   .     S
C673   N697    1.396   .     A
C673   C675    1.407   .     A
C674   S734    1.786   .     S
C674   N698    1.396   .     A
C674   C676    1.404   .     A
C675   C677    1.386   .     A
C675   H739    1.081   .     S
C676   H740    1.083   .     S
C676   C678    1.385   .     A
C678   C233    1.518   1_556 S
C679   O703    1.287   .     A
C679   C681    1.400   .     S
C679   O705    1.279   .     A
C680   O706    1.283   .     A
C680   O704    1.283   .     A
C680   C682    1.401   .     S
C681   C830    1.322   1_455 S
C681   H843    1.088   1_455 S
C682   C755    1.322   .     S
C682   H770    1.084   .     S
C683   H709    1.083   .     S
C683   C685    1.383   .     A
C683   C693    1.397   .     A
C684   H710    1.083   .     S
C684   C686    1.383   .     A
C684   C694    1.395   .     A
C685   H711    1.082   .     S
C685   C687    1.397   .     A
C686   H712    1.084   .     S
C686   C688    1.401   .     A
C687   C689    1.403   .     A
C688   C690    1.412   .     A
C689   S713    1.768   .     S
C689   C691    1.384   .     A
C690   S718    1.772   .     S
C690   C692    1.383   .     A
C691   C693    1.399   .     A
C691   H723    1.083   .     S
C692   H724    1.084   .     S
C692   C694    1.396   .     A
C694   C471    1.446   1_565 S
H695   C755    1.088   .     S
H696   C830    1.084   1_455 S
N697   Zn708   2.021   .     S
N698   Zn707   2.021   .     S
O699   Zn707   2.004   .     S
O700   Zn708   2.004   .     S
O701   Zn708   1.989   .     S
O702   Zn707   1.989   .     S
O703   Zn707   1.978   .     S
O704   Zn708   1.978   .     S
O705   Zn708   1.976   .     S
O706   Zn707   1.976   .     S
S713   O714    1.502   .     D
S713   O715    1.503   .     D
S713   O716    1.680   .     S
O716   H717    0.990   .     S
S718   O721    1.681   .     S
S718   O720    1.504   .     D
S718   O719    1.501   .     D
O721   H722    0.991   .     S
S729   O731    1.502   .     D
S729   O732    1.677   .     S
S729   O730    1.504   .     D
O732   H733    0.991   .     S
S734   O736    1.501   .     D
S734   O737    1.671   .     S
S734   O735    1.505   .     D
O737   H738    0.989   .     S
C741   C761    1.426   .     S
C741   O773    1.292   .     A
C741   O775    1.285   .     A
C742   C762    1.438   .     S
C742   O774    1.296   .     A
C742   O776    1.289   .     A
C743   C751    1.416   .     A
C743   C745    1.416   .     A
C743   H799    1.082   .     S
C744   H800    1.082   .     S
C744   C752    1.415   .     A
C744   C746    1.418   .     A
C745   H801    1.081   .     S
C745   N771    1.367   .     A
C746   N772    1.367   .     A
C746   H802    1.080   .     S
C747   S803    1.783   .     S
C747   N771    1.396   .     A
C747   C749    1.407   .     A
C748   S808    1.786   .     S
C748   N772    1.396   .     A
C748   C750    1.404   .     A
C749   C751    1.386   .     A
C749   H813    1.081   .     S
C750   H814    1.083   .     S
C750   C752    1.385   .     A
C752   C307    1.518   1_556 S
C753   O777    1.287   .     A
C753   C755    1.400   .     S
C753   O779    1.279   .     A
C754   O780    1.283   .     A
C754   O778    1.283   .     A
C754   C756    1.401   .     S
C756   C829    1.322   .     S
C756   H844    1.084   .     S
C757   H783    1.083   .     S
C757   C759    1.383   .     A
C757   C767    1.397   .     A
C758   H784    1.083   .     S
C758   C760    1.383   .     A
C758   C768    1.395   .     A
C759   H785    1.082   .     S
C759   C761    1.397   .     A
C760   H786    1.084   .     S
C760   C762    1.401   .     A
C761   C763    1.403   .     A
C762   C764    1.412   .     A
C763   S787    1.768   .     S
C763   C765    1.384   .     A
C764   S792    1.772   .     S
C764   C766    1.383   .     A
C765   C767    1.399   .     A
C765   H797    1.083   .     S
C766   H798    1.084   .     S
C766   C768    1.396   .     A
C768   C545    1.446   1_565 S
H769   C829    1.088   .     S
N771   Zn782   2.021   .     S
N772   Zn781   2.021   .     S
O773   Zn781   2.004   .     S
O774   Zn782   2.004   .     S
O775   Zn782   1.989   .     S
O776   Zn781   1.989   .     S
O777   Zn781   1.978   .     S
O778   Zn782   1.978   .     S
O779   Zn782   1.976   .     S
O780   Zn781   1.976   .     S
S787   O788    1.502   .     D
S787   O789    1.503   .     D
S787   O790    1.680   .     S
O790   H791    0.990   .     S
S792   O795    1.681   .     S
S792   O794    1.504   .     D
S792   O793    1.501   .     D
O795   H796    0.991   .     S
S803   O805    1.502   .     D
S803   O806    1.677   .     S
S803   O804    1.504   .     D
O806   H807    0.991   .     S
S808   O810    1.501   .     D
S808   O811    1.671   .     S
S808   O809    1.505   .     D
O811   H812    0.989   .     S
C815   C835    1.426   .     S
C815   O847    1.292   .     A
C815   O849    1.285   .     A
C816   C836    1.438   .     S
C816   O848    1.296   .     A
C816   O850    1.289   .     A
C817   C825    1.416   .     A
C817   C819    1.416   .     A
C817   H873    1.082   .     S
C818   H874    1.082   .     S
C818   C826    1.415   .     A
C818   C820    1.418   .     A
C819   H875    1.081   .     S
C819   N845    1.367   .     A
C820   N846    1.367   .     A
C820   H876    1.080   .     S
C821   S877    1.783   .     S
C821   N845    1.396   .     A
C821   C823    1.407   .     A
C822   S882    1.786   .     S
C822   N846    1.396   .     A
C822   C824    1.404   .     A
C823   C825    1.386   .     A
C823   H887    1.081   .     S
C824   H888    1.083   .     S
C824   C826    1.385   .     A
C826   C381    1.518   1_556 S
C827   O851    1.287   .     A
C827   C829    1.400   .     S
C827   O853    1.279   .     A
C828   O854    1.283   .     A
C828   O852    1.283   .     A
C828   C830    1.401   .     S
C830   C681    1.322   1_655 S
C830   H696    1.084   1_655 S
C831   H857    1.083   .     S
C831   C833    1.383   .     A
C831   C841    1.397   .     A
C832   H858    1.083   .     S
C832   C834    1.383   .     A
C832   C842    1.395   .     A
C833   H859    1.082   .     S
C833   C835    1.397   .     A
C834   H860    1.084   .     S
C834   C836    1.401   .     A
C835   C837    1.403   .     A
C836   C838    1.412   .     A
C837   S861    1.768   .     S
C837   C839    1.384   .     A
C838   S866    1.772   .     S
C838   C840    1.383   .     A
C839   C841    1.399   .     A
C839   H871    1.083   .     S
C840   H872    1.084   .     S
C840   C842    1.396   .     A
C842   C619    1.446   1_565 S
H843   C681    1.088   1_655 S
N845   Zn856   2.021   .     S
N846   Zn855   2.021   .     S
O847   Zn855   2.004   .     S
O848   Zn856   2.004   .     S
O849   Zn856   1.989   .     S
O850   Zn855   1.989   .     S
O851   Zn855   1.978   .     S
O852   Zn856   1.978   .     S
O853   Zn856   1.976   .     S
O854   Zn855   1.976   .     S
S861   O862    1.502   .     D
S861   O863    1.503   .     D
S861   O864    1.680   .     S
O864   H865    0.990   .     S
S866   O869    1.681   .     S
S866   O868    1.504   .     D
S866   O867    1.501   .     D
O869   H870    0.991   .     S
S877   O879    1.502   .     D
S877   O880    1.677   .     S
S877   O878    1.504   .     D
O880   H881    0.991   .     S
S882   O884    1.501   .     D
S882   O885    1.671   .     S
S882   O883    1.505   .     D
O885   H886    0.989   .     S
