data_str_m3_o10_o17_pcu_sym.123
_audit_creation_date              2020-01-03
_audit_creation_method            'Materials Studio'
_symmetry_space_group_name_H-M    'P1'
_symmetry_Int_Tables_number       1
_symmetry_cell_setting            triclinic
loop_
_symmetry_equiv_pos_as_xyz
  x,y,z
_cell_length_a                    23.1773
_cell_length_b                    26.4879
_cell_length_c                    29.9495
_cell_angle_alpha                 89.1164
_cell_angle_beta                  85.8677
_cell_angle_gamma                 93.5643
loop_
_atom_site_label
_atom_site_type_symbol
_atom_site_fract_x
_atom_site_fract_y
_atom_site_fract_z
_atom_site_U_iso_or_equiv
_atom_site_adp_type
_atom_site_occupancy
C1     C     0.18197   0.26484   0.24817   0.00000  Uiso   1.00
C2     C     0.19236   0.20873   0.40451   0.00000  Uiso   1.00
C3     C     0.16219   0.16826   0.11598   0.00000  Uiso   1.00
C4     C     0.17115   0.16507   0.38402   0.00000  Uiso   1.00
C5     C     0.17715   0.21315   0.09158   0.00000  Uiso   1.00
C6     C     0.15619   0.12018   0.40842   0.00000  Uiso   1.00
C7     C     0.18107   0.21239   0.04498   0.00000  Uiso   1.00
C8     C     0.15226   0.12095   0.45502   0.00000  Uiso   1.00
C9     C     0.16502   0.16714   0.02346   0.00000  Uiso   1.00
C10    C     0.16831   0.16620   0.47654   0.00000  Uiso   1.00
C11    C     0.14431   0.12321   0.04878   0.00000  Uiso   1.00
C12    C     0.15136   0.06849   0.25183   0.00000  Uiso   1.00
C13    C     0.18903   0.21012   0.45122   0.00000  Uiso   1.00
C14    C     0.20102   0.25564   0.01942   0.00000  Uiso   1.00
C15    C     0.13231   0.07769   0.48058   0.00000  Uiso   1.00
C16    C     0.24794   0.00759   0.21869   0.00000  Uiso   1.00
C17    C     0.29435   0.30621   0.20027   0.00000  Uiso   1.00
C18    C     0.08540   0.32575   0.28131   0.00000  Uiso   1.00
C19    C     0.03898   0.02712   0.29973   0.00000  Uiso   1.00
C20    C     0.20516   0.25445   0.47321   0.00000  Uiso   1.00
C21    C     0.12817   0.07888   0.02679   0.00000  Uiso   1.00
C22    C     0.18970   0.31885   0.24285   0.00000  Uiso   1.00
C23    C     0.14364   0.01448   0.25715   0.00000  Uiso   1.00
C24    C     0.16767   0.16571   0.33648   0.00000  Uiso   1.00
C25    C     0.16566   0.16763   0.16352   0.00000  Uiso   1.00
C26    C     0.14097   0.12460   0.09549   0.00000  Uiso   1.00
H27    H     0.21471   0.29073   0.03453   0.00000  Uiso   1.00
H28    H     0.23790   0.03169   0.18987   0.00000  Uiso   1.00
H29    H     0.27101   0.03058   0.24300   0.00000  Uiso   1.00
H30    H     0.05567   0.05548   0.32298   0.00000  Uiso   1.00
H31    H     0.01997   0.04679   0.27205   0.00000  Uiso   1.00
H32    H     0.00335   0.00384   0.31820   0.00000  Uiso   1.00
H33    H     0.06232   0.30276   0.25700   0.00000  Uiso   1.00
H34    H     0.09543   0.30165   0.31013   0.00000  Uiso   1.00
H35    H     0.11863   0.04260   0.46547   0.00000  Uiso   1.00
H36    H     0.22034   0.28897   0.45523   0.00000  Uiso   1.00
H37    H     0.11300   0.04437   0.04477   0.00000  Uiso   1.00
H38    H     0.00530   0.12847   0.21710   0.00000  Uiso   1.00
H39    H     0.32803   0.20486   0.28290   0.00000  Uiso   1.00
H40    H     0.31336   0.28655   0.22795   0.00000  Uiso   1.00
H41    H     0.27767   0.27786   0.17702   0.00000  Uiso   1.00
H42    H     0.32998   0.32949   0.18180   0.00000  Uiso   1.00
I43    I     0.09713   0.06470   0.13617   0.00000  Uiso   1.00
I44    I     0.23621   0.26864   0.36383   0.00000  Uiso   1.00
I45    I     0.18142   0.28291   0.12542   0.00000  Uiso   1.00
I46    I     0.15191   0.05042   0.37458   0.00000  Uiso   1.00
N47    N     0.31678   0.15265   0.23783   0.00000  Uiso   1.00
N48    N     0.01656   0.18068   0.26217   0.00000  Uiso   1.00
O49    O     0.12975   0.24619   0.25298   0.00000  Uiso   1.00
O50    O     0.20358   0.08714   0.24702   0.00000  Uiso   1.00
O51    O     0.22613   0.23721   0.24518   0.00000  Uiso   1.00
O52    O     0.10720   0.09613   0.25482   0.00000  Uiso   1.00
O53    O     0.11847   0.17117   0.31998   0.00000  Uiso   1.00
O54    O     0.21486   0.16216   0.18002   0.00000  Uiso   1.00
O55    O     0.21485   0.16219   0.31218   0.00000  Uiso   1.00
O56    O     0.11848   0.17115   0.18782   0.00000  Uiso   1.00
Zn57   Zn    0.10231   0.17266   0.25521   0.00000  Uiso   1.00
Zn58   Zn    0.23102   0.16067   0.24479   0.00000  Uiso   1.00
C59    C     0.51531   0.26484   0.24817   0.00000  Uiso   1.00
C60    C     0.52569   0.20873   0.40451   0.00000  Uiso   1.00
C61    C     0.49552   0.16826   0.11598   0.00000  Uiso   1.00
C62    C     0.50448   0.16507   0.38402   0.00000  Uiso   1.00
C63    C     0.51048   0.21315   0.09158   0.00000  Uiso   1.00
C64    C     0.48952   0.12018   0.40842   0.00000  Uiso   1.00
C65    C     0.51441   0.21239   0.04498   0.00000  Uiso   1.00
C66    C     0.48559   0.12095   0.45502   0.00000  Uiso   1.00
C67    C     0.49835   0.16714   0.02346   0.00000  Uiso   1.00
C68    C     0.50165   0.16620   0.47654   0.00000  Uiso   1.00
C69    C     0.47764   0.12321   0.04878   0.00000  Uiso   1.00
C70    C     0.48470   0.06849   0.25183   0.00000  Uiso   1.00
C71    C     0.52236   0.21012   0.45122   0.00000  Uiso   1.00
C72    C     0.53435   0.25564   0.01942   0.00000  Uiso   1.00
C73    C     0.46565   0.07769   0.48058   0.00000  Uiso   1.00
C74    C     0.58127   0.00759   0.21869   0.00000  Uiso   1.00
C75    C     0.62769   0.30621   0.20027   0.00000  Uiso   1.00
C76    C     0.41873   0.32575   0.28131   0.00000  Uiso   1.00
C77    C     0.37231   0.02712   0.29973   0.00000  Uiso   1.00
C78    C     0.53850   0.25445   0.47321   0.00000  Uiso   1.00
C79    C     0.46150   0.07888   0.02679   0.00000  Uiso   1.00
C80    C     0.52303   0.31885   0.24285   0.00000  Uiso   1.00
C81    C     0.47697   0.01448   0.25715   0.00000  Uiso   1.00
C82    C     0.50101   0.16571   0.33648   0.00000  Uiso   1.00
C83    C     0.49899   0.16763   0.16352   0.00000  Uiso   1.00
C84    C     0.47431   0.12460   0.09549   0.00000  Uiso   1.00
H85    H     0.54804   0.29073   0.03453   0.00000  Uiso   1.00
H86    H     0.57124   0.03169   0.18987   0.00000  Uiso   1.00
H87    H     0.60434   0.03058   0.24300   0.00000  Uiso   1.00
H88    H     0.38900   0.05548   0.32298   0.00000  Uiso   1.00
H89    H     0.35331   0.04679   0.27205   0.00000  Uiso   1.00
H90    H     0.33668   0.00384   0.31820   0.00000  Uiso   1.00
H91    H     0.39566   0.30276   0.25700   0.00000  Uiso   1.00
H92    H     0.42876   0.30165   0.31013   0.00000  Uiso   1.00
H93    H     0.45196   0.04260   0.46547   0.00000  Uiso   1.00
H94    H     0.55367   0.28897   0.45523   0.00000  Uiso   1.00
H95    H     0.44633   0.04437   0.04477   0.00000  Uiso   1.00
H96    H     0.33863   0.12847   0.21710   0.00000  Uiso   1.00
H97    H     0.66137   0.20486   0.28290   0.00000  Uiso   1.00
H98    H     0.64669   0.28655   0.22795   0.00000  Uiso   1.00
H99    H     0.61100   0.27786   0.17702   0.00000  Uiso   1.00
H100   H     0.66332   0.32949   0.18180   0.00000  Uiso   1.00
I101   I     0.43046   0.06470   0.13617   0.00000  Uiso   1.00
I102   I     0.56954   0.26864   0.36383   0.00000  Uiso   1.00
I103   I     0.51476   0.28291   0.12542   0.00000  Uiso   1.00
I104   I     0.48524   0.05042   0.37458   0.00000  Uiso   1.00
N105   N     0.65011   0.15265   0.23783   0.00000  Uiso   1.00
N106   N     0.34989   0.18068   0.26217   0.00000  Uiso   1.00
O107   O     0.46308   0.24619   0.25298   0.00000  Uiso   1.00
O108   O     0.53692   0.08714   0.24702   0.00000  Uiso   1.00
O109   O     0.55946   0.23721   0.24518   0.00000  Uiso   1.00
O110   O     0.44054   0.09613   0.25482   0.00000  Uiso   1.00
O111   O     0.45181   0.17117   0.31998   0.00000  Uiso   1.00
O112   O     0.54819   0.16216   0.18002   0.00000  Uiso   1.00
O113   O     0.54819   0.16219   0.31218   0.00000  Uiso   1.00
O114   O     0.45181   0.17115   0.18782   0.00000  Uiso   1.00
Zn115  Zn    0.43565   0.17266   0.25521   0.00000  Uiso   1.00
Zn116  Zn    0.56435   0.16067   0.24479   0.00000  Uiso   1.00
C117   C     0.84864   0.26484   0.24817   0.00000  Uiso   1.00
C118   C     0.85903   0.20873   0.40451   0.00000  Uiso   1.00
C119   C     0.82885   0.16826   0.11598   0.00000  Uiso   1.00
C120   C     0.83782   0.16507   0.38402   0.00000  Uiso   1.00
C121   C     0.84381   0.21315   0.09158   0.00000  Uiso   1.00
C122   C     0.82285   0.12018   0.40842   0.00000  Uiso   1.00
C123   C     0.84774   0.21239   0.04498   0.00000  Uiso   1.00
C124   C     0.81893   0.12095   0.45502   0.00000  Uiso   1.00
C125   C     0.83169   0.16714   0.02346   0.00000  Uiso   1.00
C126   C     0.83498   0.16620   0.47654   0.00000  Uiso   1.00
C127   C     0.81097   0.12321   0.04878   0.00000  Uiso   1.00
C128   C     0.81803   0.06849   0.25183   0.00000  Uiso   1.00
C129   C     0.85569   0.21012   0.45122   0.00000  Uiso   1.00
C130   C     0.86769   0.25564   0.01942   0.00000  Uiso   1.00
C131   C     0.79898   0.07769   0.48058   0.00000  Uiso   1.00
C132   C     0.91460   0.00759   0.21869   0.00000  Uiso   1.00
C133   C     0.96102   0.30621   0.20027   0.00000  Uiso   1.00
C134   C     0.75207   0.32575   0.28131   0.00000  Uiso   1.00
C135   C     0.70565   0.02712   0.29973   0.00000  Uiso   1.00
C136   C     0.87183   0.25445   0.47321   0.00000  Uiso   1.00
C137   C     0.79484   0.07888   0.02679   0.00000  Uiso   1.00
C138   C     0.85636   0.31885   0.24285   0.00000  Uiso   1.00
C139   C     0.81030   0.01448   0.25715   0.00000  Uiso   1.00
C140   C     0.83434   0.16571   0.33648   0.00000  Uiso   1.00
C141   C     0.83233   0.16763   0.16352   0.00000  Uiso   1.00
C142   C     0.80764   0.12460   0.09549   0.00000  Uiso   1.00
H143   H     0.88137   0.29073   0.03453   0.00000  Uiso   1.00
H144   H     0.90457   0.03169   0.18987   0.00000  Uiso   1.00
H145   H     0.93768   0.03058   0.24300   0.00000  Uiso   1.00
H146   H     0.72233   0.05548   0.32298   0.00000  Uiso   1.00
H147   H     0.68664   0.04679   0.27205   0.00000  Uiso   1.00
H148   H     0.67002   0.00384   0.31820   0.00000  Uiso   1.00
H149   H     0.72899   0.30276   0.25700   0.00000  Uiso   1.00
H150   H     0.76210   0.30165   0.31013   0.00000  Uiso   1.00
H151   H     0.78529   0.04260   0.46547   0.00000  Uiso   1.00
H152   H     0.88700   0.28897   0.45523   0.00000  Uiso   1.00
H153   H     0.77966   0.04437   0.04477   0.00000  Uiso   1.00
H154   H     0.67197   0.12847   0.21710   0.00000  Uiso   1.00
H155   H     0.99470   0.20486   0.28290   0.00000  Uiso   1.00
H156   H     0.98003   0.28655   0.22795   0.00000  Uiso   1.00
H157   H     0.94434   0.27786   0.17702   0.00000  Uiso   1.00
H158   H     0.99665   0.32949   0.18180   0.00000  Uiso   1.00
I159   I     0.76379   0.06470   0.13617   0.00000  Uiso   1.00
I160   I     0.90288   0.26864   0.36383   0.00000  Uiso   1.00
I161   I     0.84809   0.28291   0.12542   0.00000  Uiso   1.00
I162   I     0.81858   0.05042   0.37458   0.00000  Uiso   1.00
N163   N     0.98344   0.15265   0.23783   0.00000  Uiso   1.00
N164   N     0.68322   0.18068   0.26217   0.00000  Uiso   1.00
O165   O     0.79642   0.24619   0.25298   0.00000  Uiso   1.00
O166   O     0.87025   0.08714   0.24702   0.00000  Uiso   1.00
O167   O     0.89280   0.23721   0.24518   0.00000  Uiso   1.00
O168   O     0.77387   0.09613   0.25482   0.00000  Uiso   1.00
O169   O     0.78514   0.17117   0.31998   0.00000  Uiso   1.00
O170   O     0.88153   0.16216   0.18002   0.00000  Uiso   1.00
O171   O     0.88152   0.16219   0.31218   0.00000  Uiso   1.00
O172   O     0.78515   0.17115   0.18782   0.00000  Uiso   1.00
Zn173  Zn    0.76898   0.17266   0.25521   0.00000  Uiso   1.00
Zn174  Zn    0.89769   0.16067   0.24479   0.00000  Uiso   1.00
C175   C     0.18197   0.59817   0.24817   0.00000  Uiso   1.00
C176   C     0.19236   0.54206   0.40451   0.00000  Uiso   1.00
C177   C     0.16219   0.50160   0.11598   0.00000  Uiso   1.00
C178   C     0.17115   0.49840   0.38402   0.00000  Uiso   1.00
C179   C     0.17715   0.54648   0.09158   0.00000  Uiso   1.00
C180   C     0.15619   0.45352   0.40842   0.00000  Uiso   1.00
C181   C     0.18107   0.54572   0.04498   0.00000  Uiso   1.00
C182   C     0.15226   0.45428   0.45502   0.00000  Uiso   1.00
C183   C     0.16502   0.50047   0.02346   0.00000  Uiso   1.00
C184   C     0.16831   0.49953   0.47654   0.00000  Uiso   1.00
C185   C     0.14431   0.45654   0.04878   0.00000  Uiso   1.00
C186   C     0.15136   0.40183   0.25183   0.00000  Uiso   1.00
C187   C     0.18903   0.54346   0.45122   0.00000  Uiso   1.00
C188   C     0.20102   0.58897   0.01942   0.00000  Uiso   1.00
C189   C     0.13231   0.41103   0.48058   0.00000  Uiso   1.00
C190   C     0.24794   0.34092   0.21869   0.00000  Uiso   1.00
C191   C     0.29435   0.63955   0.20027   0.00000  Uiso   1.00
C192   C     0.08540   0.65908   0.28131   0.00000  Uiso   1.00
C193   C     0.03898   0.36045   0.29973   0.00000  Uiso   1.00
C194   C     0.20516   0.58779   0.47321   0.00000  Uiso   1.00
C195   C     0.12817   0.41221   0.02679   0.00000  Uiso   1.00
C196   C     0.18970   0.65219   0.24285   0.00000  Uiso   1.00
C197   C     0.14364   0.34782   0.25715   0.00000  Uiso   1.00
C198   C     0.16767   0.49904   0.33648   0.00000  Uiso   1.00
C199   C     0.16566   0.50096   0.16352   0.00000  Uiso   1.00
C200   C     0.14097   0.45794   0.09549   0.00000  Uiso   1.00
H201   H     0.21471   0.62406   0.03453   0.00000  Uiso   1.00
H202   H     0.23790   0.36502   0.18987   0.00000  Uiso   1.00
H203   H     0.27101   0.36391   0.24300   0.00000  Uiso   1.00
H204   H     0.05567   0.38881   0.32298   0.00000  Uiso   1.00
H205   H     0.01997   0.38012   0.27205   0.00000  Uiso   1.00
H206   H     0.00335   0.33718   0.31820   0.00000  Uiso   1.00
H207   H     0.06232   0.63609   0.25700   0.00000  Uiso   1.00
H208   H     0.09543   0.63498   0.31013   0.00000  Uiso   1.00
H209   H     0.11863   0.37594   0.46547   0.00000  Uiso   1.00
H210   H     0.22034   0.62230   0.45523   0.00000  Uiso   1.00
H211   H     0.11300   0.37770   0.04477   0.00000  Uiso   1.00
H212   H     0.00530   0.46181   0.21710   0.00000  Uiso   1.00
H213   H     0.32803   0.53819   0.28290   0.00000  Uiso   1.00
H214   H     0.31336   0.61988   0.22795   0.00000  Uiso   1.00
H215   H     0.27767   0.61119   0.17702   0.00000  Uiso   1.00
H216   H     0.32998   0.66282   0.18180   0.00000  Uiso   1.00
I217   I     0.09713   0.39803   0.13617   0.00000  Uiso   1.00
I218   I     0.23621   0.60197   0.36383   0.00000  Uiso   1.00
I219   I     0.18142   0.61624   0.12542   0.00000  Uiso   1.00
I220   I     0.15191   0.38376   0.37458   0.00000  Uiso   1.00
N221   N     0.31678   0.48598   0.23783   0.00000  Uiso   1.00
N222   N     0.01656   0.51402   0.26217   0.00000  Uiso   1.00
O223   O     0.12975   0.57952   0.25298   0.00000  Uiso   1.00
O224   O     0.20358   0.42048   0.24702   0.00000  Uiso   1.00
O225   O     0.22613   0.57054   0.24518   0.00000  Uiso   1.00
O226   O     0.10720   0.42946   0.25482   0.00000  Uiso   1.00
O227   O     0.11847   0.50450   0.31998   0.00000  Uiso   1.00
O228   O     0.21486   0.49550   0.18002   0.00000  Uiso   1.00
O229   O     0.21485   0.49552   0.31218   0.00000  Uiso   1.00
O230   O     0.11848   0.50448   0.18782   0.00000  Uiso   1.00
Zn231  Zn    0.10231   0.50600   0.25521   0.00000  Uiso   1.00
Zn232  Zn    0.23102   0.49400   0.24479   0.00000  Uiso   1.00
C233   C     0.51531   0.59817   0.24817   0.00000  Uiso   1.00
C234   C     0.52569   0.54206   0.40451   0.00000  Uiso   1.00
C235   C     0.49552   0.50160   0.11598   0.00000  Uiso   1.00
C236   C     0.50448   0.49840   0.38402   0.00000  Uiso   1.00
C237   C     0.51048   0.54648   0.09158   0.00000  Uiso   1.00
C238   C     0.48952   0.45352   0.40842   0.00000  Uiso   1.00
C239   C     0.51441   0.54572   0.04498   0.00000  Uiso   1.00
C240   C     0.48559   0.45428   0.45502   0.00000  Uiso   1.00
C241   C     0.49835   0.50047   0.02346   0.00000  Uiso   1.00
C242   C     0.50165   0.49953   0.47654   0.00000  Uiso   1.00
C243   C     0.47764   0.45654   0.04878   0.00000  Uiso   1.00
C244   C     0.48470   0.40183   0.25183   0.00000  Uiso   1.00
C245   C     0.52236   0.54346   0.45122   0.00000  Uiso   1.00
C246   C     0.53435   0.58897   0.01942   0.00000  Uiso   1.00
C247   C     0.46565   0.41103   0.48058   0.00000  Uiso   1.00
C248   C     0.58127   0.34092   0.21869   0.00000  Uiso   1.00
C249   C     0.62769   0.63955   0.20027   0.00000  Uiso   1.00
C250   C     0.41873   0.65908   0.28131   0.00000  Uiso   1.00
C251   C     0.37231   0.36045   0.29973   0.00000  Uiso   1.00
C252   C     0.53850   0.58779   0.47321   0.00000  Uiso   1.00
C253   C     0.46150   0.41221   0.02679   0.00000  Uiso   1.00
C254   C     0.52303   0.65219   0.24285   0.00000  Uiso   1.00
C255   C     0.47697   0.34782   0.25715   0.00000  Uiso   1.00
C256   C     0.50101   0.49904   0.33648   0.00000  Uiso   1.00
C257   C     0.49899   0.50096   0.16352   0.00000  Uiso   1.00
C258   C     0.47431   0.45794   0.09549   0.00000  Uiso   1.00
H259   H     0.54804   0.62406   0.03453   0.00000  Uiso   1.00
H260   H     0.57124   0.36502   0.18987   0.00000  Uiso   1.00
H261   H     0.60434   0.36391   0.24300   0.00000  Uiso   1.00
H262   H     0.38900   0.38881   0.32298   0.00000  Uiso   1.00
H263   H     0.35331   0.38012   0.27205   0.00000  Uiso   1.00
H264   H     0.33668   0.33718   0.31820   0.00000  Uiso   1.00
H265   H     0.39566   0.63609   0.25700   0.00000  Uiso   1.00
H266   H     0.42876   0.63498   0.31013   0.00000  Uiso   1.00
H267   H     0.45196   0.37594   0.46547   0.00000  Uiso   1.00
H268   H     0.55367   0.62230   0.45523   0.00000  Uiso   1.00
H269   H     0.44633   0.37770   0.04477   0.00000  Uiso   1.00
H270   H     0.33863   0.46181   0.21710   0.00000  Uiso   1.00
H271   H     0.66137   0.53819   0.28290   0.00000  Uiso   1.00
H272   H     0.64669   0.61988   0.22795   0.00000  Uiso   1.00
H273   H     0.61100   0.61119   0.17702   0.00000  Uiso   1.00
H274   H     0.66332   0.66282   0.18180   0.00000  Uiso   1.00
I275   I     0.43046   0.39803   0.13617   0.00000  Uiso   1.00
I276   I     0.56954   0.60197   0.36383   0.00000  Uiso   1.00
I277   I     0.51476   0.61624   0.12542   0.00000  Uiso   1.00
I278   I     0.48524   0.38376   0.37458   0.00000  Uiso   1.00
N279   N     0.65011   0.48598   0.23783   0.00000  Uiso   1.00
N280   N     0.34989   0.51402   0.26217   0.00000  Uiso   1.00
O281   O     0.46308   0.57952   0.25298   0.00000  Uiso   1.00
O282   O     0.53692   0.42048   0.24702   0.00000  Uiso   1.00
O283   O     0.55946   0.57054   0.24518   0.00000  Uiso   1.00
O284   O     0.44054   0.42946   0.25482   0.00000  Uiso   1.00
O285   O     0.45181   0.50450   0.31998   0.00000  Uiso   1.00
O286   O     0.54819   0.49550   0.18002   0.00000  Uiso   1.00
O287   O     0.54819   0.49552   0.31218   0.00000  Uiso   1.00
O288   O     0.45181   0.50448   0.18782   0.00000  Uiso   1.00
Zn289  Zn    0.43565   0.50600   0.25521   0.00000  Uiso   1.00
Zn290  Zn    0.56435   0.49400   0.24479   0.00000  Uiso   1.00
C291   C     0.84864   0.59817   0.24817   0.00000  Uiso   1.00
C292   C     0.85903   0.54206   0.40451   0.00000  Uiso   1.00
C293   C     0.82885   0.50160   0.11598   0.00000  Uiso   1.00
C294   C     0.83782   0.49840   0.38402   0.00000  Uiso   1.00
C295   C     0.84381   0.54648   0.09158   0.00000  Uiso   1.00
C296   C     0.82285   0.45352   0.40842   0.00000  Uiso   1.00
C297   C     0.84774   0.54572   0.04498   0.00000  Uiso   1.00
C298   C     0.81893   0.45428   0.45502   0.00000  Uiso   1.00
C299   C     0.83169   0.50047   0.02346   0.00000  Uiso   1.00
C300   C     0.83498   0.49953   0.47654   0.00000  Uiso   1.00
C301   C     0.81097   0.45654   0.04878   0.00000  Uiso   1.00
C302   C     0.81803   0.40183   0.25183   0.00000  Uiso   1.00
C303   C     0.85569   0.54346   0.45122   0.00000  Uiso   1.00
C304   C     0.86769   0.58897   0.01942   0.00000  Uiso   1.00
C305   C     0.79898   0.41103   0.48058   0.00000  Uiso   1.00
C306   C     0.91460   0.34092   0.21869   0.00000  Uiso   1.00
C307   C     0.96102   0.63955   0.20027   0.00000  Uiso   1.00
C308   C     0.75207   0.65908   0.28131   0.00000  Uiso   1.00
C309   C     0.70565   0.36045   0.29973   0.00000  Uiso   1.00
C310   C     0.87183   0.58779   0.47321   0.00000  Uiso   1.00
C311   C     0.79484   0.41221   0.02679   0.00000  Uiso   1.00
C312   C     0.85636   0.65219   0.24285   0.00000  Uiso   1.00
C313   C     0.81030   0.34782   0.25715   0.00000  Uiso   1.00
C314   C     0.83434   0.49904   0.33648   0.00000  Uiso   1.00
C315   C     0.83233   0.50096   0.16352   0.00000  Uiso   1.00
C316   C     0.80764   0.45794   0.09549   0.00000  Uiso   1.00
H317   H     0.88137   0.62406   0.03453   0.00000  Uiso   1.00
H318   H     0.90457   0.36502   0.18987   0.00000  Uiso   1.00
H319   H     0.93768   0.36391   0.24300   0.00000  Uiso   1.00
H320   H     0.72233   0.38881   0.32298   0.00000  Uiso   1.00
H321   H     0.68664   0.38012   0.27205   0.00000  Uiso   1.00
H322   H     0.67002   0.33718   0.31820   0.00000  Uiso   1.00
H323   H     0.72899   0.63609   0.25700   0.00000  Uiso   1.00
H324   H     0.76210   0.63498   0.31013   0.00000  Uiso   1.00
H325   H     0.78529   0.37594   0.46547   0.00000  Uiso   1.00
H326   H     0.88700   0.62230   0.45523   0.00000  Uiso   1.00
H327   H     0.77966   0.37770   0.04477   0.00000  Uiso   1.00
H328   H     0.67197   0.46181   0.21710   0.00000  Uiso   1.00
H329   H     0.99470   0.53819   0.28290   0.00000  Uiso   1.00
H330   H     0.98003   0.61988   0.22795   0.00000  Uiso   1.00
H331   H     0.94434   0.61119   0.17702   0.00000  Uiso   1.00
H332   H     0.99665   0.66282   0.18180   0.00000  Uiso   1.00
I333   I     0.76379   0.39803   0.13617   0.00000  Uiso   1.00
I334   I     0.90288   0.60197   0.36383   0.00000  Uiso   1.00
I335   I     0.84809   0.61624   0.12542   0.00000  Uiso   1.00
I336   I     0.81858   0.38376   0.37458   0.00000  Uiso   1.00
N337   N     0.98344   0.48598   0.23783   0.00000  Uiso   1.00
N338   N     0.68322   0.51402   0.26217   0.00000  Uiso   1.00
O339   O     0.79642   0.57952   0.25298   0.00000  Uiso   1.00
O340   O     0.87025   0.42048   0.24702   0.00000  Uiso   1.00
O341   O     0.89280   0.57054   0.24518   0.00000  Uiso   1.00
O342   O     0.77387   0.42946   0.25482   0.00000  Uiso   1.00
O343   O     0.78514   0.50450   0.31998   0.00000  Uiso   1.00
O344   O     0.88153   0.49550   0.18002   0.00000  Uiso   1.00
O345   O     0.88152   0.49552   0.31218   0.00000  Uiso   1.00
O346   O     0.78515   0.50448   0.18782   0.00000  Uiso   1.00
Zn347  Zn    0.76898   0.50600   0.25521   0.00000  Uiso   1.00
Zn348  Zn    0.89769   0.49400   0.24479   0.00000  Uiso   1.00
C349   C     0.18197   0.93151   0.24817   0.00000  Uiso   1.00
C350   C     0.19236   0.87540   0.40451   0.00000  Uiso   1.00
C351   C     0.16219   0.83493   0.11598   0.00000  Uiso   1.00
C352   C     0.17115   0.83174   0.38402   0.00000  Uiso   1.00
C353   C     0.17715   0.87982   0.09158   0.00000  Uiso   1.00
C354   C     0.15619   0.78685   0.40842   0.00000  Uiso   1.00
C355   C     0.18107   0.87905   0.04498   0.00000  Uiso   1.00
C356   C     0.15226   0.78761   0.45502   0.00000  Uiso   1.00
C357   C     0.16502   0.83380   0.02346   0.00000  Uiso   1.00
C358   C     0.16831   0.83286   0.47654   0.00000  Uiso   1.00
C359   C     0.14431   0.78988   0.04878   0.00000  Uiso   1.00
C360   C     0.15136   0.73516   0.25183   0.00000  Uiso   1.00
C361   C     0.18903   0.87679   0.45122   0.00000  Uiso   1.00
C362   C     0.20102   0.92231   0.01942   0.00000  Uiso   1.00
C363   C     0.13231   0.74436   0.48058   0.00000  Uiso   1.00
C364   C     0.24794   0.67425   0.21869   0.00000  Uiso   1.00
C365   C     0.29435   0.97288   0.20027   0.00000  Uiso   1.00
C366   C     0.08540   0.99241   0.28131   0.00000  Uiso   1.00
C367   C     0.03898   0.69379   0.29973   0.00000  Uiso   1.00
C368   C     0.20516   0.92112   0.47321   0.00000  Uiso   1.00
C369   C     0.12817   0.74555   0.02679   0.00000  Uiso   1.00
C370   C     0.18970   0.98552   0.24285   0.00000  Uiso   1.00
C371   C     0.14364   0.68115   0.25715   0.00000  Uiso   1.00
C372   C     0.16767   0.83237   0.33648   0.00000  Uiso   1.00
C373   C     0.16566   0.83429   0.16352   0.00000  Uiso   1.00
C374   C     0.14097   0.79127   0.09549   0.00000  Uiso   1.00
H375   H     0.21471   0.95740   0.03453   0.00000  Uiso   1.00
H376   H     0.23790   0.69835   0.18987   0.00000  Uiso   1.00
H377   H     0.27101   0.69725   0.24300   0.00000  Uiso   1.00
H378   H     0.05567   0.72214   0.32298   0.00000  Uiso   1.00
H379   H     0.01997   0.71346   0.27205   0.00000  Uiso   1.00
H380   H     0.00335   0.67051   0.31820   0.00000  Uiso   1.00
H381   H     0.06232   0.96942   0.25700   0.00000  Uiso   1.00
H382   H     0.09543   0.96831   0.31013   0.00000  Uiso   1.00
H383   H     0.11863   0.70927   0.46547   0.00000  Uiso   1.00
H384   H     0.22034   0.95563   0.45523   0.00000  Uiso   1.00
H385   H     0.11300   0.71103   0.04477   0.00000  Uiso   1.00
H386   H     0.00530   0.79514   0.21710   0.00000  Uiso   1.00
H387   H     0.32803   0.87153   0.28290   0.00000  Uiso   1.00
H388   H     0.31336   0.95321   0.22795   0.00000  Uiso   1.00
H389   H     0.27767   0.94452   0.17702   0.00000  Uiso   1.00
H390   H     0.32998   0.99616   0.18180   0.00000  Uiso   1.00
I391   I     0.09713   0.73136   0.13617   0.00000  Uiso   1.00
I392   I     0.23621   0.93530   0.36383   0.00000  Uiso   1.00
I393   I     0.18142   0.94958   0.12542   0.00000  Uiso   1.00
I394   I     0.15191   0.71709   0.37458   0.00000  Uiso   1.00
N395   N     0.31678   0.81932   0.23783   0.00000  Uiso   1.00
N396   N     0.01656   0.84735   0.26217   0.00000  Uiso   1.00
O397   O     0.12975   0.91286   0.25298   0.00000  Uiso   1.00
O398   O     0.20358   0.75381   0.24702   0.00000  Uiso   1.00
O399   O     0.22613   0.90387   0.24518   0.00000  Uiso   1.00
O400   O     0.10720   0.76279   0.25482   0.00000  Uiso   1.00
O401   O     0.11847   0.83784   0.31998   0.00000  Uiso   1.00
O402   O     0.21486   0.82883   0.18002   0.00000  Uiso   1.00
O403   O     0.21485   0.82885   0.31218   0.00000  Uiso   1.00
O404   O     0.11848   0.83781   0.18782   0.00000  Uiso   1.00
Zn405  Zn    0.10231   0.83933   0.25521   0.00000  Uiso   1.00
Zn406  Zn    0.23102   0.82734   0.24479   0.00000  Uiso   1.00
C407   C     0.51531   0.93151   0.24817   0.00000  Uiso   1.00
C408   C     0.52569   0.87540   0.40451   0.00000  Uiso   1.00
C409   C     0.49552   0.83493   0.11598   0.00000  Uiso   1.00
C410   C     0.50448   0.83174   0.38402   0.00000  Uiso   1.00
C411   C     0.51048   0.87982   0.09158   0.00000  Uiso   1.00
C412   C     0.48952   0.78685   0.40842   0.00000  Uiso   1.00
C413   C     0.51441   0.87905   0.04498   0.00000  Uiso   1.00
C414   C     0.48559   0.78761   0.45502   0.00000  Uiso   1.00
C415   C     0.49835   0.83380   0.02346   0.00000  Uiso   1.00
C416   C     0.50165   0.83286   0.47654   0.00000  Uiso   1.00
C417   C     0.47764   0.78988   0.04878   0.00000  Uiso   1.00
C418   C     0.48470   0.73516   0.25183   0.00000  Uiso   1.00
C419   C     0.52236   0.87679   0.45122   0.00000  Uiso   1.00
C420   C     0.53435   0.92231   0.01942   0.00000  Uiso   1.00
C421   C     0.46565   0.74436   0.48058   0.00000  Uiso   1.00
C422   C     0.58127   0.67425   0.21869   0.00000  Uiso   1.00
C423   C     0.62769   0.97288   0.20027   0.00000  Uiso   1.00
C424   C     0.41873   0.99241   0.28131   0.00000  Uiso   1.00
C425   C     0.37231   0.69379   0.29973   0.00000  Uiso   1.00
C426   C     0.53850   0.92112   0.47321   0.00000  Uiso   1.00
C427   C     0.46150   0.74555   0.02679   0.00000  Uiso   1.00
C428   C     0.52303   0.98552   0.24285   0.00000  Uiso   1.00
C429   C     0.47697   0.68115   0.25715   0.00000  Uiso   1.00
C430   C     0.50101   0.83237   0.33648   0.00000  Uiso   1.00
C431   C     0.49899   0.83429   0.16352   0.00000  Uiso   1.00
C432   C     0.47431   0.79127   0.09549   0.00000  Uiso   1.00
H433   H     0.54804   0.95740   0.03453   0.00000  Uiso   1.00
H434   H     0.57124   0.69835   0.18987   0.00000  Uiso   1.00
H435   H     0.60434   0.69725   0.24300   0.00000  Uiso   1.00
H436   H     0.38900   0.72214   0.32298   0.00000  Uiso   1.00
H437   H     0.35331   0.71346   0.27205   0.00000  Uiso   1.00
H438   H     0.33668   0.67051   0.31820   0.00000  Uiso   1.00
H439   H     0.39566   0.96942   0.25700   0.00000  Uiso   1.00
H440   H     0.42876   0.96831   0.31013   0.00000  Uiso   1.00
H441   H     0.45196   0.70927   0.46547   0.00000  Uiso   1.00
H442   H     0.55367   0.95563   0.45523   0.00000  Uiso   1.00
H443   H     0.44633   0.71103   0.04477   0.00000  Uiso   1.00
H444   H     0.33863   0.79514   0.21710   0.00000  Uiso   1.00
H445   H     0.66137   0.87153   0.28290   0.00000  Uiso   1.00
H446   H     0.64669   0.95321   0.22795   0.00000  Uiso   1.00
H447   H     0.61100   0.94452   0.17702   0.00000  Uiso   1.00
H448   H     0.66332   0.99616   0.18180   0.00000  Uiso   1.00
I449   I     0.43046   0.73136   0.13617   0.00000  Uiso   1.00
I450   I     0.56954   0.93530   0.36383   0.00000  Uiso   1.00
I451   I     0.51476   0.94958   0.12542   0.00000  Uiso   1.00
I452   I     0.48524   0.71709   0.37458   0.00000  Uiso   1.00
N453   N     0.65011   0.81932   0.23783   0.00000  Uiso   1.00
N454   N     0.34989   0.84735   0.26217   0.00000  Uiso   1.00
O455   O     0.46308   0.91286   0.25298   0.00000  Uiso   1.00
O456   O     0.53692   0.75381   0.24702   0.00000  Uiso   1.00
O457   O     0.55946   0.90387   0.24518   0.00000  Uiso   1.00
O458   O     0.44054   0.76279   0.25482   0.00000  Uiso   1.00
O459   O     0.45181   0.83784   0.31998   0.00000  Uiso   1.00
O460   O     0.54819   0.82883   0.18002   0.00000  Uiso   1.00
O461   O     0.54819   0.82885   0.31218   0.00000  Uiso   1.00
O462   O     0.45181   0.83781   0.18782   0.00000  Uiso   1.00
Zn463  Zn    0.43565   0.83933   0.25521   0.00000  Uiso   1.00
Zn464  Zn    0.56435   0.82734   0.24479   0.00000  Uiso   1.00
C465   C     0.84864   0.93151   0.24817   0.00000  Uiso   1.00
C466   C     0.85903   0.87540   0.40451   0.00000  Uiso   1.00
C467   C     0.82885   0.83493   0.11598   0.00000  Uiso   1.00
C468   C     0.83782   0.83174   0.38402   0.00000  Uiso   1.00
C469   C     0.84381   0.87982   0.09158   0.00000  Uiso   1.00
C470   C     0.82285   0.78685   0.40842   0.00000  Uiso   1.00
C471   C     0.84774   0.87905   0.04498   0.00000  Uiso   1.00
C472   C     0.81893   0.78761   0.45502   0.00000  Uiso   1.00
C473   C     0.83169   0.83380   0.02346   0.00000  Uiso   1.00
C474   C     0.83498   0.83286   0.47654   0.00000  Uiso   1.00
C475   C     0.81097   0.78988   0.04878   0.00000  Uiso   1.00
C476   C     0.81803   0.73516   0.25183   0.00000  Uiso   1.00
C477   C     0.85569   0.87679   0.45122   0.00000  Uiso   1.00
C478   C     0.86769   0.92231   0.01942   0.00000  Uiso   1.00
C479   C     0.79898   0.74436   0.48058   0.00000  Uiso   1.00
C480   C     0.91460   0.67425   0.21869   0.00000  Uiso   1.00
C481   C     0.96102   0.97288   0.20027   0.00000  Uiso   1.00
C482   C     0.75207   0.99241   0.28131   0.00000  Uiso   1.00
C483   C     0.70565   0.69379   0.29973   0.00000  Uiso   1.00
C484   C     0.87183   0.92112   0.47321   0.00000  Uiso   1.00
C485   C     0.79484   0.74555   0.02679   0.00000  Uiso   1.00
C486   C     0.85636   0.98552   0.24285   0.00000  Uiso   1.00
C487   C     0.81030   0.68115   0.25715   0.00000  Uiso   1.00
C488   C     0.83434   0.83237   0.33648   0.00000  Uiso   1.00
C489   C     0.83233   0.83429   0.16352   0.00000  Uiso   1.00
C490   C     0.80764   0.79127   0.09549   0.00000  Uiso   1.00
H491   H     0.88137   0.95740   0.03453   0.00000  Uiso   1.00
H492   H     0.90457   0.69835   0.18987   0.00000  Uiso   1.00
H493   H     0.93768   0.69725   0.24300   0.00000  Uiso   1.00
H494   H     0.72233   0.72214   0.32298   0.00000  Uiso   1.00
H495   H     0.68664   0.71346   0.27205   0.00000  Uiso   1.00
H496   H     0.67002   0.67051   0.31820   0.00000  Uiso   1.00
H497   H     0.72899   0.96942   0.25700   0.00000  Uiso   1.00
H498   H     0.76210   0.96831   0.31013   0.00000  Uiso   1.00
H499   H     0.78529   0.70927   0.46547   0.00000  Uiso   1.00
H500   H     0.88700   0.95563   0.45523   0.00000  Uiso   1.00
H501   H     0.77966   0.71103   0.04477   0.00000  Uiso   1.00
H502   H     0.67197   0.79514   0.21710   0.00000  Uiso   1.00
H503   H     0.99470   0.87153   0.28290   0.00000  Uiso   1.00
H504   H     0.98003   0.95321   0.22795   0.00000  Uiso   1.00
H505   H     0.94434   0.94452   0.17702   0.00000  Uiso   1.00
H506   H     0.99665   0.99616   0.18180   0.00000  Uiso   1.00
I507   I     0.76379   0.73136   0.13617   0.00000  Uiso   1.00
I508   I     0.90288   0.93530   0.36383   0.00000  Uiso   1.00
I509   I     0.84809   0.94958   0.12542   0.00000  Uiso   1.00
I510   I     0.81858   0.71709   0.37458   0.00000  Uiso   1.00
N511   N     0.98344   0.81932   0.23783   0.00000  Uiso   1.00
N512   N     0.68322   0.84735   0.26217   0.00000  Uiso   1.00
O513   O     0.79642   0.91286   0.25298   0.00000  Uiso   1.00
O514   O     0.87025   0.75381   0.24702   0.00000  Uiso   1.00
O515   O     0.89280   0.90387   0.24518   0.00000  Uiso   1.00
O516   O     0.77387   0.76279   0.25482   0.00000  Uiso   1.00
O517   O     0.78514   0.83784   0.31998   0.00000  Uiso   1.00
O518   O     0.88153   0.82883   0.18002   0.00000  Uiso   1.00
O519   O     0.88152   0.82885   0.31218   0.00000  Uiso   1.00
O520   O     0.78515   0.83781   0.18782   0.00000  Uiso   1.00
Zn521  Zn    0.76898   0.83933   0.25521   0.00000  Uiso   1.00
Zn522  Zn    0.89769   0.82734   0.24479   0.00000  Uiso   1.00
C523   C     0.18197   0.26484   0.74817   0.00000  Uiso   1.00
C524   C     0.19236   0.20873   0.90451   0.00000  Uiso   1.00
C525   C     0.16219   0.16826   0.61598   0.00000  Uiso   1.00
C526   C     0.17115   0.16507   0.88402   0.00000  Uiso   1.00
C527   C     0.17715   0.21315   0.59158   0.00000  Uiso   1.00
C528   C     0.15619   0.12018   0.90842   0.00000  Uiso   1.00
C529   C     0.18107   0.21239   0.54498   0.00000  Uiso   1.00
C530   C     0.15226   0.12095   0.95502   0.00000  Uiso   1.00
C531   C     0.16502   0.16714   0.52346   0.00000  Uiso   1.00
C532   C     0.16831   0.16620   0.97654   0.00000  Uiso   1.00
C533   C     0.14431   0.12321   0.54878   0.00000  Uiso   1.00
C534   C     0.15136   0.06849   0.75183   0.00000  Uiso   1.00
C535   C     0.18903   0.21012   0.95122   0.00000  Uiso   1.00
C536   C     0.20102   0.25564   0.51942   0.00000  Uiso   1.00
C537   C     0.13231   0.07769   0.98058   0.00000  Uiso   1.00
C538   C     0.24794   0.00759   0.71869   0.00000  Uiso   1.00
C539   C     0.29435   0.30621   0.70027   0.00000  Uiso   1.00
C540   C     0.08540   0.32575   0.78131   0.00000  Uiso   1.00
C541   C     0.03898   0.02712   0.79973   0.00000  Uiso   1.00
C542   C     0.20516   0.25445   0.97321   0.00000  Uiso   1.00
C543   C     0.12817   0.07888   0.52679   0.00000  Uiso   1.00
C544   C     0.18970   0.31885   0.74285   0.00000  Uiso   1.00
C545   C     0.14364   0.01448   0.75715   0.00000  Uiso   1.00
C546   C     0.16767   0.16571   0.83648   0.00000  Uiso   1.00
C547   C     0.16566   0.16763   0.66352   0.00000  Uiso   1.00
C548   C     0.14097   0.12460   0.59549   0.00000  Uiso   1.00
H549   H     0.21471   0.29073   0.53453   0.00000  Uiso   1.00
H550   H     0.23790   0.03169   0.68987   0.00000  Uiso   1.00
H551   H     0.27101   0.03058   0.74300   0.00000  Uiso   1.00
H552   H     0.05567   0.05548   0.82298   0.00000  Uiso   1.00
H553   H     0.01997   0.04679   0.77205   0.00000  Uiso   1.00
H554   H     0.00335   0.00384   0.81820   0.00000  Uiso   1.00
H555   H     0.06232   0.30276   0.75700   0.00000  Uiso   1.00
H556   H     0.09543   0.30165   0.81013   0.00000  Uiso   1.00
H557   H     0.11863   0.04260   0.96547   0.00000  Uiso   1.00
H558   H     0.22034   0.28897   0.95523   0.00000  Uiso   1.00
H559   H     0.11300   0.04437   0.54477   0.00000  Uiso   1.00
H560   H     0.00530   0.12847   0.71710   0.00000  Uiso   1.00
H561   H     0.32803   0.20486   0.78290   0.00000  Uiso   1.00
H562   H     0.31336   0.28655   0.72795   0.00000  Uiso   1.00
H563   H     0.27767   0.27786   0.67702   0.00000  Uiso   1.00
H564   H     0.32998   0.32949   0.68180   0.00000  Uiso   1.00
I565   I     0.09713   0.06470   0.63617   0.00000  Uiso   1.00
I566   I     0.23621   0.26864   0.86383   0.00000  Uiso   1.00
I567   I     0.18142   0.28291   0.62542   0.00000  Uiso   1.00
I568   I     0.15191   0.05042   0.87458   0.00000  Uiso   1.00
N569   N     0.31678   0.15265   0.73783   0.00000  Uiso   1.00
N570   N     0.01656   0.18068   0.76217   0.00000  Uiso   1.00
O571   O     0.12975   0.24619   0.75298   0.00000  Uiso   1.00
O572   O     0.20358   0.08714   0.74702   0.00000  Uiso   1.00
O573   O     0.22613   0.23721   0.74518   0.00000  Uiso   1.00
O574   O     0.10720   0.09613   0.75482   0.00000  Uiso   1.00
O575   O     0.11847   0.17117   0.81998   0.00000  Uiso   1.00
O576   O     0.21486   0.16216   0.68002   0.00000  Uiso   1.00
O577   O     0.21485   0.16219   0.81218   0.00000  Uiso   1.00
O578   O     0.11848   0.17115   0.68782   0.00000  Uiso   1.00
Zn579  Zn    0.10231   0.17266   0.75521   0.00000  Uiso   1.00
Zn580  Zn    0.23102   0.16067   0.74479   0.00000  Uiso   1.00
C581   C     0.51531   0.26484   0.74817   0.00000  Uiso   1.00
C582   C     0.52569   0.20873   0.90451   0.00000  Uiso   1.00
C583   C     0.49552   0.16826   0.61598   0.00000  Uiso   1.00
C584   C     0.50448   0.16507   0.88402   0.00000  Uiso   1.00
C585   C     0.51048   0.21315   0.59158   0.00000  Uiso   1.00
C586   C     0.48952   0.12018   0.90842   0.00000  Uiso   1.00
C587   C     0.51441   0.21239   0.54498   0.00000  Uiso   1.00
C588   C     0.48559   0.12095   0.95502   0.00000  Uiso   1.00
C589   C     0.49835   0.16714   0.52346   0.00000  Uiso   1.00
C590   C     0.50165   0.16620   0.97654   0.00000  Uiso   1.00
C591   C     0.47764   0.12321   0.54878   0.00000  Uiso   1.00
C592   C     0.48470   0.06849   0.75183   0.00000  Uiso   1.00
C593   C     0.52236   0.21012   0.95122   0.00000  Uiso   1.00
C594   C     0.53435   0.25564   0.51942   0.00000  Uiso   1.00
C595   C     0.46565   0.07769   0.98058   0.00000  Uiso   1.00
C596   C     0.58127   0.00759   0.71869   0.00000  Uiso   1.00
C597   C     0.62769   0.30621   0.70027   0.00000  Uiso   1.00
C598   C     0.41873   0.32575   0.78131   0.00000  Uiso   1.00
C599   C     0.37231   0.02712   0.79973   0.00000  Uiso   1.00
C600   C     0.53850   0.25445   0.97321   0.00000  Uiso   1.00
C601   C     0.46150   0.07888   0.52679   0.00000  Uiso   1.00
C602   C     0.52303   0.31885   0.74285   0.00000  Uiso   1.00
C603   C     0.47697   0.01448   0.75715   0.00000  Uiso   1.00
C604   C     0.50101   0.16571   0.83648   0.00000  Uiso   1.00
C605   C     0.49899   0.16763   0.66352   0.00000  Uiso   1.00
C606   C     0.47431   0.12460   0.59549   0.00000  Uiso   1.00
H607   H     0.54804   0.29073   0.53453   0.00000  Uiso   1.00
H608   H     0.57124   0.03169   0.68987   0.00000  Uiso   1.00
H609   H     0.60434   0.03058   0.74300   0.00000  Uiso   1.00
H610   H     0.38900   0.05548   0.82298   0.00000  Uiso   1.00
H611   H     0.35331   0.04679   0.77205   0.00000  Uiso   1.00
H612   H     0.33668   0.00384   0.81820   0.00000  Uiso   1.00
H613   H     0.39566   0.30276   0.75700   0.00000  Uiso   1.00
H614   H     0.42876   0.30165   0.81013   0.00000  Uiso   1.00
H615   H     0.45196   0.04260   0.96547   0.00000  Uiso   1.00
H616   H     0.55367   0.28897   0.95523   0.00000  Uiso   1.00
H617   H     0.44633   0.04437   0.54477   0.00000  Uiso   1.00
H618   H     0.33863   0.12847   0.71710   0.00000  Uiso   1.00
H619   H     0.66137   0.20486   0.78290   0.00000  Uiso   1.00
H620   H     0.64669   0.28655   0.72795   0.00000  Uiso   1.00
H621   H     0.61100   0.27786   0.67702   0.00000  Uiso   1.00
H622   H     0.66332   0.32949   0.68180   0.00000  Uiso   1.00
I623   I     0.43046   0.06470   0.63617   0.00000  Uiso   1.00
I624   I     0.56954   0.26864   0.86383   0.00000  Uiso   1.00
I625   I     0.51476   0.28291   0.62542   0.00000  Uiso   1.00
I626   I     0.48524   0.05042   0.87458   0.00000  Uiso   1.00
N627   N     0.65011   0.15265   0.73783   0.00000  Uiso   1.00
N628   N     0.34989   0.18068   0.76217   0.00000  Uiso   1.00
O629   O     0.46308   0.24619   0.75298   0.00000  Uiso   1.00
O630   O     0.53692   0.08714   0.74702   0.00000  Uiso   1.00
O631   O     0.55946   0.23721   0.74518   0.00000  Uiso   1.00
O632   O     0.44054   0.09613   0.75482   0.00000  Uiso   1.00
O633   O     0.45181   0.17117   0.81998   0.00000  Uiso   1.00
O634   O     0.54819   0.16216   0.68002   0.00000  Uiso   1.00
O635   O     0.54819   0.16219   0.81218   0.00000  Uiso   1.00
O636   O     0.45181   0.17115   0.68782   0.00000  Uiso   1.00
Zn637  Zn    0.43565   0.17266   0.75521   0.00000  Uiso   1.00
Zn638  Zn    0.56435   0.16067   0.74479   0.00000  Uiso   1.00
C639   C     0.84864   0.26484   0.74817   0.00000  Uiso   1.00
C640   C     0.85903   0.20873   0.90451   0.00000  Uiso   1.00
C641   C     0.82885   0.16826   0.61598   0.00000  Uiso   1.00
C642   C     0.83782   0.16507   0.88402   0.00000  Uiso   1.00
C643   C     0.84381   0.21315   0.59158   0.00000  Uiso   1.00
C644   C     0.82285   0.12018   0.90842   0.00000  Uiso   1.00
C645   C     0.84774   0.21239   0.54498   0.00000  Uiso   1.00
C646   C     0.81893   0.12095   0.95502   0.00000  Uiso   1.00
C647   C     0.83169   0.16714   0.52346   0.00000  Uiso   1.00
C648   C     0.83498   0.16620   0.97654   0.00000  Uiso   1.00
C649   C     0.81097   0.12321   0.54878   0.00000  Uiso   1.00
C650   C     0.81803   0.06849   0.75183   0.00000  Uiso   1.00
C651   C     0.85569   0.21012   0.95122   0.00000  Uiso   1.00
C652   C     0.86769   0.25564   0.51942   0.00000  Uiso   1.00
C653   C     0.79898   0.07769   0.98058   0.00000  Uiso   1.00
C654   C     0.91460   0.00759   0.71869   0.00000  Uiso   1.00
C655   C     0.96102   0.30621   0.70027   0.00000  Uiso   1.00
C656   C     0.75207   0.32575   0.78131   0.00000  Uiso   1.00
C657   C     0.70565   0.02712   0.79973   0.00000  Uiso   1.00
C658   C     0.87183   0.25445   0.97321   0.00000  Uiso   1.00
C659   C     0.79484   0.07888   0.52679   0.00000  Uiso   1.00
C660   C     0.85636   0.31885   0.74285   0.00000  Uiso   1.00
C661   C     0.81030   0.01448   0.75715   0.00000  Uiso   1.00
C662   C     0.83434   0.16571   0.83648   0.00000  Uiso   1.00
C663   C     0.83233   0.16763   0.66352   0.00000  Uiso   1.00
C664   C     0.80764   0.12460   0.59549   0.00000  Uiso   1.00
H665   H     0.88137   0.29073   0.53453   0.00000  Uiso   1.00
H666   H     0.90457   0.03169   0.68987   0.00000  Uiso   1.00
H667   H     0.93768   0.03058   0.74300   0.00000  Uiso   1.00
H668   H     0.72233   0.05548   0.82298   0.00000  Uiso   1.00
H669   H     0.68664   0.04679   0.77205   0.00000  Uiso   1.00
H670   H     0.67002   0.00384   0.81820   0.00000  Uiso   1.00
H671   H     0.72899   0.30276   0.75700   0.00000  Uiso   1.00
H672   H     0.76210   0.30165   0.81013   0.00000  Uiso   1.00
H673   H     0.78529   0.04260   0.96547   0.00000  Uiso   1.00
H674   H     0.88700   0.28897   0.95523   0.00000  Uiso   1.00
H675   H     0.77966   0.04437   0.54477   0.00000  Uiso   1.00
H676   H     0.67197   0.12847   0.71710   0.00000  Uiso   1.00
H677   H     0.99470   0.20486   0.78290   0.00000  Uiso   1.00
H678   H     0.98003   0.28655   0.72795   0.00000  Uiso   1.00
H679   H     0.94434   0.27786   0.67702   0.00000  Uiso   1.00
H680   H     0.99665   0.32949   0.68180   0.00000  Uiso   1.00
I681   I     0.76379   0.06470   0.63617   0.00000  Uiso   1.00
I682   I     0.90288   0.26864   0.86383   0.00000  Uiso   1.00
I683   I     0.84809   0.28291   0.62542   0.00000  Uiso   1.00
I684   I     0.81858   0.05042   0.87458   0.00000  Uiso   1.00
N685   N     0.98344   0.15265   0.73783   0.00000  Uiso   1.00
N686   N     0.68322   0.18068   0.76217   0.00000  Uiso   1.00
O687   O     0.79642   0.24619   0.75298   0.00000  Uiso   1.00
O688   O     0.87025   0.08714   0.74702   0.00000  Uiso   1.00
O689   O     0.89280   0.23721   0.74518   0.00000  Uiso   1.00
O690   O     0.77387   0.09613   0.75482   0.00000  Uiso   1.00
O691   O     0.78514   0.17117   0.81998   0.00000  Uiso   1.00
O692   O     0.88153   0.16216   0.68002   0.00000  Uiso   1.00
O693   O     0.88152   0.16219   0.81218   0.00000  Uiso   1.00
O694   O     0.78515   0.17115   0.68782   0.00000  Uiso   1.00
Zn695  Zn    0.76898   0.17266   0.75521   0.00000  Uiso   1.00
Zn696  Zn    0.89769   0.16067   0.74479   0.00000  Uiso   1.00
C697   C     0.18197   0.59817   0.74817   0.00000  Uiso   1.00
C698   C     0.19236   0.54206   0.90451   0.00000  Uiso   1.00
C699   C     0.16219   0.50160   0.61598   0.00000  Uiso   1.00
C700   C     0.17115   0.49840   0.88402   0.00000  Uiso   1.00
C701   C     0.17715   0.54648   0.59158   0.00000  Uiso   1.00
C702   C     0.15619   0.45352   0.90842   0.00000  Uiso   1.00
C703   C     0.18107   0.54572   0.54498   0.00000  Uiso   1.00
C704   C     0.15226   0.45428   0.95502   0.00000  Uiso   1.00
C705   C     0.16502   0.50047   0.52346   0.00000  Uiso   1.00
C706   C     0.16831   0.49953   0.97654   0.00000  Uiso   1.00
C707   C     0.14431   0.45654   0.54878   0.00000  Uiso   1.00
C708   C     0.15136   0.40183   0.75183   0.00000  Uiso   1.00
C709   C     0.18903   0.54346   0.95122   0.00000  Uiso   1.00
C710   C     0.20102   0.58897   0.51942   0.00000  Uiso   1.00
C711   C     0.13231   0.41103   0.98058   0.00000  Uiso   1.00
C712   C     0.24794   0.34092   0.71869   0.00000  Uiso   1.00
C713   C     0.29435   0.63955   0.70027   0.00000  Uiso   1.00
C714   C     0.08540   0.65908   0.78131   0.00000  Uiso   1.00
C715   C     0.03898   0.36045   0.79973   0.00000  Uiso   1.00
C716   C     0.20516   0.58779   0.97321   0.00000  Uiso   1.00
C717   C     0.12817   0.41221   0.52679   0.00000  Uiso   1.00
C718   C     0.18970   0.65219   0.74285   0.00000  Uiso   1.00
C719   C     0.14364   0.34782   0.75715   0.00000  Uiso   1.00
C720   C     0.16767   0.49904   0.83648   0.00000  Uiso   1.00
C721   C     0.16566   0.50096   0.66352   0.00000  Uiso   1.00
C722   C     0.14097   0.45794   0.59549   0.00000  Uiso   1.00
H723   H     0.21471   0.62406   0.53453   0.00000  Uiso   1.00
H724   H     0.23790   0.36502   0.68987   0.00000  Uiso   1.00
H725   H     0.27101   0.36391   0.74300   0.00000  Uiso   1.00
H726   H     0.05567   0.38881   0.82298   0.00000  Uiso   1.00
H727   H     0.01997   0.38012   0.77205   0.00000  Uiso   1.00
H728   H     0.00335   0.33718   0.81820   0.00000  Uiso   1.00
H729   H     0.06232   0.63609   0.75700   0.00000  Uiso   1.00
H730   H     0.09543   0.63498   0.81013   0.00000  Uiso   1.00
H731   H     0.11863   0.37594   0.96547   0.00000  Uiso   1.00
H732   H     0.22034   0.62230   0.95523   0.00000  Uiso   1.00
H733   H     0.11300   0.37770   0.54477   0.00000  Uiso   1.00
H734   H     0.00530   0.46181   0.71710   0.00000  Uiso   1.00
H735   H     0.32803   0.53819   0.78290   0.00000  Uiso   1.00
H736   H     0.31336   0.61988   0.72795   0.00000  Uiso   1.00
H737   H     0.27767   0.61119   0.67702   0.00000  Uiso   1.00
H738   H     0.32998   0.66282   0.68180   0.00000  Uiso   1.00
I739   I     0.09713   0.39803   0.63617   0.00000  Uiso   1.00
I740   I     0.23621   0.60197   0.86383   0.00000  Uiso   1.00
I741   I     0.18142   0.61624   0.62542   0.00000  Uiso   1.00
I742   I     0.15191   0.38376   0.87458   0.00000  Uiso   1.00
N743   N     0.31678   0.48598   0.73783   0.00000  Uiso   1.00
N744   N     0.01656   0.51402   0.76217   0.00000  Uiso   1.00
O745   O     0.12975   0.57952   0.75298   0.00000  Uiso   1.00
O746   O     0.20358   0.42048   0.74702   0.00000  Uiso   1.00
O747   O     0.22613   0.57054   0.74518   0.00000  Uiso   1.00
O748   O     0.10720   0.42946   0.75482   0.00000  Uiso   1.00
O749   O     0.11847   0.50450   0.81998   0.00000  Uiso   1.00
O750   O     0.21486   0.49550   0.68002   0.00000  Uiso   1.00
O751   O     0.21485   0.49552   0.81218   0.00000  Uiso   1.00
O752   O     0.11848   0.50448   0.68782   0.00000  Uiso   1.00
Zn753  Zn    0.10231   0.50600   0.75521   0.00000  Uiso   1.00
Zn754  Zn    0.23102   0.49400   0.74479   0.00000  Uiso   1.00
C755   C     0.51531   0.59817   0.74817   0.00000  Uiso   1.00
C756   C     0.52569   0.54206   0.90451   0.00000  Uiso   1.00
C757   C     0.49552   0.50160   0.61598   0.00000  Uiso   1.00
C758   C     0.50448   0.49840   0.88402   0.00000  Uiso   1.00
C759   C     0.51048   0.54648   0.59158   0.00000  Uiso   1.00
C760   C     0.48952   0.45352   0.90842   0.00000  Uiso   1.00
C761   C     0.51441   0.54572   0.54498   0.00000  Uiso   1.00
C762   C     0.48559   0.45428   0.95502   0.00000  Uiso   1.00
C763   C     0.49835   0.50047   0.52346   0.00000  Uiso   1.00
C764   C     0.50165   0.49953   0.97654   0.00000  Uiso   1.00
C765   C     0.47764   0.45654   0.54878   0.00000  Uiso   1.00
C766   C     0.48470   0.40183   0.75183   0.00000  Uiso   1.00
C767   C     0.52236   0.54346   0.95122   0.00000  Uiso   1.00
C768   C     0.53435   0.58897   0.51942   0.00000  Uiso   1.00
C769   C     0.46565   0.41103   0.98058   0.00000  Uiso   1.00
C770   C     0.58127   0.34092   0.71869   0.00000  Uiso   1.00
C771   C     0.62769   0.63955   0.70027   0.00000  Uiso   1.00
C772   C     0.41873   0.65908   0.78131   0.00000  Uiso   1.00
C773   C     0.37231   0.36045   0.79973   0.00000  Uiso   1.00
C774   C     0.53850   0.58779   0.97321   0.00000  Uiso   1.00
C775   C     0.46150   0.41221   0.52679   0.00000  Uiso   1.00
C776   C     0.52303   0.65219   0.74285   0.00000  Uiso   1.00
C777   C     0.47697   0.34782   0.75715   0.00000  Uiso   1.00
C778   C     0.50101   0.49904   0.83648   0.00000  Uiso   1.00
C779   C     0.49899   0.50096   0.66352   0.00000  Uiso   1.00
C780   C     0.47431   0.45794   0.59549   0.00000  Uiso   1.00
H781   H     0.54804   0.62406   0.53453   0.00000  Uiso   1.00
H782   H     0.57124   0.36502   0.68987   0.00000  Uiso   1.00
H783   H     0.60434   0.36391   0.74300   0.00000  Uiso   1.00
H784   H     0.38900   0.38881   0.82298   0.00000  Uiso   1.00
H785   H     0.35331   0.38012   0.77205   0.00000  Uiso   1.00
H786   H     0.33668   0.33718   0.81820   0.00000  Uiso   1.00
H787   H     0.39566   0.63609   0.75700   0.00000  Uiso   1.00
H788   H     0.42876   0.63498   0.81013   0.00000  Uiso   1.00
H789   H     0.45196   0.37594   0.96547   0.00000  Uiso   1.00
H790   H     0.55367   0.62230   0.95523   0.00000  Uiso   1.00
H791   H     0.44633   0.37770   0.54477   0.00000  Uiso   1.00
H792   H     0.33863   0.46181   0.71710   0.00000  Uiso   1.00
H793   H     0.66137   0.53819   0.78290   0.00000  Uiso   1.00
H794   H     0.64669   0.61988   0.72795   0.00000  Uiso   1.00
H795   H     0.61100   0.61119   0.67702   0.00000  Uiso   1.00
H796   H     0.66332   0.66282   0.68180   0.00000  Uiso   1.00
I797   I     0.43046   0.39803   0.63617   0.00000  Uiso   1.00
I798   I     0.56954   0.60197   0.86383   0.00000  Uiso   1.00
I799   I     0.51476   0.61624   0.62542   0.00000  Uiso   1.00
I800   I     0.48524   0.38376   0.87458   0.00000  Uiso   1.00
N801   N     0.65011   0.48598   0.73783   0.00000  Uiso   1.00
N802   N     0.34989   0.51402   0.76217   0.00000  Uiso   1.00
O803   O     0.46308   0.57952   0.75298   0.00000  Uiso   1.00
O804   O     0.53692   0.42048   0.74702   0.00000  Uiso   1.00
O805   O     0.55946   0.57054   0.74518   0.00000  Uiso   1.00
O806   O     0.44054   0.42946   0.75482   0.00000  Uiso   1.00
O807   O     0.45181   0.50450   0.81998   0.00000  Uiso   1.00
O808   O     0.54819   0.49550   0.68002   0.00000  Uiso   1.00
O809   O     0.54819   0.49552   0.81218   0.00000  Uiso   1.00
O810   O     0.45181   0.50448   0.68782   0.00000  Uiso   1.00
Zn811  Zn    0.43565   0.50600   0.75521   0.00000  Uiso   1.00
Zn812  Zn    0.56435   0.49400   0.74479   0.00000  Uiso   1.00
C813   C     0.84864   0.59817   0.74817   0.00000  Uiso   1.00
C814   C     0.85903   0.54206   0.90451   0.00000  Uiso   1.00
C815   C     0.82885   0.50160   0.61598   0.00000  Uiso   1.00
C816   C     0.83782   0.49840   0.88402   0.00000  Uiso   1.00
C817   C     0.84381   0.54648   0.59158   0.00000  Uiso   1.00
C818   C     0.82285   0.45352   0.90842   0.00000  Uiso   1.00
C819   C     0.84774   0.54572   0.54498   0.00000  Uiso   1.00
C820   C     0.81893   0.45428   0.95502   0.00000  Uiso   1.00
C821   C     0.83169   0.50047   0.52346   0.00000  Uiso   1.00
C822   C     0.83498   0.49953   0.97654   0.00000  Uiso   1.00
C823   C     0.81097   0.45654   0.54878   0.00000  Uiso   1.00
C824   C     0.81803   0.40183   0.75183   0.00000  Uiso   1.00
C825   C     0.85569   0.54346   0.95122   0.00000  Uiso   1.00
C826   C     0.86769   0.58897   0.51942   0.00000  Uiso   1.00
C827   C     0.79898   0.41103   0.98058   0.00000  Uiso   1.00
C828   C     0.91460   0.34092   0.71869   0.00000  Uiso   1.00
C829   C     0.96102   0.63955   0.70027   0.00000  Uiso   1.00
C830   C     0.75207   0.65908   0.78131   0.00000  Uiso   1.00
C831   C     0.70565   0.36045   0.79973   0.00000  Uiso   1.00
C832   C     0.87183   0.58779   0.97321   0.00000  Uiso   1.00
C833   C     0.79484   0.41221   0.52679   0.00000  Uiso   1.00
C834   C     0.85636   0.65219   0.74285   0.00000  Uiso   1.00
C835   C     0.81030   0.34782   0.75715   0.00000  Uiso   1.00
C836   C     0.83434   0.49904   0.83648   0.00000  Uiso   1.00
C837   C     0.83233   0.50096   0.66352   0.00000  Uiso   1.00
C838   C     0.80764   0.45794   0.59549   0.00000  Uiso   1.00
H839   H     0.88137   0.62406   0.53453   0.00000  Uiso   1.00
H840   H     0.90457   0.36502   0.68987   0.00000  Uiso   1.00
H841   H     0.93768   0.36391   0.74300   0.00000  Uiso   1.00
H842   H     0.72233   0.38881   0.82298   0.00000  Uiso   1.00
H843   H     0.68664   0.38012   0.77205   0.00000  Uiso   1.00
H844   H     0.67002   0.33718   0.81820   0.00000  Uiso   1.00
H845   H     0.72899   0.63609   0.75700   0.00000  Uiso   1.00
H846   H     0.76210   0.63498   0.81013   0.00000  Uiso   1.00
H847   H     0.78529   0.37594   0.96547   0.00000  Uiso   1.00
H848   H     0.88700   0.62230   0.95523   0.00000  Uiso   1.00
H849   H     0.77966   0.37770   0.54477   0.00000  Uiso   1.00
H850   H     0.67197   0.46181   0.71710   0.00000  Uiso   1.00
H851   H     0.99470   0.53819   0.78290   0.00000  Uiso   1.00
H852   H     0.98003   0.61988   0.72795   0.00000  Uiso   1.00
H853   H     0.94434   0.61119   0.67702   0.00000  Uiso   1.00
H854   H     0.99665   0.66282   0.68180   0.00000  Uiso   1.00
I855   I     0.76379   0.39803   0.63617   0.00000  Uiso   1.00
I856   I     0.90288   0.60197   0.86383   0.00000  Uiso   1.00
I857   I     0.84809   0.61624   0.62542   0.00000  Uiso   1.00
I858   I     0.81858   0.38376   0.87458   0.00000  Uiso   1.00
N859   N     0.98344   0.48598   0.73783   0.00000  Uiso   1.00
N860   N     0.68322   0.51402   0.76217   0.00000  Uiso   1.00
O861   O     0.79642   0.57952   0.75298   0.00000  Uiso   1.00
O862   O     0.87025   0.42048   0.74702   0.00000  Uiso   1.00
O863   O     0.89280   0.57054   0.74518   0.00000  Uiso   1.00
O864   O     0.77387   0.42946   0.75482   0.00000  Uiso   1.00
O865   O     0.78514   0.50450   0.81998   0.00000  Uiso   1.00
O866   O     0.88153   0.49550   0.68002   0.00000  Uiso   1.00
O867   O     0.88152   0.49552   0.81218   0.00000  Uiso   1.00
O868   O     0.78515   0.50448   0.68782   0.00000  Uiso   1.00
Zn869  Zn    0.76898   0.50600   0.75521   0.00000  Uiso   1.00
Zn870  Zn    0.89769   0.49400   0.74479   0.00000  Uiso   1.00
C871   C     0.18197   0.93151   0.74817   0.00000  Uiso   1.00
C872   C     0.19236   0.87540   0.90451   0.00000  Uiso   1.00
C873   C     0.16219   0.83493   0.61598   0.00000  Uiso   1.00
C874   C     0.17115   0.83174   0.88402   0.00000  Uiso   1.00
C875   C     0.17715   0.87982   0.59158   0.00000  Uiso   1.00
C876   C     0.15619   0.78685   0.90842   0.00000  Uiso   1.00
C877   C     0.18107   0.87905   0.54498   0.00000  Uiso   1.00
C878   C     0.15226   0.78761   0.95502   0.00000  Uiso   1.00
C879   C     0.16502   0.83380   0.52346   0.00000  Uiso   1.00
C880   C     0.16831   0.83286   0.97654   0.00000  Uiso   1.00
C881   C     0.14431   0.78988   0.54878   0.00000  Uiso   1.00
C882   C     0.15136   0.73516   0.75183   0.00000  Uiso   1.00
C883   C     0.18903   0.87679   0.95122   0.00000  Uiso   1.00
C884   C     0.20102   0.92231   0.51942   0.00000  Uiso   1.00
C885   C     0.13231   0.74436   0.98058   0.00000  Uiso   1.00
C886   C     0.24794   0.67425   0.71869   0.00000  Uiso   1.00
C887   C     0.29435   0.97288   0.70027   0.00000  Uiso   1.00
C888   C     0.08540   0.99241   0.78131   0.00000  Uiso   1.00
C889   C     0.03898   0.69379   0.79973   0.00000  Uiso   1.00
C890   C     0.20516   0.92112   0.97321   0.00000  Uiso   1.00
C891   C     0.12817   0.74555   0.52679   0.00000  Uiso   1.00
C892   C     0.18970   0.98552   0.74285   0.00000  Uiso   1.00
C893   C     0.14364   0.68115   0.75715   0.00000  Uiso   1.00
C894   C     0.16767   0.83237   0.83648   0.00000  Uiso   1.00
C895   C     0.16566   0.83429   0.66352   0.00000  Uiso   1.00
C896   C     0.14097   0.79127   0.59549   0.00000  Uiso   1.00
H897   H     0.21471   0.95740   0.53453   0.00000  Uiso   1.00
H898   H     0.23790   0.69835   0.68987   0.00000  Uiso   1.00
H899   H     0.27101   0.69725   0.74300   0.00000  Uiso   1.00
H900   H     0.05567   0.72214   0.82298   0.00000  Uiso   1.00
H901   H     0.01997   0.71346   0.77205   0.00000  Uiso   1.00
H902   H     0.00335   0.67051   0.81820   0.00000  Uiso   1.00
H903   H     0.06232   0.96942   0.75700   0.00000  Uiso   1.00
H904   H     0.09543   0.96831   0.81013   0.00000  Uiso   1.00
H905   H     0.11863   0.70927   0.96547   0.00000  Uiso   1.00
H906   H     0.22034   0.95563   0.95523   0.00000  Uiso   1.00
H907   H     0.11300   0.71103   0.54477   0.00000  Uiso   1.00
H908   H     0.00530   0.79514   0.71710   0.00000  Uiso   1.00
H909   H     0.32803   0.87153   0.78290   0.00000  Uiso   1.00
H910   H     0.31336   0.95321   0.72795   0.00000  Uiso   1.00
H911   H     0.27767   0.94452   0.67702   0.00000  Uiso   1.00
H912   H     0.32998   0.99616   0.68180   0.00000  Uiso   1.00
I913   I     0.09713   0.73136   0.63617   0.00000  Uiso   1.00
I914   I     0.23621   0.93530   0.86383   0.00000  Uiso   1.00
I915   I     0.18142   0.94958   0.62542   0.00000  Uiso   1.00
I916   I     0.15191   0.71709   0.87458   0.00000  Uiso   1.00
N917   N     0.31678   0.81932   0.73783   0.00000  Uiso   1.00
N918   N     0.01656   0.84735   0.76217   0.00000  Uiso   1.00
O919   O     0.12975   0.91286   0.75298   0.00000  Uiso   1.00
O920   O     0.20358   0.75381   0.74702   0.00000  Uiso   1.00
O921   O     0.22613   0.90387   0.74518   0.00000  Uiso   1.00
O922   O     0.10720   0.76279   0.75482   0.00000  Uiso   1.00
O923   O     0.11847   0.83784   0.81998   0.00000  Uiso   1.00
O924   O     0.21486   0.82883   0.68002   0.00000  Uiso   1.00
O925   O     0.21485   0.82885   0.81218   0.00000  Uiso   1.00
O926   O     0.11848   0.83781   0.68782   0.00000  Uiso   1.00
Zn927  Zn    0.10231   0.83933   0.75521   0.00000  Uiso   1.00
Zn928  Zn    0.23102   0.82734   0.74479   0.00000  Uiso   1.00
C929   C     0.51531   0.93151   0.74817   0.00000  Uiso   1.00
C930   C     0.52569   0.87540   0.90451   0.00000  Uiso   1.00
C931   C     0.49552   0.83493   0.61598   0.00000  Uiso   1.00
C932   C     0.50448   0.83174   0.88402   0.00000  Uiso   1.00
C933   C     0.51048   0.87982   0.59158   0.00000  Uiso   1.00
C934   C     0.48952   0.78685   0.90842   0.00000  Uiso   1.00
C935   C     0.51441   0.87905   0.54498   0.00000  Uiso   1.00
C936   C     0.48559   0.78761   0.95502   0.00000  Uiso   1.00
C937   C     0.49835   0.83380   0.52346   0.00000  Uiso   1.00
C938   C     0.50165   0.83286   0.97654   0.00000  Uiso   1.00
C939   C     0.47764   0.78988   0.54878   0.00000  Uiso   1.00
C940   C     0.48470   0.73516   0.75183   0.00000  Uiso   1.00
C941   C     0.52236   0.87679   0.95122   0.00000  Uiso   1.00
C942   C     0.53435   0.92231   0.51942   0.00000  Uiso   1.00
C943   C     0.46565   0.74436   0.98058   0.00000  Uiso   1.00
C944   C     0.58127   0.67425   0.71869   0.00000  Uiso   1.00
C945   C     0.62769   0.97288   0.70027   0.00000  Uiso   1.00
C946   C     0.41873   0.99241   0.78131   0.00000  Uiso   1.00
C947   C     0.37231   0.69379   0.79973   0.00000  Uiso   1.00
C948   C     0.53850   0.92112   0.97321   0.00000  Uiso   1.00
C949   C     0.46150   0.74555   0.52679   0.00000  Uiso   1.00
C950   C     0.52303   0.98552   0.74285   0.00000  Uiso   1.00
C951   C     0.47697   0.68115   0.75715   0.00000  Uiso   1.00
C952   C     0.50101   0.83237   0.83648   0.00000  Uiso   1.00
C953   C     0.49899   0.83429   0.66352   0.00000  Uiso   1.00
C954   C     0.47431   0.79127   0.59549   0.00000  Uiso   1.00
H955   H     0.54804   0.95740   0.53453   0.00000  Uiso   1.00
H956   H     0.57124   0.69835   0.68987   0.00000  Uiso   1.00
H957   H     0.60434   0.69725   0.74300   0.00000  Uiso   1.00
H958   H     0.38900   0.72214   0.82298   0.00000  Uiso   1.00
H959   H     0.35331   0.71346   0.77205   0.00000  Uiso   1.00
H960   H     0.33668   0.67051   0.81820   0.00000  Uiso   1.00
H961   H     0.39566   0.96942   0.75700   0.00000  Uiso   1.00
H962   H     0.42876   0.96831   0.81013   0.00000  Uiso   1.00
H963   H     0.45196   0.70927   0.96547   0.00000  Uiso   1.00
H964   H     0.55367   0.95563   0.95523   0.00000  Uiso   1.00
H965   H     0.44633   0.71103   0.54477   0.00000  Uiso   1.00
H966   H     0.33863   0.79514   0.71710   0.00000  Uiso   1.00
H967   H     0.66137   0.87153   0.78290   0.00000  Uiso   1.00
H968   H     0.64669   0.95321   0.72795   0.00000  Uiso   1.00
H969   H     0.61100   0.94452   0.67702   0.00000  Uiso   1.00
H970   H     0.66332   0.99616   0.68180   0.00000  Uiso   1.00
I971   I     0.43046   0.73136   0.63617   0.00000  Uiso   1.00
I972   I     0.56954   0.93530   0.86383   0.00000  Uiso   1.00
I973   I     0.51476   0.94958   0.62542   0.00000  Uiso   1.00
I974   I     0.48524   0.71709   0.87458   0.00000  Uiso   1.00
N975   N     0.65011   0.81932   0.73783   0.00000  Uiso   1.00
N976   N     0.34989   0.84735   0.76217   0.00000  Uiso   1.00
O977   O     0.46308   0.91286   0.75298   0.00000  Uiso   1.00
O978   O     0.53692   0.75381   0.74702   0.00000  Uiso   1.00
O979   O     0.55946   0.90387   0.74518   0.00000  Uiso   1.00
O980   O     0.44054   0.76279   0.75482   0.00000  Uiso   1.00
O981   O     0.45181   0.83784   0.81998   0.00000  Uiso   1.00
O982   O     0.54819   0.82883   0.68002   0.00000  Uiso   1.00
O983   O     0.54819   0.82885   0.81218   0.00000  Uiso   1.00
O984   O     0.45181   0.83781   0.68782   0.00000  Uiso   1.00
Zn985  Zn    0.43565   0.83933   0.75521   0.00000  Uiso   1.00
Zn986  Zn    0.56435   0.82734   0.74479   0.00000  Uiso   1.00
C987   C     0.84864   0.93151   0.74817   0.00000  Uiso   1.00
C988   C     0.85903   0.87540   0.90451   0.00000  Uiso   1.00
C989   C     0.82885   0.83493   0.61598   0.00000  Uiso   1.00
C990   C     0.83782   0.83174   0.88402   0.00000  Uiso   1.00
C991   C     0.84381   0.87982   0.59158   0.00000  Uiso   1.00
C992   C     0.82285   0.78685   0.90842   0.00000  Uiso   1.00
C993   C     0.84774   0.87905   0.54498   0.00000  Uiso   1.00
C994   C     0.81893   0.78761   0.95502   0.00000  Uiso   1.00
C995   C     0.83169   0.83380   0.52346   0.00000  Uiso   1.00
C996   C     0.83498   0.83286   0.97654   0.00000  Uiso   1.00
C997   C     0.81097   0.78988   0.54878   0.00000  Uiso   1.00
C998   C     0.81803   0.73516   0.75183   0.00000  Uiso   1.00
C999   C     0.85569   0.87679   0.95122   0.00000  Uiso   1.00
C1000  C     0.86769   0.92231   0.51942   0.00000  Uiso   1.00
C1001  C     0.79898   0.74436   0.98058   0.00000  Uiso   1.00
C1002  C     0.91460   0.67425   0.71869   0.00000  Uiso   1.00
C1003  C     0.96102   0.97288   0.70027   0.00000  Uiso   1.00
C1004  C     0.75207   0.99241   0.78131   0.00000  Uiso   1.00
C1005  C     0.70565   0.69379   0.79973   0.00000  Uiso   1.00
C1006  C     0.87183   0.92112   0.97321   0.00000  Uiso   1.00
C1007  C     0.79484   0.74555   0.52679   0.00000  Uiso   1.00
C1008  C     0.85636   0.98552   0.74285   0.00000  Uiso   1.00
C1009  C     0.81030   0.68115   0.75715   0.00000  Uiso   1.00
C1010  C     0.83434   0.83237   0.83648   0.00000  Uiso   1.00
C1011  C     0.83233   0.83429   0.66352   0.00000  Uiso   1.00
C1012  C     0.80764   0.79127   0.59549   0.00000  Uiso   1.00
H1013  H     0.88137   0.95740   0.53453   0.00000  Uiso   1.00
H1014  H     0.90457   0.69835   0.68987   0.00000  Uiso   1.00
H1015  H     0.93768   0.69725   0.74300   0.00000  Uiso   1.00
H1016  H     0.72233   0.72214   0.82298   0.00000  Uiso   1.00
H1017  H     0.68664   0.71346   0.77205   0.00000  Uiso   1.00
H1018  H     0.67002   0.67051   0.81820   0.00000  Uiso   1.00
H1019  H     0.72899   0.96942   0.75700   0.00000  Uiso   1.00
H1020  H     0.76210   0.96831   0.81013   0.00000  Uiso   1.00
H1021  H     0.78529   0.70927   0.96547   0.00000  Uiso   1.00
H1022  H     0.88700   0.95563   0.95523   0.00000  Uiso   1.00
H1023  H     0.77966   0.71103   0.54477   0.00000  Uiso   1.00
H1024  H     0.67197   0.79514   0.71710   0.00000  Uiso   1.00
H1025  H     0.99470   0.87153   0.78290   0.00000  Uiso   1.00
H1026  H     0.98003   0.95321   0.72795   0.00000  Uiso   1.00
H1027  H     0.94434   0.94452   0.67702   0.00000  Uiso   1.00
H1028  H     0.99665   0.99616   0.68180   0.00000  Uiso   1.00
I1029  I     0.76379   0.73136   0.63617   0.00000  Uiso   1.00
I1030  I     0.90288   0.93530   0.86383   0.00000  Uiso   1.00
I1031  I     0.84809   0.94958   0.62542   0.00000  Uiso   1.00
I1032  I     0.81858   0.71709   0.87458   0.00000  Uiso   1.00
N1033  N     0.98344   0.81932   0.73783   0.00000  Uiso   1.00
N1034  N     0.68322   0.84735   0.76217   0.00000  Uiso   1.00
O1035  O     0.79642   0.91286   0.75298   0.00000  Uiso   1.00
O1036  O     0.87025   0.75381   0.74702   0.00000  Uiso   1.00
O1037  O     0.89280   0.90387   0.74518   0.00000  Uiso   1.00
O1038  O     0.77387   0.76279   0.75482   0.00000  Uiso   1.00
O1039  O     0.78514   0.83784   0.81998   0.00000  Uiso   1.00
O1040  O     0.88153   0.82883   0.68002   0.00000  Uiso   1.00
O1041  O     0.88152   0.82885   0.81218   0.00000  Uiso   1.00
O1042  O     0.78515   0.83781   0.68782   0.00000  Uiso   1.00
Zn1043 Zn    0.76898   0.83933   0.75521   0.00000  Uiso   1.00
Zn1044 Zn    0.89769   0.82734   0.74479   0.00000  Uiso   1.00
loop_
_geom_bond_atom_site_label_1
_geom_bond_atom_site_label_2
_geom_bond_distance
_geom_bond_site_symmetry_2
_ccdc_geom_bond_type
C1     C22     1.436   .     S
C1     O51     1.294   .     A
C1     O49     1.276   .     A
C2     C4      1.397   .     A
C2     I44     2.144   .     S
C2     C13     1.396   .     A
C3     C26     1.397   .     A
C3     C25     1.432   .     S
C3     C5      1.398   .     A
C4     C24     1.432   .     S
C4     C6      1.398   .     A
C5     I45     2.121   .     S
C5     C7      1.393   .     A
C6     C8      1.393   .     A
C6     I46     2.121   .     S
C7     C9      1.412   .     A
C7     C14     1.403   .     A
C8     C10     1.412   .     A
C8     C15     1.403   .     A
C9     C11     1.418   .     A
C9     C532    1.402   1_554 S
C10    C13     1.418   .     A
C10    C531    1.402   .     S
C11    C26     1.396   .     A
C11    C21     1.399   .     A
C12    O50     1.276   .     A
C12    C23     1.436   .     S
C12    O52     1.294   .     A
C13    C20     1.399   .     A
C14    H27     1.080   .     S
C14    C542    1.382   1_554 S
C15    H35     1.080   .     S
C15    C543    1.382   .     S
C16    H28     1.112   .     S
C16    H29     1.103   .     S
C16    C365    1.536   1_545 S
C16    C370    1.561   1_545 S
C17    H41     1.103   .     S
C17    H42     1.108   .     S
C17    H40     1.105   .     S
C17    C190    1.536   .     S
C18    H34     1.112   .     S
C18    H33     1.103   .     S
C18    C193    1.536   .     S
C18    C197    1.561   .     S
C19    H31     1.105   .     S
C19    H32     1.108   .     S
C19    H30     1.103   .     S
C19    C366    1.536   1_545 S
C20    H36     1.080   .     S
C20    C536    1.382   .     S
C21    H37     1.080   .     S
C21    C537    1.382   1_554 S
C22    C190    1.561   .     S
C22    C197    1.399   .     S
C23    C370    1.399   1_545 S
C23    C366    1.561   1_545 S
C24    O53     1.290   .     A
C24    O55     1.278   .     A
C25    O56     1.278   .     A
C25    O54     1.290   .     A
C26    I43     2.144   .     S
H38    N163    1.029   1_455 S
H39    N106    1.029   .     S
N47    Zn58    2.008   .     S
N47    H96     1.029   .     S
N47    N106    1.303   .     S
N48    Zn57    2.008   .     S
N48    H155    1.029   1_455 S
N48    N163    1.303   1_455 S
O49    Zn57    2.009   .     S
O50    Zn58    2.009   .     S
O51    Zn58    2.038   .     S
O52    Zn57    2.038   .     S
O53    Zn57    2.002   .     S
O54    Zn58    2.002   .     S
O55    Zn58    2.027   .     S
O56    Zn57    2.027   .     S
C59    C80     1.436   .     S
C59    O109    1.294   .     A
C59    O107    1.276   .     A
C60    C62     1.397   .     A
C60    I102    2.144   .     S
C60    C71     1.396   .     A
C61    C84     1.397   .     A
C61    C83     1.432   .     S
C61    C63     1.398   .     A
C62    C82     1.432   .     S
C62    C64     1.398   .     A
C63    I103    2.121   .     S
C63    C65     1.393   .     A
C64    C66     1.393   .     A
C64    I104    2.121   .     S
C65    C67     1.412   .     A
C65    C72     1.403   .     A
C66    C68     1.412   .     A
C66    C73     1.403   .     A
C67    C69     1.418   .     A
C67    C590    1.402   1_554 S
C68    C71     1.418   .     A
C68    C589    1.402   .     S
C69    C84     1.396   .     A
C69    C79     1.399   .     A
C70    O108    1.276   .     A
C70    C81     1.436   .     S
C70    O110    1.294   .     A
C71    C78     1.399   .     A
C72    H85     1.080   .     S
C72    C600    1.382   1_554 S
C73    H93     1.080   .     S
C73    C601    1.382   .     S
C74    H86     1.112   .     S
C74    H87     1.103   .     S
C74    C423    1.536   1_545 S
C74    C428    1.561   1_545 S
C75    H99     1.103   .     S
C75    H100    1.108   .     S
C75    H98     1.105   .     S
C75    C248    1.536   .     S
C76    H92     1.112   .     S
C76    H91     1.103   .     S
C76    C251    1.536   .     S
C76    C255    1.561   .     S
C77    H89     1.105   .     S
C77    H90     1.108   .     S
C77    H88     1.103   .     S
C77    C424    1.536   1_545 S
C78    H94     1.080   .     S
C78    C594    1.382   .     S
C79    H95     1.080   .     S
C79    C595    1.382   1_554 S
C80    C248    1.561   .     S
C80    C255    1.399   .     S
C81    C428    1.399   1_545 S
C81    C424    1.561   1_545 S
C82    O111    1.290   .     A
C82    O113    1.278   .     A
C83    O114    1.278   .     A
C83    O112    1.290   .     A
C84    I101    2.144   .     S
H97    N164    1.029   .     S
N105   Zn116   2.008   .     S
N105   H154    1.029   .     S
N105   N164    1.303   .     S
N106   Zn115   2.008   .     S
O107   Zn115   2.009   .     S
O108   Zn116   2.009   .     S
O109   Zn116   2.038   .     S
O110   Zn115   2.038   .     S
O111   Zn115   2.002   .     S
O112   Zn116   2.002   .     S
O113   Zn116   2.027   .     S
O114   Zn115   2.027   .     S
C117   C138    1.436   .     S
C117   O167    1.294   .     A
C117   O165    1.276   .     A
C118   C120    1.397   .     A
C118   I160    2.144   .     S
C118   C129    1.396   .     A
C119   C142    1.397   .     A
C119   C141    1.432   .     S
C119   C121    1.398   .     A
C120   C140    1.432   .     S
C120   C122    1.398   .     A
C121   I161    2.121   .     S
C121   C123    1.393   .     A
C122   C124    1.393   .     A
C122   I162    2.121   .     S
C123   C125    1.412   .     A
C123   C130    1.403   .     A
C124   C126    1.412   .     A
C124   C131    1.403   .     A
C125   C127    1.418   .     A
C125   C648    1.402   1_554 S
C126   C129    1.418   .     A
C126   C647    1.402   .     S
C127   C142    1.396   .     A
C127   C137    1.399   .     A
C128   O166    1.276   .     A
C128   C139    1.436   .     S
C128   O168    1.294   .     A
C129   C136    1.399   .     A
C130   H143    1.080   .     S
C130   C658    1.382   1_554 S
C131   H151    1.080   .     S
C131   C659    1.382   .     S
C132   H144    1.112   .     S
C132   H145    1.103   .     S
C132   C481    1.536   1_545 S
C132   C486    1.561   1_545 S
C133   H157    1.103   .     S
C133   H158    1.108   .     S
C133   H156    1.105   .     S
C133   C306    1.536   .     S
C134   H150    1.112   .     S
C134   H149    1.103   .     S
C134   C309    1.536   .     S
C134   C313    1.561   .     S
C135   H147    1.105   .     S
C135   H148    1.108   .     S
C135   H146    1.103   .     S
C135   C482    1.536   1_545 S
C136   H152    1.080   .     S
C136   C652    1.382   .     S
C137   H153    1.080   .     S
C137   C653    1.382   1_554 S
C138   C306    1.561   .     S
C138   C313    1.399   .     S
C139   C486    1.399   1_545 S
C139   C482    1.561   1_545 S
C140   O169    1.290   .     A
C140   O171    1.278   .     A
C141   O172    1.278   .     A
C141   O170    1.290   .     A
C142   I159    2.144   .     S
H155   N48     1.029   1_655 S
N163   Zn174   2.008   .     S
N163   H38     1.029   1_655 S
N163   N48     1.303   1_655 S
N164   Zn173   2.008   .     S
O165   Zn173   2.009   .     S
O166   Zn174   2.009   .     S
O167   Zn174   2.038   .     S
O168   Zn173   2.038   .     S
O169   Zn173   2.002   .     S
O170   Zn174   2.002   .     S
O171   Zn174   2.027   .     S
O172   Zn173   2.027   .     S
C175   C196    1.436   .     S
C175   O225    1.294   .     A
C175   O223    1.276   .     A
C176   C178    1.397   .     A
C176   I218    2.144   .     S
C176   C187    1.396   .     A
C177   C200    1.397   .     A
C177   C199    1.432   .     S
C177   C179    1.398   .     A
C178   C198    1.432   .     S
C178   C180    1.398   .     A
C179   I219    2.121   .     S
C179   C181    1.393   .     A
C180   C182    1.393   .     A
C180   I220    2.121   .     S
C181   C183    1.412   .     A
C181   C188    1.403   .     A
C182   C184    1.412   .     A
C182   C189    1.403   .     A
C183   C185    1.418   .     A
C183   C706    1.402   1_554 S
C184   C187    1.418   .     A
C184   C705    1.402   .     S
C185   C200    1.396   .     A
C185   C195    1.399   .     A
C186   O224    1.276   .     A
C186   C197    1.436   .     S
C186   O226    1.294   .     A
C187   C194    1.399   .     A
C188   H201    1.080   .     S
C188   C716    1.382   1_554 S
C189   H209    1.080   .     S
C189   C717    1.382   .     S
C190   H202    1.112   .     S
C190   H203    1.103   .     S
C191   H215    1.103   .     S
C191   H216    1.108   .     S
C191   H214    1.105   .     S
C191   C364    1.536   .     S
C192   H208    1.112   .     S
C192   H207    1.103   .     S
C192   C367    1.536   .     S
C192   C371    1.561   .     S
C193   H205    1.105   .     S
C193   H206    1.108   .     S
C193   H204    1.103   .     S
C194   H210    1.080   .     S
C194   C710    1.382   .     S
C195   H211    1.080   .     S
C195   C711    1.382   1_554 S
C196   C364    1.561   .     S
C196   C371    1.399   .     S
C198   O227    1.290   .     A
C198   O229    1.278   .     A
C199   O230    1.278   .     A
C199   O228    1.290   .     A
C200   I217    2.144   .     S
H212   N337    1.029   1_455 S
H213   N280    1.029   .     S
N221   Zn232   2.008   .     S
N221   H270    1.029   .     S
N221   N280    1.303   .     S
N222   Zn231   2.008   .     S
N222   H329    1.029   1_455 S
N222   N337    1.303   1_455 S
O223   Zn231   2.009   .     S
O224   Zn232   2.009   .     S
O225   Zn232   2.038   .     S
O226   Zn231   2.038   .     S
O227   Zn231   2.002   .     S
O228   Zn232   2.002   .     S
O229   Zn232   2.027   .     S
O230   Zn231   2.027   .     S
C233   C254    1.436   .     S
C233   O283    1.294   .     A
C233   O281    1.276   .     A
C234   C236    1.397   .     A
C234   I276    2.144   .     S
C234   C245    1.396   .     A
C235   C258    1.397   .     A
C235   C257    1.432   .     S
C235   C237    1.398   .     A
C236   C256    1.432   .     S
C236   C238    1.398   .     A
C237   I277    2.121   .     S
C237   C239    1.393   .     A
C238   C240    1.393   .     A
C238   I278    2.121   .     S
C239   C241    1.412   .     A
C239   C246    1.403   .     A
C240   C242    1.412   .     A
C240   C247    1.403   .     A
C241   C243    1.418   .     A
C241   C764    1.402   1_554 S
C242   C245    1.418   .     A
C242   C763    1.402   .     S
C243   C258    1.396   .     A
C243   C253    1.399   .     A
C244   O282    1.276   .     A
C244   C255    1.436   .     S
C244   O284    1.294   .     A
C245   C252    1.399   .     A
C246   H259    1.080   .     S
C246   C774    1.382   1_554 S
C247   H267    1.080   .     S
C247   C775    1.382   .     S
C248   H260    1.112   .     S
C248   H261    1.103   .     S
C249   H273    1.103   .     S
C249   H274    1.108   .     S
C249   H272    1.105   .     S
C249   C422    1.536   .     S
C250   H266    1.112   .     S
C250   H265    1.103   .     S
C250   C425    1.536   .     S
C250   C429    1.561   .     S
C251   H263    1.105   .     S
C251   H264    1.108   .     S
C251   H262    1.103   .     S
C252   H268    1.080   .     S
C252   C768    1.382   .     S
C253   H269    1.080   .     S
C253   C769    1.382   1_554 S
C254   C422    1.561   .     S
C254   C429    1.399   .     S
C256   O285    1.290   .     A
C256   O287    1.278   .     A
C257   O288    1.278   .     A
C257   O286    1.290   .     A
C258   I275    2.144   .     S
H271   N338    1.029   .     S
N279   Zn290   2.008   .     S
N279   H328    1.029   .     S
N279   N338    1.303   .     S
N280   Zn289   2.008   .     S
O281   Zn289   2.009   .     S
O282   Zn290   2.009   .     S
O283   Zn290   2.038   .     S
O284   Zn289   2.038   .     S
O285   Zn289   2.002   .     S
O286   Zn290   2.002   .     S
O287   Zn290   2.027   .     S
O288   Zn289   2.027   .     S
C291   C312    1.436   .     S
C291   O341    1.294   .     A
C291   O339    1.276   .     A
C292   C294    1.397   .     A
C292   I334    2.144   .     S
C292   C303    1.396   .     A
C293   C316    1.397   .     A
C293   C315    1.432   .     S
C293   C295    1.398   .     A
C294   C314    1.432   .     S
C294   C296    1.398   .     A
C295   I335    2.121   .     S
C295   C297    1.393   .     A
C296   C298    1.393   .     A
C296   I336    2.121   .     S
C297   C299    1.412   .     A
C297   C304    1.403   .     A
C298   C300    1.412   .     A
C298   C305    1.403   .     A
C299   C301    1.418   .     A
C299   C822    1.402   1_554 S
C300   C303    1.418   .     A
C300   C821    1.402   .     S
C301   C316    1.396   .     A
C301   C311    1.399   .     A
C302   O340    1.276   .     A
C302   C313    1.436   .     S
C302   O342    1.294   .     A
C303   C310    1.399   .     A
C304   H317    1.080   .     S
C304   C832    1.382   1_554 S
C305   H325    1.080   .     S
C305   C833    1.382   .     S
C306   H318    1.112   .     S
C306   H319    1.103   .     S
C307   H331    1.103   .     S
C307   H332    1.108   .     S
C307   H330    1.105   .     S
C307   C480    1.536   .     S
C308   H324    1.112   .     S
C308   H323    1.103   .     S
C308   C483    1.536   .     S
C308   C487    1.561   .     S
C309   H321    1.105   .     S
C309   H322    1.108   .     S
C309   H320    1.103   .     S
C310   H326    1.080   .     S
C310   C826    1.382   .     S
C311   H327    1.080   .     S
C311   C827    1.382   1_554 S
C312   C480    1.561   .     S
C312   C487    1.399   .     S
C314   O343    1.290   .     A
C314   O345    1.278   .     A
C315   O346    1.278   .     A
C315   O344    1.290   .     A
C316   I333    2.144   .     S
H329   N222    1.029   1_655 S
N337   Zn348   2.008   .     S
N337   H212    1.029   1_655 S
N337   N222    1.303   1_655 S
N338   Zn347   2.008   .     S
O339   Zn347   2.009   .     S
O340   Zn348   2.009   .     S
O341   Zn348   2.038   .     S
O342   Zn347   2.038   .     S
O343   Zn347   2.002   .     S
O344   Zn348   2.002   .     S
O345   Zn348   2.027   .     S
O346   Zn347   2.027   .     S
C349   C370    1.436   .     S
C349   O399    1.294   .     A
C349   O397    1.276   .     A
C350   C352    1.397   .     A
C350   I392    2.144   .     S
C350   C361    1.396   .     A
C351   C374    1.397   .     A
C351   C373    1.432   .     S
C351   C353    1.398   .     A
C352   C372    1.432   .     S
C352   C354    1.398   .     A
C353   I393    2.121   .     S
C353   C355    1.393   .     A
C354   C356    1.393   .     A
C354   I394    2.121   .     S
C355   C357    1.412   .     A
C355   C362    1.403   .     A
C356   C358    1.412   .     A
C356   C363    1.403   .     A
C357   C359    1.418   .     A
C357   C880    1.402   1_554 S
C358   C361    1.418   .     A
C358   C879    1.402   .     S
C359   C374    1.396   .     A
C359   C369    1.399   .     A
C360   O398    1.276   .     A
C360   C371    1.436   .     S
C360   O400    1.294   .     A
C361   C368    1.399   .     A
C362   H375    1.080   .     S
C362   C890    1.382   1_554 S
C363   H383    1.080   .     S
C363   C891    1.382   .     S
C364   H376    1.112   .     S
C364   H377    1.103   .     S
C365   H389    1.103   .     S
C365   H390    1.108   .     S
C365   H388    1.105   .     S
C365   C16     1.536   1_565 S
C366   H382    1.112   .     S
C366   H381    1.103   .     S
C366   C19     1.536   1_565 S
C366   C23     1.561   1_565 S
C367   H379    1.105   .     S
C367   H380    1.108   .     S
C367   H378    1.103   .     S
C368   H384    1.080   .     S
C368   C884    1.382   .     S
C369   H385    1.080   .     S
C369   C885    1.382   1_554 S
C370   C16     1.561   1_565 S
C370   C23     1.399   1_565 S
C372   O401    1.290   .     A
C372   O403    1.278   .     A
C373   O404    1.278   .     A
C373   O402    1.290   .     A
C374   I391    2.144   .     S
H386   N511    1.029   1_455 S
H387   N454    1.029   .     S
N395   Zn406   2.008   .     S
N395   H444    1.029   .     S
N395   N454    1.303   .     S
N396   Zn405   2.008   .     S
N396   H503    1.029   1_455 S
N396   N511    1.303   1_455 S
O397   Zn405   2.009   .     S
O398   Zn406   2.009   .     S
O399   Zn406   2.038   .     S
O400   Zn405   2.038   .     S
O401   Zn405   2.002   .     S
O402   Zn406   2.002   .     S
O403   Zn406   2.027   .     S
O404   Zn405   2.027   .     S
C407   C428    1.436   .     S
C407   O457    1.294   .     A
C407   O455    1.276   .     A
C408   C410    1.397   .     A
C408   I450    2.144   .     S
C408   C419    1.396   .     A
C409   C432    1.397   .     A
C409   C431    1.432   .     S
C409   C411    1.398   .     A
C410   C430    1.432   .     S
C410   C412    1.398   .     A
C411   I451    2.121   .     S
C411   C413    1.393   .     A
C412   C414    1.393   .     A
C412   I452    2.121   .     S
C413   C415    1.412   .     A
C413   C420    1.403   .     A
C414   C416    1.412   .     A
C414   C421    1.403   .     A
C415   C417    1.418   .     A
C415   C938    1.402   1_554 S
C416   C419    1.418   .     A
C416   C937    1.402   .     S
C417   C432    1.396   .     A
C417   C427    1.399   .     A
C418   O456    1.276   .     A
C418   C429    1.436   .     S
C418   O458    1.294   .     A
C419   C426    1.399   .     A
C420   H433    1.080   .     S
C420   C948    1.382   1_554 S
C421   H441    1.080   .     S
C421   C949    1.382   .     S
C422   H434    1.112   .     S
C422   H435    1.103   .     S
C423   H447    1.103   .     S
C423   H448    1.108   .     S
C423   H446    1.105   .     S
C423   C74     1.536   1_565 S
C424   H440    1.112   .     S
C424   H439    1.103   .     S
C424   C77     1.536   1_565 S
C424   C81     1.561   1_565 S
C425   H437    1.105   .     S
C425   H438    1.108   .     S
C425   H436    1.103   .     S
C426   H442    1.080   .     S
C426   C942    1.382   .     S
C427   H443    1.080   .     S
C427   C943    1.382   1_554 S
C428   C74     1.561   1_565 S
C428   C81     1.399   1_565 S
C430   O459    1.290   .     A
C430   O461    1.278   .     A
C431   O462    1.278   .     A
C431   O460    1.290   .     A
C432   I449    2.144   .     S
H445   N512    1.029   .     S
N453   Zn464   2.008   .     S
N453   H502    1.029   .     S
N453   N512    1.303   .     S
N454   Zn463   2.008   .     S
O455   Zn463   2.009   .     S
O456   Zn464   2.009   .     S
O457   Zn464   2.038   .     S
O458   Zn463   2.038   .     S
O459   Zn463   2.002   .     S
O460   Zn464   2.002   .     S
O461   Zn464   2.027   .     S
O462   Zn463   2.027   .     S
C465   C486    1.436   .     S
C465   O515    1.294   .     A
C465   O513    1.276   .     A
C466   C468    1.397   .     A
C466   I508    2.144   .     S
C466   C477    1.396   .     A
C467   C490    1.397   .     A
C467   C489    1.432   .     S
C467   C469    1.398   .     A
C468   C488    1.432   .     S
C468   C470    1.398   .     A
C469   I509    2.121   .     S
C469   C471    1.393   .     A
C470   C472    1.393   .     A
C470   I510    2.121   .     S
C471   C473    1.412   .     A
C471   C478    1.403   .     A
C472   C474    1.412   .     A
C472   C479    1.403   .     A
C473   C475    1.418   .     A
C473   C996    1.402   1_554 S
C474   C477    1.418   .     A
C474   C995    1.402   .     S
C475   C490    1.396   .     A
C475   C485    1.399   .     A
C476   O514    1.276   .     A
C476   C487    1.436   .     S
C476   O516    1.294   .     A
C477   C484    1.399   .     A
C478   H491    1.080   .     S
C478   C1006   1.382   1_554 S
C479   H499    1.080   .     S
C479   C1007   1.382   .     S
C480   H492    1.112   .     S
C480   H493    1.103   .     S
C481   H505    1.103   .     S
C481   H506    1.108   .     S
C481   H504    1.105   .     S
C481   C132    1.536   1_565 S
C482   H498    1.112   .     S
C482   H497    1.103   .     S
C482   C135    1.536   1_565 S
C482   C139    1.561   1_565 S
C483   H495    1.105   .     S
C483   H496    1.108   .     S
C483   H494    1.103   .     S
C484   H500    1.080   .     S
C484   C1000   1.382   .     S
C485   H501    1.080   .     S
C485   C1001   1.382   1_554 S
C486   C132    1.561   1_565 S
C486   C139    1.399   1_565 S
C488   O517    1.290   .     A
C488   O519    1.278   .     A
C489   O520    1.278   .     A
C489   O518    1.290   .     A
C490   I507    2.144   .     S
H503   N396    1.029   1_655 S
N511   Zn522   2.008   .     S
N511   H386    1.029   1_655 S
N511   N396    1.303   1_655 S
N512   Zn521   2.008   .     S
O513   Zn521   2.009   .     S
O514   Zn522   2.009   .     S
O515   Zn522   2.038   .     S
O516   Zn521   2.038   .     S
O517   Zn521   2.002   .     S
O518   Zn522   2.002   .     S
O519   Zn522   2.027   .     S
O520   Zn521   2.027   .     S
C523   C544    1.436   .     S
C523   O573    1.294   .     A
C523   O571    1.276   .     A
C524   C526    1.397   .     A
C524   I566    2.144   .     S
C524   C535    1.396   .     A
C525   C548    1.397   .     A
C525   C547    1.432   .     S
C525   C527    1.398   .     A
C526   C546    1.432   .     S
C526   C528    1.398   .     A
C527   I567    2.121   .     S
C527   C529    1.393   .     A
C528   C530    1.393   .     A
C528   I568    2.121   .     S
C529   C531    1.412   .     A
C529   C536    1.403   .     A
C530   C532    1.412   .     A
C530   C537    1.403   .     A
C531   C533    1.418   .     A
C532   C535    1.418   .     A
C532   C9      1.402   1_556 S
C533   C548    1.396   .     A
C533   C543    1.399   .     A
C534   O572    1.276   .     A
C534   C545    1.436   .     S
C534   O574    1.294   .     A
C535   C542    1.399   .     A
C536   H549    1.080   .     S
C537   H557    1.080   .     S
C537   C21     1.382   1_556 S
C538   H550    1.112   .     S
C538   H551    1.103   .     S
C538   C887    1.536   1_545 S
C538   C892    1.561   1_545 S
C539   H563    1.103   .     S
C539   H564    1.108   .     S
C539   H562    1.105   .     S
C539   C712    1.536   .     S
C540   H556    1.112   .     S
C540   H555    1.103   .     S
C540   C715    1.536   .     S
C540   C719    1.561   .     S
C541   H553    1.105   .     S
C541   H554    1.108   .     S
C541   H552    1.103   .     S
C541   C888    1.536   1_545 S
C542   H558    1.080   .     S
C542   C14     1.382   1_556 S
C543   H559    1.080   .     S
C544   C712    1.561   .     S
C544   C719    1.399   .     S
C545   C892    1.399   1_545 S
C545   C888    1.561   1_545 S
C546   O575    1.290   .     A
C546   O577    1.278   .     A
C547   O578    1.278   .     A
C547   O576    1.290   .     A
C548   I565    2.144   .     S
H560   N685    1.029   1_455 S
H561   N628    1.029   .     S
N569   Zn580   2.008   .     S
N569   H618    1.029   .     S
N569   N628    1.303   .     S
N570   Zn579   2.008   .     S
N570   H677    1.029   1_455 S
N570   N685    1.303   1_455 S
O571   Zn579   2.009   .     S
O572   Zn580   2.009   .     S
O573   Zn580   2.038   .     S
O574   Zn579   2.038   .     S
O575   Zn579   2.002   .     S
O576   Zn580   2.002   .     S
O577   Zn580   2.027   .     S
O578   Zn579   2.027   .     S
C581   C602    1.436   .     S
C581   O631    1.294   .     A
C581   O629    1.276   .     A
C582   C584    1.397   .     A
C582   I624    2.144   .     S
C582   C593    1.396   .     A
C583   C606    1.397   .     A
C583   C605    1.432   .     S
C583   C585    1.398   .     A
C584   C604    1.432   .     S
C584   C586    1.398   .     A
C585   I625    2.121   .     S
C585   C587    1.393   .     A
C586   C588    1.393   .     A
C586   I626    2.121   .     S
C587   C589    1.412   .     A
C587   C594    1.403   .     A
C588   C590    1.412   .     A
C588   C595    1.403   .     A
C589   C591    1.418   .     A
C590   C593    1.418   .     A
C590   C67     1.402   1_556 S
C591   C606    1.396   .     A
C591   C601    1.399   .     A
C592   O630    1.276   .     A
C592   C603    1.436   .     S
C592   O632    1.294   .     A
C593   C600    1.399   .     A
C594   H607    1.080   .     S
C595   H615    1.080   .     S
C595   C79     1.382   1_556 S
C596   H608    1.112   .     S
C596   H609    1.103   .     S
C596   C945    1.536   1_545 S
C596   C950    1.561   1_545 S
C597   H621    1.103   .     S
C597   H622    1.108   .     S
C597   H620    1.105   .     S
C597   C770    1.536   .     S
C598   H614    1.112   .     S
C598   H613    1.103   .     S
C598   C773    1.536   .     S
C598   C777    1.561   .     S
C599   H611    1.105   .     S
C599   H612    1.108   .     S
C599   H610    1.103   .     S
C599   C946    1.536   1_545 S
C600   H616    1.080   .     S
C600   C72     1.382   1_556 S
C601   H617    1.080   .     S
C602   C770    1.561   .     S
C602   C777    1.399   .     S
C603   C950    1.399   1_545 S
C603   C946    1.561   1_545 S
C604   O633    1.290   .     A
C604   O635    1.278   .     A
C605   O636    1.278   .     A
C605   O634    1.290   .     A
C606   I623    2.144   .     S
H619   N686    1.029   .     S
N627   Zn638   2.008   .     S
N627   H676    1.029   .     S
N627   N686    1.303   .     S
N628   Zn637   2.008   .     S
O629   Zn637   2.009   .     S
O630   Zn638   2.009   .     S
O631   Zn638   2.038   .     S
O632   Zn637   2.038   .     S
O633   Zn637   2.002   .     S
O634   Zn638   2.002   .     S
O635   Zn638   2.027   .     S
O636   Zn637   2.027   .     S
C639   C660    1.436   .     S
C639   O689    1.294   .     A
C639   O687    1.276   .     A
C640   C642    1.397   .     A
C640   I682    2.144   .     S
C640   C651    1.396   .     A
C641   C664    1.397   .     A
C641   C663    1.432   .     S
C641   C643    1.398   .     A
C642   C662    1.432   .     S
C642   C644    1.398   .     A
C643   I683    2.121   .     S
C643   C645    1.393   .     A
C644   C646    1.393   .     A
C644   I684    2.121   .     S
C645   C647    1.412   .     A
C645   C652    1.403   .     A
C646   C648    1.412   .     A
C646   C653    1.403   .     A
C647   C649    1.418   .     A
C648   C651    1.418   .     A
C648   C125    1.402   1_556 S
C649   C664    1.396   .     A
C649   C659    1.399   .     A
C650   O688    1.276   .     A
C650   C661    1.436   .     S
C650   O690    1.294   .     A
C651   C658    1.399   .     A
C652   H665    1.080   .     S
C653   H673    1.080   .     S
C653   C137    1.382   1_556 S
C654   H666    1.112   .     S
C654   H667    1.103   .     S
C654   C1003   1.536   1_545 S
C654   C1008   1.561   1_545 S
C655   H679    1.103   .     S
C655   H680    1.108   .     S
C655   H678    1.105   .     S
C655   C828    1.536   .     S
C656   H672    1.112   .     S
C656   H671    1.103   .     S
C656   C831    1.536   .     S
C656   C835    1.561   .     S
C657   H669    1.105   .     S
C657   H670    1.108   .     S
C657   H668    1.103   .     S
C657   C1004   1.536   1_545 S
C658   H674    1.080   .     S
C658   C130    1.382   1_556 S
C659   H675    1.080   .     S
C660   C828    1.561   .     S
C660   C835    1.399   .     S
C661   C1008   1.399   1_545 S
C661   C1004   1.561   1_545 S
C662   O691    1.290   .     A
C662   O693    1.278   .     A
C663   O694    1.278   .     A
C663   O692    1.290   .     A
C664   I681    2.144   .     S
H677   N570    1.029   1_655 S
N685   Zn696   2.008   .     S
N685   H560    1.029   1_655 S
N685   N570    1.303   1_655 S
N686   Zn695   2.008   .     S
O687   Zn695   2.009   .     S
O688   Zn696   2.009   .     S
O689   Zn696   2.038   .     S
O690   Zn695   2.038   .     S
O691   Zn695   2.002   .     S
O692   Zn696   2.002   .     S
O693   Zn696   2.027   .     S
O694   Zn695   2.027   .     S
C697   C718    1.436   .     S
C697   O747    1.294   .     A
C697   O745    1.276   .     A
C698   C700    1.397   .     A
C698   I740    2.144   .     S
C698   C709    1.396   .     A
C699   C722    1.397   .     A
C699   C721    1.432   .     S
C699   C701    1.398   .     A
C700   C720    1.432   .     S
C700   C702    1.398   .     A
C701   I741    2.121   .     S
C701   C703    1.393   .     A
C702   C704    1.393   .     A
C702   I742    2.121   .     S
C703   C705    1.412   .     A
C703   C710    1.403   .     A
C704   C706    1.412   .     A
C704   C711    1.403   .     A
C705   C707    1.418   .     A
C706   C709    1.418   .     A
C706   C183    1.402   1_556 S
C707   C722    1.396   .     A
C707   C717    1.399   .     A
C708   O746    1.276   .     A
C708   C719    1.436   .     S
C708   O748    1.294   .     A
C709   C716    1.399   .     A
C710   H723    1.080   .     S
C711   H731    1.080   .     S
C711   C195    1.382   1_556 S
C712   H724    1.112   .     S
C712   H725    1.103   .     S
C713   H737    1.103   .     S
C713   H738    1.108   .     S
C713   H736    1.105   .     S
C713   C886    1.536   .     S
C714   H730    1.112   .     S
C714   H729    1.103   .     S
C714   C889    1.536   .     S
C714   C893    1.561   .     S
C715   H727    1.105   .     S
C715   H728    1.108   .     S
C715   H726    1.103   .     S
C716   H732    1.080   .     S
C716   C188    1.382   1_556 S
C717   H733    1.080   .     S
C718   C886    1.561   .     S
C718   C893    1.399   .     S
C720   O749    1.290   .     A
C720   O751    1.278   .     A
C721   O752    1.278   .     A
C721   O750    1.290   .     A
C722   I739    2.144   .     S
H734   N859    1.029   1_455 S
H735   N802    1.029   .     S
N743   Zn754   2.008   .     S
N743   H792    1.029   .     S
N743   N802    1.303   .     S
N744   Zn753   2.008   .     S
N744   H851    1.029   1_455 S
N744   N859    1.303   1_455 S
O745   Zn753   2.009   .     S
O746   Zn754   2.009   .     S
O747   Zn754   2.038   .     S
O748   Zn753   2.038   .     S
O749   Zn753   2.002   .     S
O750   Zn754   2.002   .     S
O751   Zn754   2.027   .     S
O752   Zn753   2.027   .     S
C755   C776    1.436   .     S
C755   O805    1.294   .     A
C755   O803    1.276   .     A
C756   C758    1.397   .     A
C756   I798    2.144   .     S
C756   C767    1.396   .     A
C757   C780    1.397   .     A
C757   C779    1.432   .     S
C757   C759    1.398   .     A
C758   C778    1.432   .     S
C758   C760    1.398   .     A
C759   I799    2.121   .     S
C759   C761    1.393   .     A
C760   C762    1.393   .     A
C760   I800    2.121   .     S
C761   C763    1.412   .     A
C761   C768    1.403   .     A
C762   C764    1.412   .     A
C762   C769    1.403   .     A
C763   C765    1.418   .     A
C764   C767    1.418   .     A
C764   C241    1.402   1_556 S
C765   C780    1.396   .     A
C765   C775    1.399   .     A
C766   O804    1.276   .     A
C766   C777    1.436   .     S
C766   O806    1.294   .     A
C767   C774    1.399   .     A
C768   H781    1.080   .     S
C769   H789    1.080   .     S
C769   C253    1.382   1_556 S
C770   H782    1.112   .     S
C770   H783    1.103   .     S
C771   H795    1.103   .     S
C771   H796    1.108   .     S
C771   H794    1.105   .     S
C771   C944    1.536   .     S
C772   H788    1.112   .     S
C772   H787    1.103   .     S
C772   C947    1.536   .     S
C772   C951    1.561   .     S
C773   H785    1.105   .     S
C773   H786    1.108   .     S
C773   H784    1.103   .     S
C774   H790    1.080   .     S
C774   C246    1.382   1_556 S
C775   H791    1.080   .     S
C776   C944    1.561   .     S
C776   C951    1.399   .     S
C778   O807    1.290   .     A
C778   O809    1.278   .     A
C779   O810    1.278   .     A
C779   O808    1.290   .     A
C780   I797    2.144   .     S
H793   N860    1.029   .     S
N801   Zn812   2.008   .     S
N801   H850    1.029   .     S
N801   N860    1.303   .     S
N802   Zn811   2.008   .     S
O803   Zn811   2.009   .     S
O804   Zn812   2.009   .     S
O805   Zn812   2.038   .     S
O806   Zn811   2.038   .     S
O807   Zn811   2.002   .     S
O808   Zn812   2.002   .     S
O809   Zn812   2.027   .     S
O810   Zn811   2.027   .     S
C813   C834    1.436   .     S
C813   O863    1.294   .     A
C813   O861    1.276   .     A
C814   C816    1.397   .     A
C814   I856    2.144   .     S
C814   C825    1.396   .     A
C815   C838    1.397   .     A
C815   C837    1.432   .     S
C815   C817    1.398   .     A
C816   C836    1.432   .     S
C816   C818    1.398   .     A
C817   I857    2.121   .     S
C817   C819    1.393   .     A
C818   C820    1.393   .     A
C818   I858    2.121   .     S
C819   C821    1.412   .     A
C819   C826    1.403   .     A
C820   C822    1.412   .     A
C820   C827    1.403   .     A
C821   C823    1.418   .     A
C822   C825    1.418   .     A
C822   C299    1.402   1_556 S
C823   C838    1.396   .     A
C823   C833    1.399   .     A
C824   O862    1.276   .     A
C824   C835    1.436   .     S
C824   O864    1.294   .     A
C825   C832    1.399   .     A
C826   H839    1.080   .     S
C827   H847    1.080   .     S
C827   C311    1.382   1_556 S
C828   H840    1.112   .     S
C828   H841    1.103   .     S
C829   H853    1.103   .     S
C829   H854    1.108   .     S
C829   H852    1.105   .     S
C829   C1002   1.536   .     S
C830   H846    1.112   .     S
C830   H845    1.103   .     S
C830   C1005   1.536   .     S
C830   C1009   1.561   .     S
C831   H843    1.105   .     S
C831   H844    1.108   .     S
C831   H842    1.103   .     S
C832   H848    1.080   .     S
C832   C304    1.382   1_556 S
C833   H849    1.080   .     S
C834   C1002   1.561   .     S
C834   C1009   1.399   .     S
C836   O865    1.290   .     A
C836   O867    1.278   .     A
C837   O868    1.278   .     A
C837   O866    1.290   .     A
C838   I855    2.144   .     S
H851   N744    1.029   1_655 S
N859   Zn870   2.008   .     S
N859   H734    1.029   1_655 S
N859   N744    1.303   1_655 S
N860   Zn869   2.008   .     S
O861   Zn869   2.009   .     S
O862   Zn870   2.009   .     S
O863   Zn870   2.038   .     S
O864   Zn869   2.038   .     S
O865   Zn869   2.002   .     S
O866   Zn870   2.002   .     S
O867   Zn870   2.027   .     S
O868   Zn869   2.027   .     S
C871   C892    1.436   .     S
C871   O921    1.294   .     A
C871   O919    1.276   .     A
C872   C874    1.397   .     A
C872   I914    2.144   .     S
C872   C883    1.396   .     A
C873   C896    1.397   .     A
C873   C895    1.432   .     S
C873   C875    1.398   .     A
C874   C894    1.432   .     S
C874   C876    1.398   .     A
C875   I915    2.121   .     S
C875   C877    1.393   .     A
C876   C878    1.393   .     A
C876   I916    2.121   .     S
C877   C879    1.412   .     A
C877   C884    1.403   .     A
C878   C880    1.412   .     A
C878   C885    1.403   .     A
C879   C881    1.418   .     A
C880   C883    1.418   .     A
C880   C357    1.402   1_556 S
C881   C896    1.396   .     A
C881   C891    1.399   .     A
C882   O920    1.276   .     A
C882   C893    1.436   .     S
C882   O922    1.294   .     A
C883   C890    1.399   .     A
C884   H897    1.080   .     S
C885   H905    1.080   .     S
C885   C369    1.382   1_556 S
C886   H898    1.112   .     S
C886   H899    1.103   .     S
C887   H911    1.103   .     S
C887   H912    1.108   .     S
C887   H910    1.105   .     S
C887   C538    1.536   1_565 S
C888   H904    1.112   .     S
C888   H903    1.103   .     S
C888   C541    1.536   1_565 S
C888   C545    1.561   1_565 S
C889   H901    1.105   .     S
C889   H902    1.108   .     S
C889   H900    1.103   .     S
C890   H906    1.080   .     S
C890   C362    1.382   1_556 S
C891   H907    1.080   .     S
C892   C538    1.561   1_565 S
C892   C545    1.399   1_565 S
C894   O923    1.290   .     A
C894   O925    1.278   .     A
C895   O926    1.278   .     A
C895   O924    1.290   .     A
C896   I913    2.144   .     S
H908   N1033   1.029   1_455 S
H909   N976    1.029   .     S
N917   Zn928   2.008   .     S
N917   H966    1.029   .     S
N917   N976    1.303   .     S
N918   Zn927   2.008   .     S
N918   H1025   1.029   1_455 S
N918   N1033   1.303   1_455 S
O919   Zn927   2.009   .     S
O920   Zn928   2.009   .     S
O921   Zn928   2.038   .     S
O922   Zn927   2.038   .     S
O923   Zn927   2.002   .     S
O924   Zn928   2.002   .     S
O925   Zn928   2.027   .     S
O926   Zn927   2.027   .     S
C929   C950    1.436   .     S
C929   O979    1.294   .     A
C929   O977    1.276   .     A
C930   C932    1.397   .     A
C930   I972    2.144   .     S
C930   C941    1.396   .     A
C931   C954    1.397   .     A
C931   C953    1.432   .     S
C931   C933    1.398   .     A
C932   C952    1.432   .     S
C932   C934    1.398   .     A
C933   I973    2.121   .     S
C933   C935    1.393   .     A
C934   C936    1.393   .     A
C934   I974    2.121   .     S
C935   C937    1.412   .     A
C935   C942    1.403   .     A
C936   C938    1.412   .     A
C936   C943    1.403   .     A
C937   C939    1.418   .     A
C938   C941    1.418   .     A
C938   C415    1.402   1_556 S
C939   C954    1.396   .     A
C939   C949    1.399   .     A
C940   O978    1.276   .     A
C940   C951    1.436   .     S
C940   O980    1.294   .     A
C941   C948    1.399   .     A
C942   H955    1.080   .     S
C943   H963    1.080   .     S
C943   C427    1.382   1_556 S
C944   H956    1.112   .     S
C944   H957    1.103   .     S
C945   H969    1.103   .     S
C945   H970    1.108   .     S
C945   H968    1.105   .     S
C945   C596    1.536   1_565 S
C946   H962    1.112   .     S
C946   H961    1.103   .     S
C946   C599    1.536   1_565 S
C946   C603    1.561   1_565 S
C947   H959    1.105   .     S
C947   H960    1.108   .     S
C947   H958    1.103   .     S
C948   H964    1.080   .     S
C948   C420    1.382   1_556 S
C949   H965    1.080   .     S
C950   C596    1.561   1_565 S
C950   C603    1.399   1_565 S
C952   O981    1.290   .     A
C952   O983    1.278   .     A
C953   O984    1.278   .     A
C953   O982    1.290   .     A
C954   I971    2.144   .     S
H967   N1034   1.029   .     S
N975   Zn986   2.008   .     S
N975   H1024   1.029   .     S
N975   N1034   1.303   .     S
N976   Zn985   2.008   .     S
O977   Zn985   2.009   .     S
O978   Zn986   2.009   .     S
O979   Zn986   2.038   .     S
O980   Zn985   2.038   .     S
O981   Zn985   2.002   .     S
O982   Zn986   2.002   .     S
O983   Zn986   2.027   .     S
O984   Zn985   2.027   .     S
C987   C1008   1.436   .     S
C987   O1037   1.294   .     A
C987   O1035   1.276   .     A
C988   C990    1.397   .     A
C988   I1030   2.144   .     S
C988   C999    1.396   .     A
C989   C1012   1.397   .     A
C989   C1011   1.432   .     S
C989   C991    1.398   .     A
C990   C1010   1.432   .     S
C990   C992    1.398   .     A
C991   I1031   2.121   .     S
C991   C993    1.393   .     A
C992   C994    1.393   .     A
C992   I1032   2.121   .     S
C993   C995    1.412   .     A
C993   C1000   1.403   .     A
C994   C996    1.412   .     A
C994   C1001   1.403   .     A
C995   C997    1.418   .     A
C996   C999    1.418   .     A
C996   C473    1.402   1_556 S
C997   C1012   1.396   .     A
C997   C1007   1.399   .     A
C998   O1036   1.276   .     A
C998   C1009   1.436   .     S
C998   O1038   1.294   .     A
C999   C1006   1.399   .     A
C1000  H1013   1.080   .     S
C1001  H1021   1.080   .     S
C1001  C485    1.382   1_556 S
C1002  H1014   1.112   .     S
C1002  H1015   1.103   .     S
C1003  H1027   1.103   .     S
C1003  H1028   1.108   .     S
C1003  H1026   1.105   .     S
C1003  C654    1.536   1_565 S
C1004  H1020   1.112   .     S
C1004  H1019   1.103   .     S
C1004  C657    1.536   1_565 S
C1004  C661    1.561   1_565 S
C1005  H1017   1.105   .     S
C1005  H1018   1.108   .     S
C1005  H1016   1.103   .     S
C1006  H1022   1.080   .     S
C1006  C478    1.382   1_556 S
C1007  H1023   1.080   .     S
C1008  C654    1.561   1_565 S
C1008  C661    1.399   1_565 S
C1010  O1039   1.290   .     A
C1010  O1041   1.278   .     A
C1011  O1042   1.278   .     A
C1011  O1040   1.290   .     A
C1012  I1029   2.144   .     S
H1025  N918    1.029   1_655 S
N1033  Zn1044  2.008   .     S
N1033  H908    1.029   1_655 S
N1033  N918    1.303   1_655 S
N1034  Zn1043  2.008   .     S
O1035  Zn1043  2.009   .     S
O1036  Zn1044  2.009   .     S
O1037  Zn1044  2.038   .     S
O1038  Zn1043  2.038   .     S
O1039  Zn1043  2.002   .     S
O1040  Zn1044  2.002   .     S
O1041  Zn1044  2.027   .     S
O1042  Zn1043  2.027   .     S
