data_str_m2_o1_o16_pcu_sym.99
_audit_creation_date              2020-01-03
_audit_creation_method            'Materials Studio'
_symmetry_space_group_name_H-M    'P1'
_symmetry_Int_Tables_number       1
_symmetry_cell_setting            triclinic
loop_
_symmetry_equiv_pos_as_xyz
  x,y,z
_cell_length_a                    28.8167
_cell_length_b                    32.4315
_cell_length_c                    27.0700
_cell_angle_alpha                 92.6255
_cell_angle_beta                  71.4952
_cell_angle_gamma                 89.5805
loop_
_atom_site_label
_atom_site_type_symbol
_atom_site_fract_x
_atom_site_fract_y
_atom_site_fract_z
_atom_site_U_iso_or_equiv
_atom_site_adp_type
_atom_site_occupancy
C1     C     0.16652   0.24585   0.25013   0.00000  Uiso   1.00
C2     C     0.12383   0.17038   0.40742   0.00000  Uiso   1.00
C3     C     0.20987   0.31120   0.23109   0.00000  Uiso   1.00
C4     C     0.14012   0.16596   0.35000   0.00000  Uiso   1.00
C5     C     0.20950   0.02055   0.23243   0.00000  Uiso   1.00
C6     C     0.16547   0.04295   0.25485   0.00000  Uiso   1.00
C7     C     0.12135   0.02201   0.27769   0.00000  Uiso   1.00
C8     C     0.12195   0.31253   0.27390   0.00000  Uiso   1.00
C9     C     0.16603   0.29048   0.25119   0.00000  Uiso   1.00
C10    C     0.29966   0.19627   0.27776   0.00000  Uiso   1.00
C11    C     0.01507   0.19612   0.27890   0.00000  Uiso   1.00
C12    C     0.14762   0.17853   0.48691   0.00000  Uiso   1.00
C13    C     0.03327   0.13693   0.22123   0.00000  Uiso   1.00
C14    C     0.31710   0.13658   0.22238   0.00000  Uiso   1.00
C15    C     0.16617   0.08756   0.25190   0.00000  Uiso   1.00
C16    C     0.19330   0.16818   0.14972   0.00000  Uiso   1.00
C17    C     0.26561   0.14839   0.00693   0.00000  Uiso   1.00
C18    C     0.20910   0.16983   0.09167   0.00000  Uiso   1.00
C19    C     0.08031   0.19275   0.43228   0.00000  Uiso   1.00
C20    C     0.07188   0.21043   0.48195   0.00000  Uiso   1.00
C21    C     0.10623   0.20555   0.00765   0.00000  Uiso   1.00
C22    C     0.29995   0.15461   0.07994   0.00000  Uiso   1.00
C23    C     0.15578   0.16050   0.43597   0.00000  Uiso   1.00
C24    C     0.06610   0.10323   0.18665   0.00000  Uiso   1.00
C25    C     0.28050   0.10749   0.40415   0.00000  Uiso   1.00
C26    C     0.18248   0.17026   0.01338   0.00000  Uiso   1.00
C27    C     0.22791   0.15037   0.48466   0.00000  Uiso   1.00
C28    C     0.23441   0.13160   0.43480   0.00000  Uiso   1.00
C29    C     0.19658   0.13404   0.41351   0.00000  Uiso   1.00
C30    C     0.17335   0.17948   0.06752   0.00000  Uiso   1.00
C31    C     0.25724   0.15871   0.05961   0.00000  Uiso   1.00
Cu32   Cu    0.11978   0.16666   0.25000   0.00000  Uiso   1.00
Cu33   Cu    0.21355   0.16667   0.25000   0.00000  Uiso   1.00
H34    H     0.24358   0.03600   0.21499   0.00000  Uiso   1.00
H35    H     0.30191   0.18209   0.10514   0.00000  Uiso   1.00
H36    H     0.29664   0.12587   0.10100   0.00000  Uiso   1.00
H37    H     0.00206   0.15236   0.04783   0.00000  Uiso   1.00
H38    H     0.08472   0.06737   0.32240   0.00000  Uiso   1.00
H39    H     0.05511   0.21781   0.31844   0.00000  Uiso   1.00
H40    H     0.10535   0.10789   0.17616   0.00000  Uiso   1.00
H41    H     0.05761   0.07325   0.20544   0.00000  Uiso   1.00
H42    H     0.05943   0.10065   0.14839   0.00000  Uiso   1.00
H43    H     0.27649   0.11468   0.18400   0.00000  Uiso   1.00
H44    H     0.27825   0.09384   0.36660   0.00000  Uiso   1.00
H45    H     0.08817   0.29650   0.29087   0.00000  Uiso   1.00
H46    H     0.31230   0.12824   0.39476   0.00000  Uiso   1.00
H47    H     0.28688   0.08183   0.42720   0.00000  Uiso   1.00
H48    H     0.13318   0.21801   0.11962   0.00000  Uiso   1.00
H49    H     0.27393   0.21988   0.30037   0.00000  Uiso   1.00
H50    H     0.30169   0.13687   0.48391   0.00000  Uiso   1.00
H51    H     0.05496   0.20003   0.41156   0.00000  Uiso   1.00
H52    H     0.10029   0.22550   0.04194   0.00000  Uiso   1.00
H53    H     0.04003   0.23043   0.49928   0.00000  Uiso   1.00
H54    H     0.20006   0.11581   0.37798   0.00000  Uiso   1.00
H55    H     0.24423   0.29439   0.21339   0.00000  Uiso   1.00
N56    N     0.04931   0.16666   0.24998   0.00000  Uiso   1.00
N57    N     0.28402   0.16669   0.24999   0.00000  Uiso   1.00
O58    O     0.12708   0.22678   0.25000   0.00000  Uiso   1.00
O59    O     0.02612   0.22671   0.30990   0.00000  Uiso   1.00
O60    O     0.30350   0.10466   0.19510   0.00000  Uiso   1.00
O61    O     0.12788   0.19419   0.09780   0.00000  Uiso   1.00
O62    O     0.20627   0.22679   0.25000   0.00000  Uiso   1.00
O63    O     0.10775   0.16665   0.32549   0.00000  Uiso   1.00
O64    O     0.18694   0.16666   0.32549   0.00000  Uiso   1.00
O65    O     0.12706   0.10654   0.24999   0.00000  Uiso   1.00
O66    O     0.20625   0.10655   0.24999   0.00000  Uiso   1.00
O67    O     0.14640   0.16667   0.17451   0.00000  Uiso   1.00
O68    O     0.22559   0.16668   0.17451   0.00000  Uiso   1.00
O69    O     0.07757   0.04187   0.30486   0.00000  Uiso   1.00
C70    C     0.49985   0.24585   0.25013   0.00000  Uiso   1.00
C71    C     0.45716   0.17038   0.40742   0.00000  Uiso   1.00
C72    C     0.54320   0.31120   0.23109   0.00000  Uiso   1.00
C73    C     0.47346   0.16596   0.35000   0.00000  Uiso   1.00
C74    C     0.54284   0.02055   0.23243   0.00000  Uiso   1.00
C75    C     0.49880   0.04295   0.25485   0.00000  Uiso   1.00
C76    C     0.45469   0.02201   0.27769   0.00000  Uiso   1.00
C77    C     0.45528   0.31253   0.27390   0.00000  Uiso   1.00
C78    C     0.49937   0.29048   0.25119   0.00000  Uiso   1.00
C79    C     0.63299   0.19627   0.27776   0.00000  Uiso   1.00
C80    C     0.34840   0.19612   0.27890   0.00000  Uiso   1.00
C81    C     0.48095   0.17853   0.48691   0.00000  Uiso   1.00
C82    C     0.36660   0.13693   0.22123   0.00000  Uiso   1.00
C83    C     0.65043   0.13658   0.22238   0.00000  Uiso   1.00
C84    C     0.49951   0.08756   0.25190   0.00000  Uiso   1.00
C85    C     0.52663   0.16818   0.14972   0.00000  Uiso   1.00
C86    C     0.59894   0.14839   0.00693   0.00000  Uiso   1.00
C87    C     0.54243   0.16983   0.09167   0.00000  Uiso   1.00
C88    C     0.41364   0.19275   0.43228   0.00000  Uiso   1.00
C89    C     0.40521   0.21043   0.48195   0.00000  Uiso   1.00
C90    C     0.43957   0.20555   0.00765   0.00000  Uiso   1.00
C91    C     0.63328   0.15461   0.07994   0.00000  Uiso   1.00
C92    C     0.48911   0.16050   0.43597   0.00000  Uiso   1.00
C93    C     0.39943   0.10323   0.18665   0.00000  Uiso   1.00
C94    C     0.61384   0.10749   0.40415   0.00000  Uiso   1.00
C95    C     0.51581   0.17026   0.01338   0.00000  Uiso   1.00
C96    C     0.56125   0.15037   0.48466   0.00000  Uiso   1.00
C97    C     0.56774   0.13160   0.43480   0.00000  Uiso   1.00
C98    C     0.52991   0.13404   0.41351   0.00000  Uiso   1.00
C99    C     0.50668   0.17948   0.06752   0.00000  Uiso   1.00
C100   C     0.59057   0.15871   0.05961   0.00000  Uiso   1.00
Cu101  Cu    0.45311   0.16666   0.25000   0.00000  Uiso   1.00
Cu102  Cu    0.54689   0.16667   0.25000   0.00000  Uiso   1.00
H103   H     0.57692   0.03600   0.21499   0.00000  Uiso   1.00
H104   H     0.63524   0.18209   0.10514   0.00000  Uiso   1.00
H105   H     0.62997   0.12587   0.10100   0.00000  Uiso   1.00
H106   H     0.33540   0.15236   0.04783   0.00000  Uiso   1.00
H107   H     0.41805   0.06737   0.32240   0.00000  Uiso   1.00
H108   H     0.38844   0.21781   0.31844   0.00000  Uiso   1.00
H109   H     0.43869   0.10789   0.17616   0.00000  Uiso   1.00
H110   H     0.39094   0.07325   0.20544   0.00000  Uiso   1.00
H111   H     0.39277   0.10065   0.14839   0.00000  Uiso   1.00
H112   H     0.60983   0.11468   0.18400   0.00000  Uiso   1.00
H113   H     0.61158   0.09384   0.36660   0.00000  Uiso   1.00
H114   H     0.42150   0.29650   0.29087   0.00000  Uiso   1.00
H115   H     0.64563   0.12824   0.39476   0.00000  Uiso   1.00
H116   H     0.62021   0.08183   0.42720   0.00000  Uiso   1.00
H117   H     0.46652   0.21801   0.11962   0.00000  Uiso   1.00
H118   H     0.60726   0.21988   0.30037   0.00000  Uiso   1.00
H119   H     0.63503   0.13687   0.48391   0.00000  Uiso   1.00
H120   H     0.38830   0.20003   0.41156   0.00000  Uiso   1.00
H121   H     0.43362   0.22550   0.04194   0.00000  Uiso   1.00
H122   H     0.37336   0.23043   0.49928   0.00000  Uiso   1.00
H123   H     0.53339   0.11581   0.37798   0.00000  Uiso   1.00
H124   H     0.57756   0.29439   0.21339   0.00000  Uiso   1.00
N125   N     0.38265   0.16666   0.24998   0.00000  Uiso   1.00
N126   N     0.61735   0.16669   0.24999   0.00000  Uiso   1.00
O127   O     0.46042   0.22678   0.25000   0.00000  Uiso   1.00
O128   O     0.35946   0.22671   0.30990   0.00000  Uiso   1.00
O129   O     0.63683   0.10466   0.19510   0.00000  Uiso   1.00
O130   O     0.46121   0.19419   0.09780   0.00000  Uiso   1.00
O131   O     0.53961   0.22679   0.25000   0.00000  Uiso   1.00
O132   O     0.44108   0.16665   0.32549   0.00000  Uiso   1.00
O133   O     0.52027   0.16666   0.32549   0.00000  Uiso   1.00
O134   O     0.46039   0.10654   0.24999   0.00000  Uiso   1.00
O135   O     0.53958   0.10655   0.24999   0.00000  Uiso   1.00
O136   O     0.47973   0.16667   0.17451   0.00000  Uiso   1.00
O137   O     0.55892   0.16668   0.17451   0.00000  Uiso   1.00
O138   O     0.41090   0.04187   0.30486   0.00000  Uiso   1.00
C139   C     0.83318   0.24585   0.25013   0.00000  Uiso   1.00
C140   C     0.79049   0.17038   0.40742   0.00000  Uiso   1.00
C141   C     0.87653   0.31120   0.23109   0.00000  Uiso   1.00
C142   C     0.80679   0.16596   0.35000   0.00000  Uiso   1.00
C143   C     0.87617   0.02055   0.23243   0.00000  Uiso   1.00
C144   C     0.83213   0.04295   0.25485   0.00000  Uiso   1.00
C145   C     0.78802   0.02201   0.27769   0.00000  Uiso   1.00
C146   C     0.78862   0.31253   0.27390   0.00000  Uiso   1.00
C147   C     0.83270   0.29048   0.25119   0.00000  Uiso   1.00
C148   C     0.96632   0.19627   0.27776   0.00000  Uiso   1.00
C149   C     0.68174   0.19612   0.27890   0.00000  Uiso   1.00
C150   C     0.81429   0.17853   0.48691   0.00000  Uiso   1.00
C151   C     0.69993   0.13693   0.22123   0.00000  Uiso   1.00
C152   C     0.98376   0.13658   0.22238   0.00000  Uiso   1.00
C153   C     0.83284   0.08756   0.25190   0.00000  Uiso   1.00
C154   C     0.85996   0.16818   0.14972   0.00000  Uiso   1.00
C155   C     0.93227   0.14839   0.00693   0.00000  Uiso   1.00
C156   C     0.87577   0.16983   0.09167   0.00000  Uiso   1.00
C157   C     0.74697   0.19275   0.43228   0.00000  Uiso   1.00
C158   C     0.73855   0.21043   0.48195   0.00000  Uiso   1.00
C159   C     0.77290   0.20555   0.00765   0.00000  Uiso   1.00
C160   C     0.96661   0.15461   0.07994   0.00000  Uiso   1.00
C161   C     0.82244   0.16050   0.43597   0.00000  Uiso   1.00
C162   C     0.73277   0.10323   0.18665   0.00000  Uiso   1.00
C163   C     0.94717   0.10749   0.40415   0.00000  Uiso   1.00
C164   C     0.84915   0.17026   0.01338   0.00000  Uiso   1.00
C165   C     0.89458   0.15037   0.48466   0.00000  Uiso   1.00
C166   C     0.90108   0.13160   0.43480   0.00000  Uiso   1.00
C167   C     0.86325   0.13404   0.41351   0.00000  Uiso   1.00
C168   C     0.84002   0.17948   0.06752   0.00000  Uiso   1.00
C169   C     0.92391   0.15871   0.05961   0.00000  Uiso   1.00
Cu170  Cu    0.78645   0.16666   0.25000   0.00000  Uiso   1.00
Cu171  Cu    0.88022   0.16667   0.25000   0.00000  Uiso   1.00
H172   H     0.91025   0.03600   0.21499   0.00000  Uiso   1.00
H173   H     0.96857   0.18209   0.10514   0.00000  Uiso   1.00
H174   H     0.96331   0.12587   0.10100   0.00000  Uiso   1.00
H175   H     0.66873   0.15236   0.04783   0.00000  Uiso   1.00
H176   H     0.75138   0.06737   0.32240   0.00000  Uiso   1.00
H177   H     0.72178   0.21781   0.31844   0.00000  Uiso   1.00
H178   H     0.77202   0.10789   0.17616   0.00000  Uiso   1.00
H179   H     0.72428   0.07325   0.20544   0.00000  Uiso   1.00
H180   H     0.72610   0.10065   0.14839   0.00000  Uiso   1.00
H181   H     0.94316   0.11468   0.18400   0.00000  Uiso   1.00
H182   H     0.94491   0.09384   0.36660   0.00000  Uiso   1.00
H183   H     0.75484   0.29650   0.29087   0.00000  Uiso   1.00
H184   H     0.97896   0.12824   0.39476   0.00000  Uiso   1.00
H185   H     0.95354   0.08183   0.42720   0.00000  Uiso   1.00
H186   H     0.79985   0.21801   0.11962   0.00000  Uiso   1.00
H187   H     0.94059   0.21988   0.30037   0.00000  Uiso   1.00
H188   H     0.96836   0.13687   0.48391   0.00000  Uiso   1.00
H189   H     0.72163   0.20003   0.41156   0.00000  Uiso   1.00
H190   H     0.76695   0.22550   0.04194   0.00000  Uiso   1.00
H191   H     0.70670   0.23043   0.49928   0.00000  Uiso   1.00
H192   H     0.86673   0.11581   0.37798   0.00000  Uiso   1.00
H193   H     0.91090   0.29439   0.21339   0.00000  Uiso   1.00
N194   N     0.71598   0.16666   0.24998   0.00000  Uiso   1.00
N195   N     0.95069   0.16669   0.24999   0.00000  Uiso   1.00
O196   O     0.79375   0.22678   0.25000   0.00000  Uiso   1.00
O197   O     0.69279   0.22671   0.30990   0.00000  Uiso   1.00
O198   O     0.97016   0.10466   0.19510   0.00000  Uiso   1.00
O199   O     0.79455   0.19419   0.09780   0.00000  Uiso   1.00
O200   O     0.87294   0.22679   0.25000   0.00000  Uiso   1.00
O201   O     0.77441   0.16665   0.32549   0.00000  Uiso   1.00
O202   O     0.85360   0.16666   0.32549   0.00000  Uiso   1.00
O203   O     0.79373   0.10654   0.24999   0.00000  Uiso   1.00
O204   O     0.87292   0.10655   0.24999   0.00000  Uiso   1.00
O205   O     0.81306   0.16667   0.17451   0.00000  Uiso   1.00
O206   O     0.89225   0.16668   0.17451   0.00000  Uiso   1.00
O207   O     0.74423   0.04187   0.30486   0.00000  Uiso   1.00
C208   C     0.16652   0.57918   0.25013   0.00000  Uiso   1.00
C209   C     0.12383   0.50372   0.40742   0.00000  Uiso   1.00
C210   C     0.20987   0.64454   0.23109   0.00000  Uiso   1.00
C211   C     0.14012   0.49929   0.35000   0.00000  Uiso   1.00
C212   C     0.20950   0.35388   0.23243   0.00000  Uiso   1.00
C213   C     0.16547   0.37628   0.25485   0.00000  Uiso   1.00
C214   C     0.12135   0.35534   0.27769   0.00000  Uiso   1.00
C215   C     0.12195   0.64586   0.27390   0.00000  Uiso   1.00
C216   C     0.16603   0.62382   0.25119   0.00000  Uiso   1.00
C217   C     0.29966   0.52960   0.27776   0.00000  Uiso   1.00
C218   C     0.01507   0.52946   0.27890   0.00000  Uiso   1.00
C219   C     0.14762   0.51186   0.48691   0.00000  Uiso   1.00
C220   C     0.03327   0.47027   0.22123   0.00000  Uiso   1.00
C221   C     0.31710   0.46991   0.22238   0.00000  Uiso   1.00
C222   C     0.16617   0.42089   0.25190   0.00000  Uiso   1.00
C223   C     0.19330   0.50151   0.14972   0.00000  Uiso   1.00
C224   C     0.26561   0.48172   0.00693   0.00000  Uiso   1.00
C225   C     0.20910   0.50316   0.09167   0.00000  Uiso   1.00
C226   C     0.08031   0.52608   0.43228   0.00000  Uiso   1.00
C227   C     0.07188   0.54377   0.48195   0.00000  Uiso   1.00
C228   C     0.10623   0.53889   0.00765   0.00000  Uiso   1.00
C229   C     0.29995   0.48795   0.07994   0.00000  Uiso   1.00
C230   C     0.15578   0.49383   0.43597   0.00000  Uiso   1.00
C231   C     0.06610   0.43656   0.18665   0.00000  Uiso   1.00
C232   C     0.28050   0.44082   0.40415   0.00000  Uiso   1.00
C233   C     0.18248   0.50359   0.01338   0.00000  Uiso   1.00
C234   C     0.22791   0.48370   0.48466   0.00000  Uiso   1.00
C235   C     0.23441   0.46493   0.43480   0.00000  Uiso   1.00
C236   C     0.19658   0.46737   0.41351   0.00000  Uiso   1.00
C237   C     0.17335   0.51281   0.06752   0.00000  Uiso   1.00
C238   C     0.25724   0.49204   0.05961   0.00000  Uiso   1.00
Cu239  Cu    0.11978   0.49999   0.25000   0.00000  Uiso   1.00
Cu240  Cu    0.21355   0.50001   0.25000   0.00000  Uiso   1.00
H241   H     0.24358   0.36933   0.21499   0.00000  Uiso   1.00
H242   H     0.30191   0.51542   0.10514   0.00000  Uiso   1.00
H243   H     0.29664   0.45921   0.10100   0.00000  Uiso   1.00
H244   H     0.00206   0.48569   0.04783   0.00000  Uiso   1.00
H245   H     0.08472   0.40070   0.32240   0.00000  Uiso   1.00
H246   H     0.05511   0.55114   0.31844   0.00000  Uiso   1.00
H247   H     0.10535   0.44122   0.17616   0.00000  Uiso   1.00
H248   H     0.05761   0.40658   0.20544   0.00000  Uiso   1.00
H249   H     0.05943   0.43398   0.14839   0.00000  Uiso   1.00
H250   H     0.27649   0.44801   0.18400   0.00000  Uiso   1.00
H251   H     0.27825   0.42717   0.36660   0.00000  Uiso   1.00
H252   H     0.08817   0.62984   0.29087   0.00000  Uiso   1.00
H253   H     0.31230   0.46157   0.39476   0.00000  Uiso   1.00
H254   H     0.28688   0.41517   0.42720   0.00000  Uiso   1.00
H255   H     0.13318   0.55134   0.11962   0.00000  Uiso   1.00
H256   H     0.27393   0.55321   0.30037   0.00000  Uiso   1.00
H257   H     0.30169   0.47020   0.48391   0.00000  Uiso   1.00
H258   H     0.05496   0.53337   0.41156   0.00000  Uiso   1.00
H259   H     0.10029   0.55884   0.04194   0.00000  Uiso   1.00
H260   H     0.04003   0.56376   0.49928   0.00000  Uiso   1.00
H261   H     0.20006   0.44914   0.37798   0.00000  Uiso   1.00
H262   H     0.24423   0.62772   0.21339   0.00000  Uiso   1.00
N263   N     0.04931   0.49999   0.24998   0.00000  Uiso   1.00
N264   N     0.28402   0.50002   0.24999   0.00000  Uiso   1.00
O265   O     0.12708   0.56011   0.25000   0.00000  Uiso   1.00
O266   O     0.02612   0.56004   0.30990   0.00000  Uiso   1.00
O267   O     0.30350   0.43800   0.19510   0.00000  Uiso   1.00
O268   O     0.12788   0.52752   0.09780   0.00000  Uiso   1.00
O269   O     0.20627   0.56012   0.25000   0.00000  Uiso   1.00
O270   O     0.10775   0.49998   0.32549   0.00000  Uiso   1.00
O271   O     0.18694   0.49999   0.32549   0.00000  Uiso   1.00
O272   O     0.12706   0.43988   0.24999   0.00000  Uiso   1.00
O273   O     0.20625   0.43989   0.24999   0.00000  Uiso   1.00
O274   O     0.14640   0.50001   0.17451   0.00000  Uiso   1.00
O275   O     0.22559   0.50002   0.17451   0.00000  Uiso   1.00
O276   O     0.07757   0.37520   0.30486   0.00000  Uiso   1.00
C277   C     0.49985   0.57918   0.25013   0.00000  Uiso   1.00
C278   C     0.45716   0.50372   0.40742   0.00000  Uiso   1.00
C279   C     0.54320   0.64454   0.23109   0.00000  Uiso   1.00
C280   C     0.47346   0.49929   0.35000   0.00000  Uiso   1.00
C281   C     0.54284   0.35388   0.23243   0.00000  Uiso   1.00
C282   C     0.49880   0.37628   0.25485   0.00000  Uiso   1.00
C283   C     0.45469   0.35534   0.27769   0.00000  Uiso   1.00
C284   C     0.45528   0.64586   0.27390   0.00000  Uiso   1.00
C285   C     0.49937   0.62382   0.25119   0.00000  Uiso   1.00
C286   C     0.63299   0.52960   0.27776   0.00000  Uiso   1.00
C287   C     0.34840   0.52946   0.27890   0.00000  Uiso   1.00
C288   C     0.48095   0.51186   0.48691   0.00000  Uiso   1.00
C289   C     0.36660   0.47027   0.22123   0.00000  Uiso   1.00
C290   C     0.65043   0.46991   0.22238   0.00000  Uiso   1.00
C291   C     0.49951   0.42089   0.25190   0.00000  Uiso   1.00
C292   C     0.52663   0.50151   0.14972   0.00000  Uiso   1.00
C293   C     0.59894   0.48172   0.00693   0.00000  Uiso   1.00
C294   C     0.54243   0.50316   0.09167   0.00000  Uiso   1.00
C295   C     0.41364   0.52608   0.43228   0.00000  Uiso   1.00
C296   C     0.40521   0.54377   0.48195   0.00000  Uiso   1.00
C297   C     0.43957   0.53889   0.00765   0.00000  Uiso   1.00
C298   C     0.63328   0.48795   0.07994   0.00000  Uiso   1.00
C299   C     0.48911   0.49383   0.43597   0.00000  Uiso   1.00
C300   C     0.39943   0.43656   0.18665   0.00000  Uiso   1.00
C301   C     0.61384   0.44082   0.40415   0.00000  Uiso   1.00
C302   C     0.51581   0.50359   0.01338   0.00000  Uiso   1.00
C303   C     0.56125   0.48370   0.48466   0.00000  Uiso   1.00
C304   C     0.56774   0.46493   0.43480   0.00000  Uiso   1.00
C305   C     0.52991   0.46737   0.41351   0.00000  Uiso   1.00
C306   C     0.50668   0.51281   0.06752   0.00000  Uiso   1.00
C307   C     0.59057   0.49204   0.05961   0.00000  Uiso   1.00
Cu308  Cu    0.45311   0.49999   0.25000   0.00000  Uiso   1.00
Cu309  Cu    0.54689   0.50001   0.25000   0.00000  Uiso   1.00
H310   H     0.57692   0.36933   0.21499   0.00000  Uiso   1.00
H311   H     0.63524   0.51542   0.10514   0.00000  Uiso   1.00
H312   H     0.62997   0.45921   0.10100   0.00000  Uiso   1.00
H313   H     0.33540   0.48569   0.04783   0.00000  Uiso   1.00
H314   H     0.41805   0.40070   0.32240   0.00000  Uiso   1.00
H315   H     0.38844   0.55114   0.31844   0.00000  Uiso   1.00
H316   H     0.43869   0.44122   0.17616   0.00000  Uiso   1.00
H317   H     0.39094   0.40658   0.20544   0.00000  Uiso   1.00
H318   H     0.39277   0.43398   0.14839   0.00000  Uiso   1.00
H319   H     0.60983   0.44801   0.18400   0.00000  Uiso   1.00
H320   H     0.61158   0.42717   0.36660   0.00000  Uiso   1.00
H321   H     0.42150   0.62984   0.29087   0.00000  Uiso   1.00
H322   H     0.64563   0.46157   0.39476   0.00000  Uiso   1.00
H323   H     0.62021   0.41517   0.42720   0.00000  Uiso   1.00
H324   H     0.46652   0.55134   0.11962   0.00000  Uiso   1.00
H325   H     0.60726   0.55321   0.30037   0.00000  Uiso   1.00
H326   H     0.63503   0.47020   0.48391   0.00000  Uiso   1.00
H327   H     0.38830   0.53337   0.41156   0.00000  Uiso   1.00
H328   H     0.43362   0.55884   0.04194   0.00000  Uiso   1.00
H329   H     0.37336   0.56376   0.49928   0.00000  Uiso   1.00
H330   H     0.53339   0.44914   0.37798   0.00000  Uiso   1.00
H331   H     0.57756   0.62772   0.21339   0.00000  Uiso   1.00
N332   N     0.38265   0.49999   0.24998   0.00000  Uiso   1.00
N333   N     0.61735   0.50002   0.24999   0.00000  Uiso   1.00
O334   O     0.46042   0.56011   0.25000   0.00000  Uiso   1.00
O335   O     0.35946   0.56004   0.30990   0.00000  Uiso   1.00
O336   O     0.63683   0.43800   0.19510   0.00000  Uiso   1.00
O337   O     0.46121   0.52752   0.09780   0.00000  Uiso   1.00
O338   O     0.53961   0.56012   0.25000   0.00000  Uiso   1.00
O339   O     0.44108   0.49998   0.32549   0.00000  Uiso   1.00
O340   O     0.52027   0.49999   0.32549   0.00000  Uiso   1.00
O341   O     0.46039   0.43988   0.24999   0.00000  Uiso   1.00
O342   O     0.53958   0.43989   0.24999   0.00000  Uiso   1.00
O343   O     0.47973   0.50001   0.17451   0.00000  Uiso   1.00
O344   O     0.55892   0.50002   0.17451   0.00000  Uiso   1.00
O345   O     0.41090   0.37520   0.30486   0.00000  Uiso   1.00
C346   C     0.83318   0.57918   0.25013   0.00000  Uiso   1.00
C347   C     0.79049   0.50372   0.40742   0.00000  Uiso   1.00
C348   C     0.87653   0.64454   0.23109   0.00000  Uiso   1.00
C349   C     0.80679   0.49929   0.35000   0.00000  Uiso   1.00
C350   C     0.87617   0.35388   0.23243   0.00000  Uiso   1.00
C351   C     0.83213   0.37628   0.25485   0.00000  Uiso   1.00
C352   C     0.78802   0.35534   0.27769   0.00000  Uiso   1.00
C353   C     0.78862   0.64586   0.27390   0.00000  Uiso   1.00
C354   C     0.83270   0.62382   0.25119   0.00000  Uiso   1.00
C355   C     0.96632   0.52960   0.27776   0.00000  Uiso   1.00
C356   C     0.68174   0.52946   0.27890   0.00000  Uiso   1.00
C357   C     0.81429   0.51186   0.48691   0.00000  Uiso   1.00
C358   C     0.69993   0.47027   0.22123   0.00000  Uiso   1.00
C359   C     0.98376   0.46991   0.22238   0.00000  Uiso   1.00
C360   C     0.83284   0.42089   0.25190   0.00000  Uiso   1.00
C361   C     0.85996   0.50151   0.14972   0.00000  Uiso   1.00
C362   C     0.93227   0.48172   0.00693   0.00000  Uiso   1.00
C363   C     0.87577   0.50316   0.09167   0.00000  Uiso   1.00
C364   C     0.74697   0.52608   0.43228   0.00000  Uiso   1.00
C365   C     0.73855   0.54377   0.48195   0.00000  Uiso   1.00
C366   C     0.77290   0.53889   0.00765   0.00000  Uiso   1.00
C367   C     0.96661   0.48795   0.07994   0.00000  Uiso   1.00
C368   C     0.82244   0.49383   0.43597   0.00000  Uiso   1.00
C369   C     0.73277   0.43656   0.18665   0.00000  Uiso   1.00
C370   C     0.94717   0.44082   0.40415   0.00000  Uiso   1.00
C371   C     0.84915   0.50359   0.01338   0.00000  Uiso   1.00
C372   C     0.89458   0.48370   0.48466   0.00000  Uiso   1.00
C373   C     0.90108   0.46493   0.43480   0.00000  Uiso   1.00
C374   C     0.86325   0.46737   0.41351   0.00000  Uiso   1.00
C375   C     0.84002   0.51281   0.06752   0.00000  Uiso   1.00
C376   C     0.92391   0.49204   0.05961   0.00000  Uiso   1.00
Cu377  Cu    0.78645   0.49999   0.25000   0.00000  Uiso   1.00
Cu378  Cu    0.88022   0.50001   0.25000   0.00000  Uiso   1.00
H379   H     0.91025   0.36933   0.21499   0.00000  Uiso   1.00
H380   H     0.96857   0.51542   0.10514   0.00000  Uiso   1.00
H381   H     0.96331   0.45921   0.10100   0.00000  Uiso   1.00
H382   H     0.66873   0.48569   0.04783   0.00000  Uiso   1.00
H383   H     0.75138   0.40070   0.32240   0.00000  Uiso   1.00
H384   H     0.72178   0.55114   0.31844   0.00000  Uiso   1.00
H385   H     0.77202   0.44122   0.17616   0.00000  Uiso   1.00
H386   H     0.72428   0.40658   0.20544   0.00000  Uiso   1.00
H387   H     0.72610   0.43398   0.14839   0.00000  Uiso   1.00
H388   H     0.94316   0.44801   0.18400   0.00000  Uiso   1.00
H389   H     0.94491   0.42717   0.36660   0.00000  Uiso   1.00
H390   H     0.75484   0.62984   0.29087   0.00000  Uiso   1.00
H391   H     0.97896   0.46157   0.39476   0.00000  Uiso   1.00
H392   H     0.95354   0.41517   0.42720   0.00000  Uiso   1.00
H393   H     0.79985   0.55134   0.11962   0.00000  Uiso   1.00
H394   H     0.94059   0.55321   0.30037   0.00000  Uiso   1.00
H395   H     0.96836   0.47020   0.48391   0.00000  Uiso   1.00
H396   H     0.72163   0.53337   0.41156   0.00000  Uiso   1.00
H397   H     0.76695   0.55884   0.04194   0.00000  Uiso   1.00
H398   H     0.70670   0.56376   0.49928   0.00000  Uiso   1.00
H399   H     0.86673   0.44914   0.37798   0.00000  Uiso   1.00
H400   H     0.91090   0.62772   0.21339   0.00000  Uiso   1.00
N401   N     0.71598   0.49999   0.24998   0.00000  Uiso   1.00
N402   N     0.95069   0.50002   0.24999   0.00000  Uiso   1.00
O403   O     0.79375   0.56011   0.25000   0.00000  Uiso   1.00
O404   O     0.69279   0.56004   0.30990   0.00000  Uiso   1.00
O405   O     0.97016   0.43800   0.19510   0.00000  Uiso   1.00
O406   O     0.79455   0.52752   0.09780   0.00000  Uiso   1.00
O407   O     0.87294   0.56012   0.25000   0.00000  Uiso   1.00
O408   O     0.77441   0.49998   0.32549   0.00000  Uiso   1.00
O409   O     0.85360   0.49999   0.32549   0.00000  Uiso   1.00
O410   O     0.79373   0.43988   0.24999   0.00000  Uiso   1.00
O411   O     0.87292   0.43989   0.24999   0.00000  Uiso   1.00
O412   O     0.81306   0.50001   0.17451   0.00000  Uiso   1.00
O413   O     0.89225   0.50002   0.17451   0.00000  Uiso   1.00
O414   O     0.74423   0.37520   0.30486   0.00000  Uiso   1.00
C415   C     0.16652   0.91252   0.25013   0.00000  Uiso   1.00
C416   C     0.12383   0.83705   0.40742   0.00000  Uiso   1.00
C417   C     0.20987   0.97787   0.23109   0.00000  Uiso   1.00
C418   C     0.14012   0.83262   0.35000   0.00000  Uiso   1.00
C419   C     0.20950   0.68722   0.23243   0.00000  Uiso   1.00
C420   C     0.16547   0.70962   0.25485   0.00000  Uiso   1.00
C421   C     0.12135   0.68868   0.27769   0.00000  Uiso   1.00
C422   C     0.12195   0.97920   0.27390   0.00000  Uiso   1.00
C423   C     0.16603   0.95715   0.25119   0.00000  Uiso   1.00
C424   C     0.29966   0.86294   0.27776   0.00000  Uiso   1.00
C425   C     0.01507   0.86279   0.27890   0.00000  Uiso   1.00
C426   C     0.14762   0.84519   0.48691   0.00000  Uiso   1.00
C427   C     0.03327   0.80360   0.22123   0.00000  Uiso   1.00
C428   C     0.31710   0.80325   0.22238   0.00000  Uiso   1.00
C429   C     0.16617   0.75422   0.25190   0.00000  Uiso   1.00
C430   C     0.19330   0.83484   0.14972   0.00000  Uiso   1.00
C431   C     0.26561   0.81506   0.00693   0.00000  Uiso   1.00
C432   C     0.20910   0.83649   0.09167   0.00000  Uiso   1.00
C433   C     0.08031   0.85942   0.43228   0.00000  Uiso   1.00
C434   C     0.07188   0.87710   0.48195   0.00000  Uiso   1.00
C435   C     0.10623   0.87222   0.00765   0.00000  Uiso   1.00
C436   C     0.29995   0.82128   0.07994   0.00000  Uiso   1.00
C437   C     0.15578   0.82717   0.43597   0.00000  Uiso   1.00
C438   C     0.06610   0.76989   0.18665   0.00000  Uiso   1.00
C439   C     0.28050   0.77415   0.40415   0.00000  Uiso   1.00
C440   C     0.18248   0.83693   0.01338   0.00000  Uiso   1.00
C441   C     0.22791   0.81704   0.48466   0.00000  Uiso   1.00
C442   C     0.23441   0.79827   0.43480   0.00000  Uiso   1.00
C443   C     0.19658   0.80070   0.41351   0.00000  Uiso   1.00
C444   C     0.17335   0.84614   0.06752   0.00000  Uiso   1.00
C445   C     0.25724   0.82538   0.05961   0.00000  Uiso   1.00
Cu446  Cu    0.11978   0.83333   0.25000   0.00000  Uiso   1.00
Cu447  Cu    0.21355   0.83334   0.25000   0.00000  Uiso   1.00
H448   H     0.24358   0.70266   0.21499   0.00000  Uiso   1.00
H449   H     0.30191   0.84875   0.10514   0.00000  Uiso   1.00
H450   H     0.29664   0.79254   0.10100   0.00000  Uiso   1.00
H451   H     0.00206   0.81903   0.04783   0.00000  Uiso   1.00
H452   H     0.08472   0.73404   0.32240   0.00000  Uiso   1.00
H453   H     0.05511   0.88448   0.31844   0.00000  Uiso   1.00
H454   H     0.10535   0.77455   0.17616   0.00000  Uiso   1.00
H455   H     0.05761   0.73992   0.20544   0.00000  Uiso   1.00
H456   H     0.05943   0.76732   0.14839   0.00000  Uiso   1.00
H457   H     0.27649   0.78134   0.18400   0.00000  Uiso   1.00
H458   H     0.27825   0.76050   0.36660   0.00000  Uiso   1.00
H459   H     0.08817   0.96317   0.29087   0.00000  Uiso   1.00
H460   H     0.31230   0.79490   0.39476   0.00000  Uiso   1.00
H461   H     0.28688   0.74850   0.42720   0.00000  Uiso   1.00
H462   H     0.13318   0.88467   0.11962   0.00000  Uiso   1.00
H463   H     0.27393   0.88655   0.30037   0.00000  Uiso   1.00
H464   H     0.30169   0.80354   0.48391   0.00000  Uiso   1.00
H465   H     0.05496   0.86670   0.41156   0.00000  Uiso   1.00
H466   H     0.10029   0.89217   0.04194   0.00000  Uiso   1.00
H467   H     0.04003   0.89709   0.49928   0.00000  Uiso   1.00
H468   H     0.20006   0.78248   0.37798   0.00000  Uiso   1.00
H469   H     0.24423   0.96106   0.21339   0.00000  Uiso   1.00
N470   N     0.04931   0.83332   0.24998   0.00000  Uiso   1.00
N471   N     0.28402   0.83335   0.24999   0.00000  Uiso   1.00
O472   O     0.12708   0.89345   0.25000   0.00000  Uiso   1.00
O473   O     0.02612   0.89337   0.30990   0.00000  Uiso   1.00
O474   O     0.30350   0.77133   0.19510   0.00000  Uiso   1.00
O475   O     0.12788   0.86085   0.09780   0.00000  Uiso   1.00
O476   O     0.20627   0.89346   0.25000   0.00000  Uiso   1.00
O477   O     0.10775   0.83332   0.32549   0.00000  Uiso   1.00
O478   O     0.18694   0.83333   0.32549   0.00000  Uiso   1.00
O479   O     0.12706   0.77321   0.24999   0.00000  Uiso   1.00
O480   O     0.20625   0.77322   0.24999   0.00000  Uiso   1.00
O481   O     0.14640   0.83334   0.17451   0.00000  Uiso   1.00
O482   O     0.22559   0.83335   0.17451   0.00000  Uiso   1.00
O483   O     0.07757   0.70853   0.30486   0.00000  Uiso   1.00
C484   C     0.49985   0.91252   0.25013   0.00000  Uiso   1.00
C485   C     0.45716   0.83705   0.40742   0.00000  Uiso   1.00
C486   C     0.54320   0.97787   0.23109   0.00000  Uiso   1.00
C487   C     0.47346   0.83262   0.35000   0.00000  Uiso   1.00
C488   C     0.54284   0.68722   0.23243   0.00000  Uiso   1.00
C489   C     0.49880   0.70962   0.25485   0.00000  Uiso   1.00
C490   C     0.45469   0.68868   0.27769   0.00000  Uiso   1.00
C491   C     0.45528   0.97920   0.27390   0.00000  Uiso   1.00
C492   C     0.49937   0.95715   0.25119   0.00000  Uiso   1.00
C493   C     0.63299   0.86294   0.27776   0.00000  Uiso   1.00
C494   C     0.34840   0.86279   0.27890   0.00000  Uiso   1.00
C495   C     0.48095   0.84519   0.48691   0.00000  Uiso   1.00
C496   C     0.36660   0.80360   0.22123   0.00000  Uiso   1.00
C497   C     0.65043   0.80325   0.22238   0.00000  Uiso   1.00
C498   C     0.49951   0.75422   0.25190   0.00000  Uiso   1.00
C499   C     0.52663   0.83484   0.14972   0.00000  Uiso   1.00
C500   C     0.59894   0.81506   0.00693   0.00000  Uiso   1.00
C501   C     0.54243   0.83649   0.09167   0.00000  Uiso   1.00
C502   C     0.41364   0.85942   0.43228   0.00000  Uiso   1.00
C503   C     0.40521   0.87710   0.48195   0.00000  Uiso   1.00
C504   C     0.43957   0.87222   0.00765   0.00000  Uiso   1.00
C505   C     0.63328   0.82128   0.07994   0.00000  Uiso   1.00
C506   C     0.48911   0.82717   0.43597   0.00000  Uiso   1.00
C507   C     0.39943   0.76989   0.18665   0.00000  Uiso   1.00
C508   C     0.61384   0.77415   0.40415   0.00000  Uiso   1.00
C509   C     0.51581   0.83693   0.01338   0.00000  Uiso   1.00
C510   C     0.56125   0.81704   0.48466   0.00000  Uiso   1.00
C511   C     0.56774   0.79827   0.43480   0.00000  Uiso   1.00
C512   C     0.52991   0.80070   0.41351   0.00000  Uiso   1.00
C513   C     0.50668   0.84614   0.06752   0.00000  Uiso   1.00
C514   C     0.59057   0.82538   0.05961   0.00000  Uiso   1.00
Cu515  Cu    0.45311   0.83333   0.25000   0.00000  Uiso   1.00
Cu516  Cu    0.54689   0.83334   0.25000   0.00000  Uiso   1.00
H517   H     0.57692   0.70266   0.21499   0.00000  Uiso   1.00
H518   H     0.63524   0.84875   0.10514   0.00000  Uiso   1.00
H519   H     0.62997   0.79254   0.10100   0.00000  Uiso   1.00
H520   H     0.33540   0.81903   0.04783   0.00000  Uiso   1.00
H521   H     0.41805   0.73404   0.32240   0.00000  Uiso   1.00
H522   H     0.38844   0.88448   0.31844   0.00000  Uiso   1.00
H523   H     0.43869   0.77455   0.17616   0.00000  Uiso   1.00
H524   H     0.39094   0.73992   0.20544   0.00000  Uiso   1.00
H525   H     0.39277   0.76732   0.14839   0.00000  Uiso   1.00
H526   H     0.60983   0.78134   0.18400   0.00000  Uiso   1.00
H527   H     0.61158   0.76050   0.36660   0.00000  Uiso   1.00
H528   H     0.42150   0.96317   0.29087   0.00000  Uiso   1.00
H529   H     0.64563   0.79490   0.39476   0.00000  Uiso   1.00
H530   H     0.62021   0.74850   0.42720   0.00000  Uiso   1.00
H531   H     0.46652   0.88467   0.11962   0.00000  Uiso   1.00
H532   H     0.60726   0.88655   0.30037   0.00000  Uiso   1.00
H533   H     0.63503   0.80354   0.48391   0.00000  Uiso   1.00
H534   H     0.38830   0.86670   0.41156   0.00000  Uiso   1.00
H535   H     0.43362   0.89217   0.04194   0.00000  Uiso   1.00
H536   H     0.37336   0.89709   0.49928   0.00000  Uiso   1.00
H537   H     0.53339   0.78248   0.37798   0.00000  Uiso   1.00
H538   H     0.57756   0.96106   0.21339   0.00000  Uiso   1.00
N539   N     0.38265   0.83332   0.24998   0.00000  Uiso   1.00
N540   N     0.61735   0.83335   0.24999   0.00000  Uiso   1.00
O541   O     0.46042   0.89345   0.25000   0.00000  Uiso   1.00
O542   O     0.35946   0.89337   0.30990   0.00000  Uiso   1.00
O543   O     0.63683   0.77133   0.19510   0.00000  Uiso   1.00
O544   O     0.46121   0.86085   0.09780   0.00000  Uiso   1.00
O545   O     0.53961   0.89346   0.25000   0.00000  Uiso   1.00
O546   O     0.44108   0.83332   0.32549   0.00000  Uiso   1.00
O547   O     0.52027   0.83333   0.32549   0.00000  Uiso   1.00
O548   O     0.46039   0.77321   0.24999   0.00000  Uiso   1.00
O549   O     0.53958   0.77322   0.24999   0.00000  Uiso   1.00
O550   O     0.47973   0.83334   0.17451   0.00000  Uiso   1.00
O551   O     0.55892   0.83335   0.17451   0.00000  Uiso   1.00
O552   O     0.41090   0.70853   0.30486   0.00000  Uiso   1.00
C553   C     0.83318   0.91252   0.25013   0.00000  Uiso   1.00
C554   C     0.79049   0.83705   0.40742   0.00000  Uiso   1.00
C555   C     0.87653   0.97787   0.23109   0.00000  Uiso   1.00
C556   C     0.80679   0.83262   0.35000   0.00000  Uiso   1.00
C557   C     0.87617   0.68722   0.23243   0.00000  Uiso   1.00
C558   C     0.83213   0.70962   0.25485   0.00000  Uiso   1.00
C559   C     0.78802   0.68868   0.27769   0.00000  Uiso   1.00
C560   C     0.78862   0.97920   0.27390   0.00000  Uiso   1.00
C561   C     0.83270   0.95715   0.25119   0.00000  Uiso   1.00
C562   C     0.96632   0.86294   0.27776   0.00000  Uiso   1.00
C563   C     0.68174   0.86279   0.27890   0.00000  Uiso   1.00
C564   C     0.81429   0.84519   0.48691   0.00000  Uiso   1.00
C565   C     0.69993   0.80360   0.22123   0.00000  Uiso   1.00
C566   C     0.98376   0.80325   0.22238   0.00000  Uiso   1.00
C567   C     0.83284   0.75422   0.25190   0.00000  Uiso   1.00
C568   C     0.85996   0.83484   0.14972   0.00000  Uiso   1.00
C569   C     0.93227   0.81506   0.00693   0.00000  Uiso   1.00
C570   C     0.87577   0.83649   0.09167   0.00000  Uiso   1.00
C571   C     0.74697   0.85942   0.43228   0.00000  Uiso   1.00
C572   C     0.73855   0.87710   0.48195   0.00000  Uiso   1.00
C573   C     0.77290   0.87222   0.00765   0.00000  Uiso   1.00
C574   C     0.96661   0.82128   0.07994   0.00000  Uiso   1.00
C575   C     0.82244   0.82717   0.43597   0.00000  Uiso   1.00
C576   C     0.73277   0.76989   0.18665   0.00000  Uiso   1.00
C577   C     0.94717   0.77415   0.40415   0.00000  Uiso   1.00
C578   C     0.84915   0.83693   0.01338   0.00000  Uiso   1.00
C579   C     0.89458   0.81704   0.48466   0.00000  Uiso   1.00
C580   C     0.90108   0.79827   0.43480   0.00000  Uiso   1.00
C581   C     0.86325   0.80070   0.41351   0.00000  Uiso   1.00
C582   C     0.84002   0.84614   0.06752   0.00000  Uiso   1.00
C583   C     0.92391   0.82538   0.05961   0.00000  Uiso   1.00
Cu584  Cu    0.78645   0.83333   0.25000   0.00000  Uiso   1.00
Cu585  Cu    0.88022   0.83334   0.25000   0.00000  Uiso   1.00
H586   H     0.91025   0.70266   0.21499   0.00000  Uiso   1.00
H587   H     0.96857   0.84875   0.10514   0.00000  Uiso   1.00
H588   H     0.96331   0.79254   0.10100   0.00000  Uiso   1.00
H589   H     0.66873   0.81903   0.04783   0.00000  Uiso   1.00
H590   H     0.75138   0.73404   0.32240   0.00000  Uiso   1.00
H591   H     0.72178   0.88448   0.31844   0.00000  Uiso   1.00
H592   H     0.77202   0.77455   0.17616   0.00000  Uiso   1.00
H593   H     0.72428   0.73992   0.20544   0.00000  Uiso   1.00
H594   H     0.72610   0.76732   0.14839   0.00000  Uiso   1.00
H595   H     0.94316   0.78134   0.18400   0.00000  Uiso   1.00
H596   H     0.94491   0.76050   0.36660   0.00000  Uiso   1.00
H597   H     0.75484   0.96317   0.29087   0.00000  Uiso   1.00
H598   H     0.97896   0.79490   0.39476   0.00000  Uiso   1.00
H599   H     0.95354   0.74850   0.42720   0.00000  Uiso   1.00
H600   H     0.79985   0.88467   0.11962   0.00000  Uiso   1.00
H601   H     0.94059   0.88655   0.30037   0.00000  Uiso   1.00
H602   H     0.96836   0.80354   0.48391   0.00000  Uiso   1.00
H603   H     0.72163   0.86670   0.41156   0.00000  Uiso   1.00
H604   H     0.76695   0.89217   0.04194   0.00000  Uiso   1.00
H605   H     0.70670   0.89709   0.49928   0.00000  Uiso   1.00
H606   H     0.86673   0.78248   0.37798   0.00000  Uiso   1.00
H607   H     0.91090   0.96106   0.21339   0.00000  Uiso   1.00
N608   N     0.71598   0.83332   0.24998   0.00000  Uiso   1.00
N609   N     0.95069   0.83335   0.24999   0.00000  Uiso   1.00
O610   O     0.79375   0.89345   0.25000   0.00000  Uiso   1.00
O611   O     0.69279   0.89337   0.30990   0.00000  Uiso   1.00
O612   O     0.97016   0.77133   0.19510   0.00000  Uiso   1.00
O613   O     0.79455   0.86085   0.09780   0.00000  Uiso   1.00
O614   O     0.87294   0.89346   0.25000   0.00000  Uiso   1.00
O615   O     0.77441   0.83332   0.32549   0.00000  Uiso   1.00
O616   O     0.85360   0.83333   0.32549   0.00000  Uiso   1.00
O617   O     0.79373   0.77321   0.24999   0.00000  Uiso   1.00
O618   O     0.87292   0.77322   0.24999   0.00000  Uiso   1.00
O619   O     0.81306   0.83334   0.17451   0.00000  Uiso   1.00
O620   O     0.89225   0.83335   0.17451   0.00000  Uiso   1.00
O621   O     0.74423   0.70853   0.30486   0.00000  Uiso   1.00
C622   C     0.16652   0.24585   0.75013   0.00000  Uiso   1.00
C623   C     0.12383   0.17038   0.90742   0.00000  Uiso   1.00
C624   C     0.20987   0.31120   0.73109   0.00000  Uiso   1.00
C625   C     0.14012   0.16596   0.85000   0.00000  Uiso   1.00
C626   C     0.20950   0.02055   0.73243   0.00000  Uiso   1.00
C627   C     0.16547   0.04295   0.75485   0.00000  Uiso   1.00
C628   C     0.12135   0.02201   0.77769   0.00000  Uiso   1.00
C629   C     0.12195   0.31253   0.77390   0.00000  Uiso   1.00
C630   C     0.16603   0.29048   0.75119   0.00000  Uiso   1.00
C631   C     0.29966   0.19627   0.77776   0.00000  Uiso   1.00
C632   C     0.01507   0.19612   0.77890   0.00000  Uiso   1.00
C633   C     0.14762   0.17853   0.98691   0.00000  Uiso   1.00
C634   C     0.03327   0.13693   0.72123   0.00000  Uiso   1.00
C635   C     0.31710   0.13658   0.72238   0.00000  Uiso   1.00
C636   C     0.16617   0.08756   0.75190   0.00000  Uiso   1.00
C637   C     0.19330   0.16818   0.64972   0.00000  Uiso   1.00
C638   C     0.26561   0.14839   0.50693   0.00000  Uiso   1.00
C639   C     0.20910   0.16983   0.59167   0.00000  Uiso   1.00
C640   C     0.08031   0.19275   0.93228   0.00000  Uiso   1.00
C641   C     0.07188   0.21043   0.98195   0.00000  Uiso   1.00
C642   C     0.10623   0.20555   0.50765   0.00000  Uiso   1.00
C643   C     0.29995   0.15461   0.57994   0.00000  Uiso   1.00
C644   C     0.15578   0.16050   0.93597   0.00000  Uiso   1.00
C645   C     0.06610   0.10323   0.68665   0.00000  Uiso   1.00
C646   C     0.28050   0.10749   0.90415   0.00000  Uiso   1.00
C647   C     0.18248   0.17026   0.51338   0.00000  Uiso   1.00
C648   C     0.22791   0.15037   0.98466   0.00000  Uiso   1.00
C649   C     0.23441   0.13160   0.93480   0.00000  Uiso   1.00
C650   C     0.19658   0.13404   0.91351   0.00000  Uiso   1.00
C651   C     0.17335   0.17948   0.56752   0.00000  Uiso   1.00
C652   C     0.25724   0.15871   0.55961   0.00000  Uiso   1.00
Cu653  Cu    0.11978   0.16666   0.75000   0.00000  Uiso   1.00
Cu654  Cu    0.21355   0.16667   0.75000   0.00000  Uiso   1.00
H655   H     0.24358   0.03600   0.71499   0.00000  Uiso   1.00
H656   H     0.30191   0.18209   0.60514   0.00000  Uiso   1.00
H657   H     0.29664   0.12587   0.60100   0.00000  Uiso   1.00
H658   H     0.00206   0.15236   0.54783   0.00000  Uiso   1.00
H659   H     0.08472   0.06737   0.82240   0.00000  Uiso   1.00
H660   H     0.05511   0.21781   0.81844   0.00000  Uiso   1.00
H661   H     0.10535   0.10789   0.67616   0.00000  Uiso   1.00
H662   H     0.05761   0.07325   0.70544   0.00000  Uiso   1.00
H663   H     0.05943   0.10065   0.64839   0.00000  Uiso   1.00
H664   H     0.27649   0.11468   0.68400   0.00000  Uiso   1.00
H665   H     0.27825   0.09384   0.86660   0.00000  Uiso   1.00
H666   H     0.08817   0.29650   0.79087   0.00000  Uiso   1.00
H667   H     0.31230   0.12824   0.89476   0.00000  Uiso   1.00
H668   H     0.28688   0.08183   0.92720   0.00000  Uiso   1.00
H669   H     0.13318   0.21801   0.61962   0.00000  Uiso   1.00
H670   H     0.27393   0.21988   0.80037   0.00000  Uiso   1.00
H671   H     0.30169   0.13687   0.98391   0.00000  Uiso   1.00
H672   H     0.05496   0.20003   0.91156   0.00000  Uiso   1.00
H673   H     0.10029   0.22550   0.54194   0.00000  Uiso   1.00
H674   H     0.04003   0.23043   0.99928   0.00000  Uiso   1.00
H675   H     0.20006   0.11581   0.87798   0.00000  Uiso   1.00
H676   H     0.24423   0.29439   0.71339   0.00000  Uiso   1.00
N677   N     0.04931   0.16666   0.74998   0.00000  Uiso   1.00
N678   N     0.28402   0.16669   0.74999   0.00000  Uiso   1.00
O679   O     0.12708   0.22678   0.75000   0.00000  Uiso   1.00
O680   O     0.02612   0.22671   0.80990   0.00000  Uiso   1.00
O681   O     0.30350   0.10466   0.69510   0.00000  Uiso   1.00
O682   O     0.12788   0.19419   0.59780   0.00000  Uiso   1.00
O683   O     0.20627   0.22679   0.75000   0.00000  Uiso   1.00
O684   O     0.10775   0.16665   0.82549   0.00000  Uiso   1.00
O685   O     0.18694   0.16666   0.82549   0.00000  Uiso   1.00
O686   O     0.12706   0.10654   0.74999   0.00000  Uiso   1.00
O687   O     0.20625   0.10655   0.74999   0.00000  Uiso   1.00
O688   O     0.14640   0.16667   0.67451   0.00000  Uiso   1.00
O689   O     0.22559   0.16668   0.67451   0.00000  Uiso   1.00
O690   O     0.07757   0.04187   0.80486   0.00000  Uiso   1.00
C691   C     0.49985   0.24585   0.75013   0.00000  Uiso   1.00
C692   C     0.45716   0.17038   0.90742   0.00000  Uiso   1.00
C693   C     0.54320   0.31120   0.73109   0.00000  Uiso   1.00
C694   C     0.47346   0.16596   0.85000   0.00000  Uiso   1.00
C695   C     0.54284   0.02055   0.73243   0.00000  Uiso   1.00
C696   C     0.49880   0.04295   0.75485   0.00000  Uiso   1.00
C697   C     0.45469   0.02201   0.77769   0.00000  Uiso   1.00
C698   C     0.45528   0.31253   0.77390   0.00000  Uiso   1.00
C699   C     0.49937   0.29048   0.75119   0.00000  Uiso   1.00
C700   C     0.63299   0.19627   0.77776   0.00000  Uiso   1.00
C701   C     0.34840   0.19612   0.77890   0.00000  Uiso   1.00
C702   C     0.48095   0.17853   0.98691   0.00000  Uiso   1.00
C703   C     0.36660   0.13693   0.72123   0.00000  Uiso   1.00
C704   C     0.65043   0.13658   0.72238   0.00000  Uiso   1.00
C705   C     0.49951   0.08756   0.75190   0.00000  Uiso   1.00
C706   C     0.52663   0.16818   0.64972   0.00000  Uiso   1.00
C707   C     0.59894   0.14839   0.50693   0.00000  Uiso   1.00
C708   C     0.54243   0.16983   0.59167   0.00000  Uiso   1.00
C709   C     0.41364   0.19275   0.93228   0.00000  Uiso   1.00
C710   C     0.40521   0.21043   0.98195   0.00000  Uiso   1.00
C711   C     0.43957   0.20555   0.50765   0.00000  Uiso   1.00
C712   C     0.63328   0.15461   0.57994   0.00000  Uiso   1.00
C713   C     0.48911   0.16050   0.93597   0.00000  Uiso   1.00
C714   C     0.39943   0.10323   0.68665   0.00000  Uiso   1.00
C715   C     0.61384   0.10749   0.90415   0.00000  Uiso   1.00
C716   C     0.51581   0.17026   0.51338   0.00000  Uiso   1.00
C717   C     0.56125   0.15037   0.98466   0.00000  Uiso   1.00
C718   C     0.56774   0.13160   0.93480   0.00000  Uiso   1.00
C719   C     0.52991   0.13404   0.91351   0.00000  Uiso   1.00
C720   C     0.50668   0.17948   0.56752   0.00000  Uiso   1.00
C721   C     0.59057   0.15871   0.55961   0.00000  Uiso   1.00
Cu722  Cu    0.45311   0.16666   0.75000   0.00000  Uiso   1.00
Cu723  Cu    0.54689   0.16667   0.75000   0.00000  Uiso   1.00
H724   H     0.57692   0.03600   0.71499   0.00000  Uiso   1.00
H725   H     0.63524   0.18209   0.60514   0.00000  Uiso   1.00
H726   H     0.62997   0.12587   0.60100   0.00000  Uiso   1.00
H727   H     0.33540   0.15236   0.54783   0.00000  Uiso   1.00
H728   H     0.41805   0.06737   0.82240   0.00000  Uiso   1.00
H729   H     0.38844   0.21781   0.81844   0.00000  Uiso   1.00
H730   H     0.43869   0.10789   0.67616   0.00000  Uiso   1.00
H731   H     0.39094   0.07325   0.70544   0.00000  Uiso   1.00
H732   H     0.39277   0.10065   0.64839   0.00000  Uiso   1.00
H733   H     0.60983   0.11468   0.68400   0.00000  Uiso   1.00
H734   H     0.61158   0.09384   0.86660   0.00000  Uiso   1.00
H735   H     0.42150   0.29650   0.79087   0.00000  Uiso   1.00
H736   H     0.64563   0.12824   0.89476   0.00000  Uiso   1.00
H737   H     0.62021   0.08183   0.92720   0.00000  Uiso   1.00
H738   H     0.46652   0.21801   0.61962   0.00000  Uiso   1.00
H739   H     0.60726   0.21988   0.80037   0.00000  Uiso   1.00
H740   H     0.63503   0.13687   0.98391   0.00000  Uiso   1.00
H741   H     0.38830   0.20003   0.91156   0.00000  Uiso   1.00
H742   H     0.43362   0.22550   0.54194   0.00000  Uiso   1.00
H743   H     0.37336   0.23043   0.99928   0.00000  Uiso   1.00
H744   H     0.53339   0.11581   0.87798   0.00000  Uiso   1.00
H745   H     0.57756   0.29439   0.71339   0.00000  Uiso   1.00
N746   N     0.38265   0.16666   0.74998   0.00000  Uiso   1.00
N747   N     0.61735   0.16669   0.74999   0.00000  Uiso   1.00
O748   O     0.46042   0.22678   0.75000   0.00000  Uiso   1.00
O749   O     0.35946   0.22671   0.80990   0.00000  Uiso   1.00
O750   O     0.63683   0.10466   0.69510   0.00000  Uiso   1.00
O751   O     0.46121   0.19419   0.59780   0.00000  Uiso   1.00
O752   O     0.53961   0.22679   0.75000   0.00000  Uiso   1.00
O753   O     0.44108   0.16665   0.82549   0.00000  Uiso   1.00
O754   O     0.52027   0.16666   0.82549   0.00000  Uiso   1.00
O755   O     0.46039   0.10654   0.74999   0.00000  Uiso   1.00
O756   O     0.53958   0.10655   0.74999   0.00000  Uiso   1.00
O757   O     0.47973   0.16667   0.67451   0.00000  Uiso   1.00
O758   O     0.55892   0.16668   0.67451   0.00000  Uiso   1.00
O759   O     0.41090   0.04187   0.80486   0.00000  Uiso   1.00
C760   C     0.83318   0.24585   0.75013   0.00000  Uiso   1.00
C761   C     0.79049   0.17038   0.90742   0.00000  Uiso   1.00
C762   C     0.87653   0.31120   0.73109   0.00000  Uiso   1.00
C763   C     0.80679   0.16596   0.85000   0.00000  Uiso   1.00
C764   C     0.87617   0.02055   0.73243   0.00000  Uiso   1.00
C765   C     0.83213   0.04295   0.75485   0.00000  Uiso   1.00
C766   C     0.78802   0.02201   0.77769   0.00000  Uiso   1.00
C767   C     0.78862   0.31253   0.77390   0.00000  Uiso   1.00
C768   C     0.83270   0.29048   0.75119   0.00000  Uiso   1.00
C769   C     0.96632   0.19627   0.77776   0.00000  Uiso   1.00
C770   C     0.68174   0.19612   0.77890   0.00000  Uiso   1.00
C771   C     0.81429   0.17853   0.98691   0.00000  Uiso   1.00
C772   C     0.69993   0.13693   0.72123   0.00000  Uiso   1.00
C773   C     0.98376   0.13658   0.72238   0.00000  Uiso   1.00
C774   C     0.83284   0.08756   0.75190   0.00000  Uiso   1.00
C775   C     0.85996   0.16818   0.64972   0.00000  Uiso   1.00
C776   C     0.93227   0.14839   0.50693   0.00000  Uiso   1.00
C777   C     0.87577   0.16983   0.59167   0.00000  Uiso   1.00
C778   C     0.74697   0.19275   0.93228   0.00000  Uiso   1.00
C779   C     0.73855   0.21043   0.98195   0.00000  Uiso   1.00
C780   C     0.77290   0.20555   0.50765   0.00000  Uiso   1.00
C781   C     0.96661   0.15461   0.57994   0.00000  Uiso   1.00
C782   C     0.82244   0.16050   0.93597   0.00000  Uiso   1.00
C783   C     0.73277   0.10323   0.68665   0.00000  Uiso   1.00
C784   C     0.94717   0.10749   0.90415   0.00000  Uiso   1.00
C785   C     0.84915   0.17026   0.51338   0.00000  Uiso   1.00
C786   C     0.89458   0.15037   0.98466   0.00000  Uiso   1.00
C787   C     0.90108   0.13160   0.93480   0.00000  Uiso   1.00
C788   C     0.86325   0.13404   0.91351   0.00000  Uiso   1.00
C789   C     0.84002   0.17948   0.56752   0.00000  Uiso   1.00
C790   C     0.92391   0.15871   0.55961   0.00000  Uiso   1.00
Cu791  Cu    0.78645   0.16666   0.75000   0.00000  Uiso   1.00
Cu792  Cu    0.88022   0.16667   0.75000   0.00000  Uiso   1.00
H793   H     0.91025   0.03600   0.71499   0.00000  Uiso   1.00
H794   H     0.96857   0.18209   0.60514   0.00000  Uiso   1.00
H795   H     0.96331   0.12587   0.60100   0.00000  Uiso   1.00
H796   H     0.66873   0.15236   0.54783   0.00000  Uiso   1.00
H797   H     0.75138   0.06737   0.82240   0.00000  Uiso   1.00
H798   H     0.72178   0.21781   0.81844   0.00000  Uiso   1.00
H799   H     0.77202   0.10789   0.67616   0.00000  Uiso   1.00
H800   H     0.72428   0.07325   0.70544   0.00000  Uiso   1.00
H801   H     0.72610   0.10065   0.64839   0.00000  Uiso   1.00
H802   H     0.94316   0.11468   0.68400   0.00000  Uiso   1.00
H803   H     0.94491   0.09384   0.86660   0.00000  Uiso   1.00
H804   H     0.75484   0.29650   0.79087   0.00000  Uiso   1.00
H805   H     0.97896   0.12824   0.89476   0.00000  Uiso   1.00
H806   H     0.95354   0.08183   0.92720   0.00000  Uiso   1.00
H807   H     0.79985   0.21801   0.61962   0.00000  Uiso   1.00
H808   H     0.94059   0.21988   0.80037   0.00000  Uiso   1.00
H809   H     0.96836   0.13687   0.98391   0.00000  Uiso   1.00
H810   H     0.72163   0.20003   0.91156   0.00000  Uiso   1.00
H811   H     0.76695   0.22550   0.54194   0.00000  Uiso   1.00
H812   H     0.70670   0.23043   0.99928   0.00000  Uiso   1.00
H813   H     0.86673   0.11581   0.87798   0.00000  Uiso   1.00
H814   H     0.91090   0.29439   0.71339   0.00000  Uiso   1.00
N815   N     0.71598   0.16666   0.74998   0.00000  Uiso   1.00
N816   N     0.95069   0.16669   0.74999   0.00000  Uiso   1.00
O817   O     0.79375   0.22678   0.75000   0.00000  Uiso   1.00
O818   O     0.69279   0.22671   0.80990   0.00000  Uiso   1.00
O819   O     0.97016   0.10466   0.69510   0.00000  Uiso   1.00
O820   O     0.79455   0.19419   0.59780   0.00000  Uiso   1.00
O821   O     0.87294   0.22679   0.75000   0.00000  Uiso   1.00
O822   O     0.77441   0.16665   0.82549   0.00000  Uiso   1.00
O823   O     0.85360   0.16666   0.82549   0.00000  Uiso   1.00
O824   O     0.79373   0.10654   0.74999   0.00000  Uiso   1.00
O825   O     0.87292   0.10655   0.74999   0.00000  Uiso   1.00
O826   O     0.81306   0.16667   0.67451   0.00000  Uiso   1.00
O827   O     0.89225   0.16668   0.67451   0.00000  Uiso   1.00
O828   O     0.74423   0.04187   0.80486   0.00000  Uiso   1.00
C829   C     0.16652   0.57918   0.75013   0.00000  Uiso   1.00
C830   C     0.12383   0.50372   0.90742   0.00000  Uiso   1.00
C831   C     0.20987   0.64454   0.73109   0.00000  Uiso   1.00
C832   C     0.14012   0.49929   0.85000   0.00000  Uiso   1.00
C833   C     0.20950   0.35388   0.73243   0.00000  Uiso   1.00
C834   C     0.16547   0.37628   0.75485   0.00000  Uiso   1.00
C835   C     0.12135   0.35534   0.77769   0.00000  Uiso   1.00
C836   C     0.12195   0.64586   0.77390   0.00000  Uiso   1.00
C837   C     0.16603   0.62382   0.75119   0.00000  Uiso   1.00
C838   C     0.29966   0.52960   0.77776   0.00000  Uiso   1.00
C839   C     0.01507   0.52946   0.77890   0.00000  Uiso   1.00
C840   C     0.14762   0.51186   0.98691   0.00000  Uiso   1.00
C841   C     0.03327   0.47027   0.72123   0.00000  Uiso   1.00
C842   C     0.31710   0.46991   0.72238   0.00000  Uiso   1.00
C843   C     0.16617   0.42089   0.75190   0.00000  Uiso   1.00
C844   C     0.19330   0.50151   0.64972   0.00000  Uiso   1.00
C845   C     0.26561   0.48172   0.50693   0.00000  Uiso   1.00
C846   C     0.20910   0.50316   0.59167   0.00000  Uiso   1.00
C847   C     0.08031   0.52608   0.93228   0.00000  Uiso   1.00
C848   C     0.07188   0.54377   0.98195   0.00000  Uiso   1.00
C849   C     0.10623   0.53889   0.50765   0.00000  Uiso   1.00
C850   C     0.29995   0.48795   0.57994   0.00000  Uiso   1.00
C851   C     0.15578   0.49383   0.93597   0.00000  Uiso   1.00
C852   C     0.06610   0.43656   0.68665   0.00000  Uiso   1.00
C853   C     0.28050   0.44082   0.90415   0.00000  Uiso   1.00
C854   C     0.18248   0.50359   0.51338   0.00000  Uiso   1.00
C855   C     0.22791   0.48370   0.98466   0.00000  Uiso   1.00
C856   C     0.23441   0.46493   0.93480   0.00000  Uiso   1.00
C857   C     0.19658   0.46737   0.91351   0.00000  Uiso   1.00
C858   C     0.17335   0.51281   0.56752   0.00000  Uiso   1.00
C859   C     0.25724   0.49204   0.55961   0.00000  Uiso   1.00
Cu860  Cu    0.11978   0.49999   0.75000   0.00000  Uiso   1.00
Cu861  Cu    0.21355   0.50001   0.75000   0.00000  Uiso   1.00
H862   H     0.24358   0.36933   0.71499   0.00000  Uiso   1.00
H863   H     0.30191   0.51542   0.60514   0.00000  Uiso   1.00
H864   H     0.29664   0.45921   0.60100   0.00000  Uiso   1.00
H865   H     0.00206   0.48569   0.54783   0.00000  Uiso   1.00
H866   H     0.08472   0.40070   0.82240   0.00000  Uiso   1.00
H867   H     0.05511   0.55114   0.81844   0.00000  Uiso   1.00
H868   H     0.10535   0.44122   0.67616   0.00000  Uiso   1.00
H869   H     0.05761   0.40658   0.70544   0.00000  Uiso   1.00
H870   H     0.05943   0.43398   0.64839   0.00000  Uiso   1.00
H871   H     0.27649   0.44801   0.68400   0.00000  Uiso   1.00
H872   H     0.27825   0.42717   0.86660   0.00000  Uiso   1.00
H873   H     0.08817   0.62984   0.79087   0.00000  Uiso   1.00
H874   H     0.31230   0.46157   0.89476   0.00000  Uiso   1.00
H875   H     0.28688   0.41517   0.92720   0.00000  Uiso   1.00
H876   H     0.13318   0.55134   0.61962   0.00000  Uiso   1.00
H877   H     0.27393   0.55321   0.80037   0.00000  Uiso   1.00
H878   H     0.30169   0.47020   0.98391   0.00000  Uiso   1.00
H879   H     0.05496   0.53337   0.91156   0.00000  Uiso   1.00
H880   H     0.10029   0.55884   0.54194   0.00000  Uiso   1.00
H881   H     0.04003   0.56376   0.99928   0.00000  Uiso   1.00
H882   H     0.20006   0.44914   0.87798   0.00000  Uiso   1.00
H883   H     0.24423   0.62772   0.71339   0.00000  Uiso   1.00
N884   N     0.04931   0.49999   0.74998   0.00000  Uiso   1.00
N885   N     0.28402   0.50002   0.74999   0.00000  Uiso   1.00
O886   O     0.12708   0.56011   0.75000   0.00000  Uiso   1.00
O887   O     0.02612   0.56004   0.80990   0.00000  Uiso   1.00
O888   O     0.30350   0.43800   0.69510   0.00000  Uiso   1.00
O889   O     0.12788   0.52752   0.59780   0.00000  Uiso   1.00
O890   O     0.20627   0.56012   0.75000   0.00000  Uiso   1.00
O891   O     0.10775   0.49998   0.82549   0.00000  Uiso   1.00
O892   O     0.18694   0.49999   0.82549   0.00000  Uiso   1.00
O893   O     0.12706   0.43988   0.74999   0.00000  Uiso   1.00
O894   O     0.20625   0.43989   0.74999   0.00000  Uiso   1.00
O895   O     0.14640   0.50001   0.67451   0.00000  Uiso   1.00
O896   O     0.22559   0.50002   0.67451   0.00000  Uiso   1.00
O897   O     0.07757   0.37520   0.80486   0.00000  Uiso   1.00
C898   C     0.49985   0.57918   0.75013   0.00000  Uiso   1.00
C899   C     0.45716   0.50372   0.90742   0.00000  Uiso   1.00
C900   C     0.54320   0.64454   0.73109   0.00000  Uiso   1.00
C901   C     0.47346   0.49929   0.85000   0.00000  Uiso   1.00
C902   C     0.54284   0.35388   0.73243   0.00000  Uiso   1.00
C903   C     0.49880   0.37628   0.75485   0.00000  Uiso   1.00
C904   C     0.45469   0.35534   0.77769   0.00000  Uiso   1.00
C905   C     0.45528   0.64586   0.77390   0.00000  Uiso   1.00
C906   C     0.49937   0.62382   0.75119   0.00000  Uiso   1.00
C907   C     0.63299   0.52960   0.77776   0.00000  Uiso   1.00
C908   C     0.34840   0.52946   0.77890   0.00000  Uiso   1.00
C909   C     0.48095   0.51186   0.98691   0.00000  Uiso   1.00
C910   C     0.36660   0.47027   0.72123   0.00000  Uiso   1.00
C911   C     0.65043   0.46991   0.72238   0.00000  Uiso   1.00
C912   C     0.49951   0.42089   0.75190   0.00000  Uiso   1.00
C913   C     0.52663   0.50151   0.64972   0.00000  Uiso   1.00
C914   C     0.59894   0.48172   0.50693   0.00000  Uiso   1.00
C915   C     0.54243   0.50316   0.59167   0.00000  Uiso   1.00
C916   C     0.41364   0.52608   0.93228   0.00000  Uiso   1.00
C917   C     0.40521   0.54377   0.98195   0.00000  Uiso   1.00
C918   C     0.43957   0.53889   0.50765   0.00000  Uiso   1.00
C919   C     0.63328   0.48795   0.57994   0.00000  Uiso   1.00
C920   C     0.48911   0.49383   0.93597   0.00000  Uiso   1.00
C921   C     0.39943   0.43656   0.68665   0.00000  Uiso   1.00
C922   C     0.61384   0.44082   0.90415   0.00000  Uiso   1.00
C923   C     0.51581   0.50359   0.51338   0.00000  Uiso   1.00
C924   C     0.56125   0.48370   0.98466   0.00000  Uiso   1.00
C925   C     0.56774   0.46493   0.93480   0.00000  Uiso   1.00
C926   C     0.52991   0.46737   0.91351   0.00000  Uiso   1.00
C927   C     0.50668   0.51281   0.56752   0.00000  Uiso   1.00
C928   C     0.59057   0.49204   0.55961   0.00000  Uiso   1.00
Cu929  Cu    0.45311   0.49999   0.75000   0.00000  Uiso   1.00
Cu930  Cu    0.54689   0.50001   0.75000   0.00000  Uiso   1.00
H931   H     0.57692   0.36933   0.71499   0.00000  Uiso   1.00
H932   H     0.63524   0.51542   0.60514   0.00000  Uiso   1.00
H933   H     0.62997   0.45921   0.60100   0.00000  Uiso   1.00
H934   H     0.33540   0.48569   0.54783   0.00000  Uiso   1.00
H935   H     0.41805   0.40070   0.82240   0.00000  Uiso   1.00
H936   H     0.38844   0.55114   0.81844   0.00000  Uiso   1.00
H937   H     0.43869   0.44122   0.67616   0.00000  Uiso   1.00
H938   H     0.39094   0.40658   0.70544   0.00000  Uiso   1.00
H939   H     0.39277   0.43398   0.64839   0.00000  Uiso   1.00
H940   H     0.60983   0.44801   0.68400   0.00000  Uiso   1.00
H941   H     0.61158   0.42717   0.86660   0.00000  Uiso   1.00
H942   H     0.42150   0.62984   0.79087   0.00000  Uiso   1.00
H943   H     0.64563   0.46157   0.89476   0.00000  Uiso   1.00
H944   H     0.62021   0.41517   0.92720   0.00000  Uiso   1.00
H945   H     0.46652   0.55134   0.61962   0.00000  Uiso   1.00
H946   H     0.60726   0.55321   0.80037   0.00000  Uiso   1.00
H947   H     0.63503   0.47020   0.98391   0.00000  Uiso   1.00
H948   H     0.38830   0.53337   0.91156   0.00000  Uiso   1.00
H949   H     0.43362   0.55884   0.54194   0.00000  Uiso   1.00
H950   H     0.37336   0.56376   0.99928   0.00000  Uiso   1.00
H951   H     0.53339   0.44914   0.87798   0.00000  Uiso   1.00
H952   H     0.57756   0.62772   0.71339   0.00000  Uiso   1.00
N953   N     0.38265   0.49999   0.74998   0.00000  Uiso   1.00
N954   N     0.61735   0.50002   0.74999   0.00000  Uiso   1.00
O955   O     0.46042   0.56011   0.75000   0.00000  Uiso   1.00
O956   O     0.35946   0.56004   0.80990   0.00000  Uiso   1.00
O957   O     0.63683   0.43800   0.69510   0.00000  Uiso   1.00
O958   O     0.46121   0.52752   0.59780   0.00000  Uiso   1.00
O959   O     0.53961   0.56012   0.75000   0.00000  Uiso   1.00
O960   O     0.44108   0.49998   0.82549   0.00000  Uiso   1.00
O961   O     0.52027   0.49999   0.82549   0.00000  Uiso   1.00
O962   O     0.46039   0.43988   0.74999   0.00000  Uiso   1.00
O963   O     0.53958   0.43989   0.74999   0.00000  Uiso   1.00
O964   O     0.47973   0.50001   0.67451   0.00000  Uiso   1.00
O965   O     0.55892   0.50002   0.67451   0.00000  Uiso   1.00
O966   O     0.41090   0.37520   0.80486   0.00000  Uiso   1.00
C967   C     0.83318   0.57918   0.75013   0.00000  Uiso   1.00
C968   C     0.79049   0.50372   0.90742   0.00000  Uiso   1.00
C969   C     0.87653   0.64454   0.73109   0.00000  Uiso   1.00
C970   C     0.80679   0.49929   0.85000   0.00000  Uiso   1.00
C971   C     0.87617   0.35388   0.73243   0.00000  Uiso   1.00
C972   C     0.83213   0.37628   0.75485   0.00000  Uiso   1.00
C973   C     0.78802   0.35534   0.77769   0.00000  Uiso   1.00
C974   C     0.78862   0.64586   0.77390   0.00000  Uiso   1.00
C975   C     0.83270   0.62382   0.75119   0.00000  Uiso   1.00
C976   C     0.96632   0.52960   0.77776   0.00000  Uiso   1.00
C977   C     0.68174   0.52946   0.77890   0.00000  Uiso   1.00
C978   C     0.81429   0.51186   0.98691   0.00000  Uiso   1.00
C979   C     0.69993   0.47027   0.72123   0.00000  Uiso   1.00
C980   C     0.98376   0.46991   0.72238   0.00000  Uiso   1.00
C981   C     0.83284   0.42089   0.75190   0.00000  Uiso   1.00
C982   C     0.85996   0.50151   0.64972   0.00000  Uiso   1.00
C983   C     0.93227   0.48172   0.50693   0.00000  Uiso   1.00
C984   C     0.87577   0.50316   0.59167   0.00000  Uiso   1.00
C985   C     0.74697   0.52608   0.93228   0.00000  Uiso   1.00
C986   C     0.73855   0.54377   0.98195   0.00000  Uiso   1.00
C987   C     0.77290   0.53889   0.50765   0.00000  Uiso   1.00
C988   C     0.96661   0.48795   0.57994   0.00000  Uiso   1.00
C989   C     0.82244   0.49383   0.93597   0.00000  Uiso   1.00
C990   C     0.73277   0.43656   0.68665   0.00000  Uiso   1.00
C991   C     0.94717   0.44082   0.90415   0.00000  Uiso   1.00
C992   C     0.84915   0.50359   0.51338   0.00000  Uiso   1.00
C993   C     0.89458   0.48370   0.98466   0.00000  Uiso   1.00
C994   C     0.90108   0.46493   0.93480   0.00000  Uiso   1.00
C995   C     0.86325   0.46737   0.91351   0.00000  Uiso   1.00
C996   C     0.84002   0.51281   0.56752   0.00000  Uiso   1.00
C997   C     0.92391   0.49204   0.55961   0.00000  Uiso   1.00
Cu998  Cu    0.78645   0.49999   0.75000   0.00000  Uiso   1.00
Cu999  Cu    0.88022   0.50001   0.75000   0.00000  Uiso   1.00
H1000  H     0.91025   0.36933   0.71499   0.00000  Uiso   1.00
H1001  H     0.96857   0.51542   0.60514   0.00000  Uiso   1.00
H1002  H     0.96331   0.45921   0.60100   0.00000  Uiso   1.00
H1003  H     0.66873   0.48569   0.54783   0.00000  Uiso   1.00
H1004  H     0.75138   0.40070   0.82240   0.00000  Uiso   1.00
H1005  H     0.72178   0.55114   0.81844   0.00000  Uiso   1.00
H1006  H     0.77202   0.44122   0.67616   0.00000  Uiso   1.00
H1007  H     0.72428   0.40658   0.70544   0.00000  Uiso   1.00
H1008  H     0.72610   0.43398   0.64839   0.00000  Uiso   1.00
H1009  H     0.94316   0.44801   0.68400   0.00000  Uiso   1.00
H1010  H     0.94491   0.42717   0.86660   0.00000  Uiso   1.00
H1011  H     0.75484   0.62984   0.79087   0.00000  Uiso   1.00
H1012  H     0.97896   0.46157   0.89476   0.00000  Uiso   1.00
H1013  H     0.95354   0.41517   0.92720   0.00000  Uiso   1.00
H1014  H     0.79985   0.55134   0.61962   0.00000  Uiso   1.00
H1015  H     0.94059   0.55321   0.80037   0.00000  Uiso   1.00
H1016  H     0.96836   0.47020   0.98391   0.00000  Uiso   1.00
H1017  H     0.72163   0.53337   0.91156   0.00000  Uiso   1.00
H1018  H     0.76695   0.55884   0.54194   0.00000  Uiso   1.00
H1019  H     0.70670   0.56376   0.99928   0.00000  Uiso   1.00
H1020  H     0.86673   0.44914   0.87798   0.00000  Uiso   1.00
H1021  H     0.91090   0.62772   0.71339   0.00000  Uiso   1.00
N1022  N     0.71598   0.49999   0.74998   0.00000  Uiso   1.00
N1023  N     0.95069   0.50002   0.74999   0.00000  Uiso   1.00
O1024  O     0.79375   0.56011   0.75000   0.00000  Uiso   1.00
O1025  O     0.69279   0.56004   0.80990   0.00000  Uiso   1.00
O1026  O     0.97016   0.43800   0.69510   0.00000  Uiso   1.00
O1027  O     0.79455   0.52752   0.59780   0.00000  Uiso   1.00
O1028  O     0.87294   0.56012   0.75000   0.00000  Uiso   1.00
O1029  O     0.77441   0.49998   0.82549   0.00000  Uiso   1.00
O1030  O     0.85360   0.49999   0.82549   0.00000  Uiso   1.00
O1031  O     0.79373   0.43988   0.74999   0.00000  Uiso   1.00
O1032  O     0.87292   0.43989   0.74999   0.00000  Uiso   1.00
O1033  O     0.81306   0.50001   0.67451   0.00000  Uiso   1.00
O1034  O     0.89225   0.50002   0.67451   0.00000  Uiso   1.00
O1035  O     0.74423   0.37520   0.80486   0.00000  Uiso   1.00
C1036  C     0.16652   0.91252   0.75013   0.00000  Uiso   1.00
C1037  C     0.12383   0.83705   0.90742   0.00000  Uiso   1.00
C1038  C     0.20987   0.97787   0.73109   0.00000  Uiso   1.00
C1039  C     0.14012   0.83262   0.85000   0.00000  Uiso   1.00
C1040  C     0.20950   0.68722   0.73243   0.00000  Uiso   1.00
C1041  C     0.16547   0.70962   0.75485   0.00000  Uiso   1.00
C1042  C     0.12135   0.68868   0.77769   0.00000  Uiso   1.00
C1043  C     0.12195   0.97920   0.77390   0.00000  Uiso   1.00
C1044  C     0.16603   0.95715   0.75119   0.00000  Uiso   1.00
C1045  C     0.29966   0.86294   0.77776   0.00000  Uiso   1.00
C1046  C     0.01507   0.86279   0.77890   0.00000  Uiso   1.00
C1047  C     0.14762   0.84519   0.98691   0.00000  Uiso   1.00
C1048  C     0.03327   0.80360   0.72123   0.00000  Uiso   1.00
C1049  C     0.31710   0.80325   0.72238   0.00000  Uiso   1.00
C1050  C     0.16617   0.75422   0.75190   0.00000  Uiso   1.00
C1051  C     0.19330   0.83484   0.64972   0.00000  Uiso   1.00
C1052  C     0.26561   0.81506   0.50693   0.00000  Uiso   1.00
C1053  C     0.20910   0.83649   0.59167   0.00000  Uiso   1.00
C1054  C     0.08031   0.85942   0.93228   0.00000  Uiso   1.00
C1055  C     0.07188   0.87710   0.98195   0.00000  Uiso   1.00
C1056  C     0.10623   0.87222   0.50765   0.00000  Uiso   1.00
C1057  C     0.29995   0.82128   0.57994   0.00000  Uiso   1.00
C1058  C     0.15578   0.82717   0.93597   0.00000  Uiso   1.00
C1059  C     0.06610   0.76989   0.68665   0.00000  Uiso   1.00
C1060  C     0.28050   0.77415   0.90415   0.00000  Uiso   1.00
C1061  C     0.18248   0.83693   0.51338   0.00000  Uiso   1.00
C1062  C     0.22791   0.81704   0.98466   0.00000  Uiso   1.00
C1063  C     0.23441   0.79827   0.93480   0.00000  Uiso   1.00
C1064  C     0.19658   0.80070   0.91351   0.00000  Uiso   1.00
C1065  C     0.17335   0.84614   0.56752   0.00000  Uiso   1.00
C1066  C     0.25724   0.82538   0.55961   0.00000  Uiso   1.00
Cu1067 Cu    0.11978   0.83333   0.75000   0.00000  Uiso   1.00
Cu1068 Cu    0.21355   0.83334   0.75000   0.00000  Uiso   1.00
H1069  H     0.24358   0.70266   0.71499   0.00000  Uiso   1.00
H1070  H     0.30191   0.84875   0.60514   0.00000  Uiso   1.00
H1071  H     0.29664   0.79254   0.60100   0.00000  Uiso   1.00
H1072  H     0.00206   0.81903   0.54783   0.00000  Uiso   1.00
H1073  H     0.08472   0.73404   0.82240   0.00000  Uiso   1.00
H1074  H     0.05511   0.88448   0.81844   0.00000  Uiso   1.00
H1075  H     0.10535   0.77455   0.67616   0.00000  Uiso   1.00
H1076  H     0.05761   0.73992   0.70544   0.00000  Uiso   1.00
H1077  H     0.05943   0.76732   0.64839   0.00000  Uiso   1.00
H1078  H     0.27649   0.78134   0.68400   0.00000  Uiso   1.00
H1079  H     0.27825   0.76050   0.86660   0.00000  Uiso   1.00
H1080  H     0.08817   0.96317   0.79087   0.00000  Uiso   1.00
H1081  H     0.31230   0.79490   0.89476   0.00000  Uiso   1.00
H1082  H     0.28688   0.74850   0.92720   0.00000  Uiso   1.00
H1083  H     0.13318   0.88467   0.61962   0.00000  Uiso   1.00
H1084  H     0.27393   0.88655   0.80037   0.00000  Uiso   1.00
H1085  H     0.30169   0.80354   0.98391   0.00000  Uiso   1.00
H1086  H     0.05496   0.86670   0.91156   0.00000  Uiso   1.00
H1087  H     0.10029   0.89217   0.54194   0.00000  Uiso   1.00
H1088  H     0.04003   0.89709   0.99928   0.00000  Uiso   1.00
H1089  H     0.20006   0.78248   0.87798   0.00000  Uiso   1.00
H1090  H     0.24423   0.96106   0.71339   0.00000  Uiso   1.00
N1091  N     0.04931   0.83332   0.74998   0.00000  Uiso   1.00
N1092  N     0.28402   0.83335   0.74999   0.00000  Uiso   1.00
O1093  O     0.12708   0.89345   0.75000   0.00000  Uiso   1.00
O1094  O     0.02612   0.89337   0.80990   0.00000  Uiso   1.00
O1095  O     0.30350   0.77133   0.69510   0.00000  Uiso   1.00
O1096  O     0.12788   0.86085   0.59780   0.00000  Uiso   1.00
O1097  O     0.20627   0.89346   0.75000   0.00000  Uiso   1.00
O1098  O     0.10775   0.83332   0.82549   0.00000  Uiso   1.00
O1099  O     0.18694   0.83333   0.82549   0.00000  Uiso   1.00
O1100  O     0.12706   0.77321   0.74999   0.00000  Uiso   1.00
O1101  O     0.20625   0.77322   0.74999   0.00000  Uiso   1.00
O1102  O     0.14640   0.83334   0.67451   0.00000  Uiso   1.00
O1103  O     0.22559   0.83335   0.67451   0.00000  Uiso   1.00
O1104  O     0.07757   0.70853   0.80486   0.00000  Uiso   1.00
C1105  C     0.49985   0.91252   0.75013   0.00000  Uiso   1.00
C1106  C     0.45716   0.83705   0.90742   0.00000  Uiso   1.00
C1107  C     0.54320   0.97787   0.73109   0.00000  Uiso   1.00
C1108  C     0.47346   0.83262   0.85000   0.00000  Uiso   1.00
C1109  C     0.54284   0.68722   0.73243   0.00000  Uiso   1.00
C1110  C     0.49880   0.70962   0.75485   0.00000  Uiso   1.00
C1111  C     0.45469   0.68868   0.77769   0.00000  Uiso   1.00
C1112  C     0.45528   0.97920   0.77390   0.00000  Uiso   1.00
C1113  C     0.49937   0.95715   0.75119   0.00000  Uiso   1.00
C1114  C     0.63299   0.86294   0.77776   0.00000  Uiso   1.00
C1115  C     0.34840   0.86279   0.77890   0.00000  Uiso   1.00
C1116  C     0.48095   0.84519   0.98691   0.00000  Uiso   1.00
C1117  C     0.36660   0.80360   0.72123   0.00000  Uiso   1.00
C1118  C     0.65043   0.80325   0.72238   0.00000  Uiso   1.00
C1119  C     0.49951   0.75422   0.75190   0.00000  Uiso   1.00
C1120  C     0.52663   0.83484   0.64972   0.00000  Uiso   1.00
C1121  C     0.59894   0.81506   0.50693   0.00000  Uiso   1.00
C1122  C     0.54243   0.83649   0.59167   0.00000  Uiso   1.00
C1123  C     0.41364   0.85942   0.93228   0.00000  Uiso   1.00
C1124  C     0.40521   0.87710   0.98195   0.00000  Uiso   1.00
C1125  C     0.43957   0.87222   0.50765   0.00000  Uiso   1.00
C1126  C     0.63328   0.82128   0.57994   0.00000  Uiso   1.00
C1127  C     0.48911   0.82717   0.93597   0.00000  Uiso   1.00
C1128  C     0.39943   0.76989   0.68665   0.00000  Uiso   1.00
C1129  C     0.61384   0.77415   0.90415   0.00000  Uiso   1.00
C1130  C     0.51581   0.83693   0.51338   0.00000  Uiso   1.00
C1131  C     0.56125   0.81704   0.98466   0.00000  Uiso   1.00
C1132  C     0.56774   0.79827   0.93480   0.00000  Uiso   1.00
C1133  C     0.52991   0.80070   0.91351   0.00000  Uiso   1.00
C1134  C     0.50668   0.84614   0.56752   0.00000  Uiso   1.00
C1135  C     0.59057   0.82538   0.55961   0.00000  Uiso   1.00
Cu1136 Cu    0.45311   0.83333   0.75000   0.00000  Uiso   1.00
Cu1137 Cu    0.54689   0.83334   0.75000   0.00000  Uiso   1.00
H1138  H     0.57692   0.70266   0.71499   0.00000  Uiso   1.00
H1139  H     0.63524   0.84875   0.60514   0.00000  Uiso   1.00
H1140  H     0.62997   0.79254   0.60100   0.00000  Uiso   1.00
H1141  H     0.33540   0.81903   0.54783   0.00000  Uiso   1.00
H1142  H     0.41805   0.73404   0.82240   0.00000  Uiso   1.00
H1143  H     0.38844   0.88448   0.81844   0.00000  Uiso   1.00
H1144  H     0.43869   0.77455   0.67616   0.00000  Uiso   1.00
H1145  H     0.39094   0.73992   0.70544   0.00000  Uiso   1.00
H1146  H     0.39277   0.76732   0.64839   0.00000  Uiso   1.00
H1147  H     0.60983   0.78134   0.68400   0.00000  Uiso   1.00
H1148  H     0.61158   0.76050   0.86660   0.00000  Uiso   1.00
H1149  H     0.42150   0.96317   0.79087   0.00000  Uiso   1.00
H1150  H     0.64563   0.79490   0.89476   0.00000  Uiso   1.00
H1151  H     0.62021   0.74850   0.92720   0.00000  Uiso   1.00
H1152  H     0.46652   0.88467   0.61962   0.00000  Uiso   1.00
H1153  H     0.60726   0.88655   0.80037   0.00000  Uiso   1.00
H1154  H     0.63503   0.80354   0.98391   0.00000  Uiso   1.00
H1155  H     0.38830   0.86670   0.91156   0.00000  Uiso   1.00
H1156  H     0.43362   0.89217   0.54194   0.00000  Uiso   1.00
H1157  H     0.37336   0.89709   0.99928   0.00000  Uiso   1.00
H1158  H     0.53339   0.78248   0.87798   0.00000  Uiso   1.00
H1159  H     0.57756   0.96106   0.71339   0.00000  Uiso   1.00
N1160  N     0.38265   0.83332   0.74998   0.00000  Uiso   1.00
N1161  N     0.61735   0.83335   0.74999   0.00000  Uiso   1.00
O1162  O     0.46042   0.89345   0.75000   0.00000  Uiso   1.00
O1163  O     0.35946   0.89337   0.80990   0.00000  Uiso   1.00
O1164  O     0.63683   0.77133   0.69510   0.00000  Uiso   1.00
O1165  O     0.46121   0.86085   0.59780   0.00000  Uiso   1.00
O1166  O     0.53961   0.89346   0.75000   0.00000  Uiso   1.00
O1167  O     0.44108   0.83332   0.82549   0.00000  Uiso   1.00
O1168  O     0.52027   0.83333   0.82549   0.00000  Uiso   1.00
O1169  O     0.46039   0.77321   0.74999   0.00000  Uiso   1.00
O1170  O     0.53958   0.77322   0.74999   0.00000  Uiso   1.00
O1171  O     0.47973   0.83334   0.67451   0.00000  Uiso   1.00
O1172  O     0.55892   0.83335   0.67451   0.00000  Uiso   1.00
O1173  O     0.41090   0.70853   0.80486   0.00000  Uiso   1.00
C1174  C     0.83318   0.91252   0.75013   0.00000  Uiso   1.00
C1175  C     0.79049   0.83705   0.90742   0.00000  Uiso   1.00
C1176  C     0.87653   0.97787   0.73109   0.00000  Uiso   1.00
C1177  C     0.80679   0.83262   0.85000   0.00000  Uiso   1.00
C1178  C     0.87617   0.68722   0.73243   0.00000  Uiso   1.00
C1179  C     0.83213   0.70962   0.75485   0.00000  Uiso   1.00
C1180  C     0.78802   0.68868   0.77769   0.00000  Uiso   1.00
C1181  C     0.78862   0.97920   0.77390   0.00000  Uiso   1.00
C1182  C     0.83270   0.95715   0.75119   0.00000  Uiso   1.00
C1183  C     0.96632   0.86294   0.77776   0.00000  Uiso   1.00
C1184  C     0.68174   0.86279   0.77890   0.00000  Uiso   1.00
C1185  C     0.81429   0.84519   0.98691   0.00000  Uiso   1.00
C1186  C     0.69993   0.80360   0.72123   0.00000  Uiso   1.00
C1187  C     0.98376   0.80325   0.72238   0.00000  Uiso   1.00
C1188  C     0.83284   0.75422   0.75190   0.00000  Uiso   1.00
C1189  C     0.85996   0.83484   0.64972   0.00000  Uiso   1.00
C1190  C     0.93227   0.81506   0.50693   0.00000  Uiso   1.00
C1191  C     0.87577   0.83649   0.59167   0.00000  Uiso   1.00
C1192  C     0.74697   0.85942   0.93228   0.00000  Uiso   1.00
C1193  C     0.73855   0.87710   0.98195   0.00000  Uiso   1.00
C1194  C     0.77290   0.87222   0.50765   0.00000  Uiso   1.00
C1195  C     0.96661   0.82128   0.57994   0.00000  Uiso   1.00
C1196  C     0.82244   0.82717   0.93597   0.00000  Uiso   1.00
C1197  C     0.73277   0.76989   0.68665   0.00000  Uiso   1.00
C1198  C     0.94717   0.77415   0.90415   0.00000  Uiso   1.00
C1199  C     0.84915   0.83693   0.51338   0.00000  Uiso   1.00
C1200  C     0.89458   0.81704   0.98466   0.00000  Uiso   1.00
C1201  C     0.90108   0.79827   0.93480   0.00000  Uiso   1.00
C1202  C     0.86325   0.80070   0.91351   0.00000  Uiso   1.00
C1203  C     0.84002   0.84614   0.56752   0.00000  Uiso   1.00
C1204  C     0.92391   0.82538   0.55961   0.00000  Uiso   1.00
Cu1205 Cu    0.78645   0.83333   0.75000   0.00000  Uiso   1.00
Cu1206 Cu    0.88022   0.83334   0.75000   0.00000  Uiso   1.00
H1207  H     0.91025   0.70266   0.71499   0.00000  Uiso   1.00
H1208  H     0.96857   0.84875   0.60514   0.00000  Uiso   1.00
H1209  H     0.96331   0.79254   0.60100   0.00000  Uiso   1.00
H1210  H     0.66873   0.81903   0.54783   0.00000  Uiso   1.00
H1211  H     0.75138   0.73404   0.82240   0.00000  Uiso   1.00
H1212  H     0.72178   0.88448   0.81844   0.00000  Uiso   1.00
H1213  H     0.77202   0.77455   0.67616   0.00000  Uiso   1.00
H1214  H     0.72428   0.73992   0.70544   0.00000  Uiso   1.00
H1215  H     0.72610   0.76732   0.64839   0.00000  Uiso   1.00
H1216  H     0.94316   0.78134   0.68400   0.00000  Uiso   1.00
H1217  H     0.94491   0.76050   0.86660   0.00000  Uiso   1.00
H1218  H     0.75484   0.96317   0.79087   0.00000  Uiso   1.00
H1219  H     0.97896   0.79490   0.89476   0.00000  Uiso   1.00
H1220  H     0.95354   0.74850   0.92720   0.00000  Uiso   1.00
H1221  H     0.79985   0.88467   0.61962   0.00000  Uiso   1.00
H1222  H     0.94059   0.88655   0.80037   0.00000  Uiso   1.00
H1223  H     0.96836   0.80354   0.98391   0.00000  Uiso   1.00
H1224  H     0.72163   0.86670   0.91156   0.00000  Uiso   1.00
H1225  H     0.76695   0.89217   0.54194   0.00000  Uiso   1.00
H1226  H     0.70670   0.89709   0.99928   0.00000  Uiso   1.00
H1227  H     0.86673   0.78248   0.87798   0.00000  Uiso   1.00
H1228  H     0.91090   0.96106   0.71339   0.00000  Uiso   1.00
N1229  N     0.71598   0.83332   0.74998   0.00000  Uiso   1.00
N1230  N     0.95069   0.83335   0.74999   0.00000  Uiso   1.00
O1231  O     0.79375   0.89345   0.75000   0.00000  Uiso   1.00
O1232  O     0.69279   0.89337   0.80990   0.00000  Uiso   1.00
O1233  O     0.97016   0.77133   0.69510   0.00000  Uiso   1.00
O1234  O     0.79455   0.86085   0.59780   0.00000  Uiso   1.00
O1235  O     0.87294   0.89346   0.75000   0.00000  Uiso   1.00
O1236  O     0.77441   0.83332   0.82549   0.00000  Uiso   1.00
O1237  O     0.85360   0.83333   0.82549   0.00000  Uiso   1.00
O1238  O     0.79373   0.77321   0.74999   0.00000  Uiso   1.00
O1239  O     0.87292   0.77322   0.74999   0.00000  Uiso   1.00
O1240  O     0.81306   0.83334   0.67451   0.00000  Uiso   1.00
O1241  O     0.89225   0.83335   0.67451   0.00000  Uiso   1.00
O1242  O     0.74423   0.70853   0.80486   0.00000  Uiso   1.00
loop_
_geom_bond_atom_site_label_1
_geom_bond_atom_site_label_2
_geom_bond_distance
_geom_bond_site_symmetry_2
_ccdc_geom_bond_type
C1     O58     1.299   .     A
C1     C9      1.446   .     S
C1     O62     1.297   .     A
C2     C4      1.474   .     S
C2     C23     1.421   .     A
C2     C19     1.399   .     A
C3     C9      1.397   .     A
C3     H55     1.084   .     S
C3     C212    1.383   .     S
C4     O63     1.306   .     A
C4     O64     1.302   .     A
C5     H34     1.083   .     S
C5     C6      1.401   .     A
C5     C417    1.383   1_545 S
C6     C7      1.418   .     A
C6     C15     1.452   .     S
C7     O69     1.380   .     S
C7     C422    1.387   1_545 S
C8     C9      1.398   .     A
C8     H45     1.084   .     S
C8     C214    1.387   .     S
C10    H49     1.082   .     S
C10    N57     1.358   .     A
C10    C80     1.415   .     S
C11    O59     1.374   .     S
C11    N56     1.388   .     A
C11    C148    1.415   1_455 S
C12    C23     1.420   .     A
C12    C642    1.421   .     S
C12    C647    1.437   .     S
C13    N56     1.384   .     A
C13    C24     1.515   .     S
C13    C152    1.417   1_455 S
C14    O60     1.375   .     S
C14    N57     1.374   .     A
C14    C82     1.417   .     S
C15    O65     1.297   .     A
C15    O66     1.301   .     A
C16    O68     1.310   .     A
C16    O67     1.307   .     A
C16    C18     1.494   .     S
C17    C31     1.393   .     A
C17    C648    1.402   1_554 S
C17    H671    1.082   1_554 S
C18    C30     1.424   .     A
C18    C31     1.417   .     A
C19    C20     1.384   .     A
C19    H51     1.083   .     S
C20    H53     1.083   .     S
C20    C642    1.391   .     S
C21    H52     1.073   .     S
C21    C633    1.421   1_554 S
C21    C641    1.391   1_554 S
C22    H35     1.110   .     S
C22    C31     1.507   .     S
C22    H36     1.104   .     S
C22    H106    1.111   .     S
C23    C29     1.404   .     A
C24    H41     1.111   .     S
C24    H40     1.089   .     S
C24    H42     1.111   .     S
C25    H47     1.110   .     S
C25    H46     1.111   .     S
C25    C28     1.513   .     S
C25    H44     1.111   .     S
C26    C30     1.421   .     A
C26    C633    1.437   1_554 S
C26    C648    1.425   1_554 S
C27    C28     1.411   .     A
C27    C638    1.402   .     S
C27    C647    1.425   .     S
C28    C29     1.389   .     A
C29    H54     1.082   .     S
C30    O61     1.375   .     S
Cu32   O63     1.961   .     S
Cu32   O58     1.963   .     S
Cu32   Cu33    2.702   .     S
Cu32   O65     1.959   .     S
Cu32   O67     1.941   .     S
Cu32   N56     2.031   .     S
Cu33   O66     1.963   .     S
Cu33   O64     1.941   .     S
Cu33   O62     1.959   .     S
Cu33   N57     2.031   .     S
Cu33   O68     1.961   .     S
H37    C160    1.111   1_455 S
H38    O69     0.990   .     S
H39    O59     0.979   .     S
H43    O60     0.977   .     S
H48    O61     0.993   .     S
H50    C638    1.082   .     S
C70    O127    1.299   .     A
C70    C78     1.446   .     S
C70    O131    1.297   .     A
C71    C73     1.474   .     S
C71    C92     1.421   .     A
C71    C88     1.399   .     A
C72    C78     1.397   .     A
C72    H124    1.084   .     S
C72    C281    1.383   .     S
C73    O132    1.306   .     A
C73    O133    1.302   .     A
C74    H103    1.083   .     S
C74    C75     1.401   .     A
C74    C486    1.383   1_545 S
C75    C76     1.418   .     A
C75    C84     1.452   .     S
C76    O138    1.380   .     S
C76    C491    1.387   1_545 S
C77    C78     1.398   .     A
C77    H114    1.084   .     S
C77    C283    1.387   .     S
C79    H118    1.082   .     S
C79    N126    1.358   .     A
C79    C149    1.415   .     S
C80    O128    1.374   .     S
C80    N125    1.388   .     A
C81    C92     1.420   .     A
C81    C711    1.421   .     S
C81    C716    1.437   .     S
C82    N125    1.384   .     A
C82    C93     1.515   .     S
C83    O129    1.375   .     S
C83    N126    1.374   .     A
C83    C151    1.417   .     S
C84    O134    1.297   .     A
C84    O135    1.301   .     A
C85    O137    1.310   .     A
C85    O136    1.307   .     A
C85    C87     1.494   .     S
C86    C100    1.393   .     A
C86    C717    1.402   1_554 S
C86    H740    1.082   1_554 S
C87    C99     1.424   .     A
C87    C100    1.417   .     A
C88    C89     1.384   .     A
C88    H120    1.083   .     S
C89    H122    1.083   .     S
C89    C711    1.391   .     S
C90    H121    1.073   .     S
C90    C702    1.421   1_554 S
C90    C710    1.391   1_554 S
C91    H104    1.110   .     S
C91    C100    1.507   .     S
C91    H105    1.104   .     S
C91    H175    1.111   .     S
C92    C98     1.404   .     A
C93    H110    1.111   .     S
C93    H109    1.089   .     S
C93    H111    1.111   .     S
C94    H116    1.110   .     S
C94    H115    1.111   .     S
C94    C97     1.513   .     S
C94    H113    1.111   .     S
C95    C99     1.421   .     A
C95    C702    1.437   1_554 S
C95    C717    1.425   1_554 S
C96    C97     1.411   .     A
C96    C707    1.402   .     S
C96    C716    1.425   .     S
C97    C98     1.389   .     A
C98    H123    1.082   .     S
C99    O130    1.375   .     S
Cu101  O132    1.961   .     S
Cu101  O127    1.963   .     S
Cu101  Cu102   2.702   .     S
Cu101  O134    1.959   .     S
Cu101  O136    1.941   .     S
Cu101  N125    2.031   .     S
Cu102  O135    1.963   .     S
Cu102  O133    1.941   .     S
Cu102  O131    1.959   .     S
Cu102  N126    2.031   .     S
Cu102  O137    1.961   .     S
H107   O138    0.990   .     S
H108   O128    0.979   .     S
H112   O129    0.977   .     S
H117   O130    0.993   .     S
H119   C707    1.082   .     S
C139   O196    1.299   .     A
C139   C147    1.446   .     S
C139   O200    1.297   .     A
C140   C142    1.474   .     S
C140   C161    1.421   .     A
C140   C157    1.399   .     A
C141   C147    1.397   .     A
C141   H193    1.084   .     S
C141   C350    1.383   .     S
C142   O201    1.306   .     A
C142   O202    1.302   .     A
C143   H172    1.083   .     S
C143   C144    1.401   .     A
C143   C555    1.383   1_545 S
C144   C145    1.418   .     A
C144   C153    1.452   .     S
C145   O207    1.380   .     S
C145   C560    1.387   1_545 S
C146   C147    1.398   .     A
C146   H183    1.084   .     S
C146   C352    1.387   .     S
C148   H187    1.082   .     S
C148   N195    1.358   .     A
C148   C11     1.415   1_655 S
C149   O197    1.374   .     S
C149   N194    1.388   .     A
C150   C161    1.420   .     A
C150   C780    1.421   .     S
C150   C785    1.437   .     S
C151   N194    1.384   .     A
C151   C162    1.515   .     S
C152   O198    1.375   .     S
C152   N195    1.374   .     A
C152   C13     1.417   1_655 S
C153   O203    1.297   .     A
C153   O204    1.301   .     A
C154   O206    1.310   .     A
C154   O205    1.307   .     A
C154   C156    1.494   .     S
C155   C169    1.393   .     A
C155   C786    1.402   1_554 S
C155   H809    1.082   1_554 S
C156   C168    1.424   .     A
C156   C169    1.417   .     A
C157   C158    1.384   .     A
C157   H189    1.083   .     S
C158   H191    1.083   .     S
C158   C780    1.391   .     S
C159   H190    1.073   .     S
C159   C771    1.421   1_554 S
C159   C779    1.391   1_554 S
C160   H173    1.110   .     S
C160   C169    1.507   .     S
C160   H174    1.104   .     S
C160   H37     1.111   1_655 S
C161   C167    1.404   .     A
C162   H179    1.111   .     S
C162   H178    1.089   .     S
C162   H180    1.111   .     S
C163   H185    1.110   .     S
C163   H184    1.111   .     S
C163   C166    1.513   .     S
C163   H182    1.111   .     S
C164   C168    1.421   .     A
C164   C771    1.437   1_554 S
C164   C786    1.425   1_554 S
C165   C166    1.411   .     A
C165   C776    1.402   .     S
C165   C785    1.425   .     S
C166   C167    1.389   .     A
C167   H192    1.082   .     S
C168   O199    1.375   .     S
Cu170  O201    1.961   .     S
Cu170  O196    1.963   .     S
Cu170  Cu171   2.702   .     S
Cu170  O203    1.959   .     S
Cu170  O205    1.941   .     S
Cu170  N194    2.031   .     S
Cu171  O204    1.963   .     S
Cu171  O202    1.941   .     S
Cu171  O200    1.959   .     S
Cu171  N195    2.031   .     S
Cu171  O206    1.961   .     S
H176   O207    0.990   .     S
H177   O197    0.979   .     S
H181   O198    0.977   .     S
H186   O199    0.993   .     S
H188   C776    1.082   .     S
C208   O265    1.299   .     A
C208   C216    1.446   .     S
C208   O269    1.297   .     A
C209   C211    1.474   .     S
C209   C230    1.421   .     A
C209   C226    1.399   .     A
C210   C216    1.397   .     A
C210   H262    1.084   .     S
C210   C419    1.383   .     S
C211   O270    1.306   .     A
C211   O271    1.302   .     A
C212   H241    1.083   .     S
C212   C213    1.401   .     A
C213   C214    1.418   .     A
C213   C222    1.452   .     S
C214   O276    1.380   .     S
C215   C216    1.398   .     A
C215   H252    1.084   .     S
C215   C421    1.387   .     S
C217   H256    1.082   .     S
C217   N264    1.358   .     A
C217   C287    1.415   .     S
C218   O266    1.374   .     S
C218   N263    1.388   .     A
C218   C355    1.415   1_455 S
C219   C230    1.420   .     A
C219   C849    1.421   .     S
C219   C854    1.437   .     S
C220   N263    1.384   .     A
C220   C231    1.515   .     S
C220   C359    1.417   1_455 S
C221   O267    1.375   .     S
C221   N264    1.374   .     A
C221   C289    1.417   .     S
C222   O272    1.297   .     A
C222   O273    1.301   .     A
C223   O275    1.310   .     A
C223   O274    1.307   .     A
C223   C225    1.494   .     S
C224   C238    1.393   .     A
C224   C855    1.402   1_554 S
C224   H878    1.082   1_554 S
C225   C237    1.424   .     A
C225   C238    1.417   .     A
C226   C227    1.384   .     A
C226   H258    1.083   .     S
C227   H260    1.083   .     S
C227   C849    1.391   .     S
C228   H259    1.073   .     S
C228   C840    1.421   1_554 S
C228   C848    1.391   1_554 S
C229   H242    1.110   .     S
C229   C238    1.507   .     S
C229   H243    1.104   .     S
C229   H313    1.111   .     S
C230   C236    1.404   .     A
C231   H248    1.111   .     S
C231   H247    1.089   .     S
C231   H249    1.111   .     S
C232   H254    1.110   .     S
C232   H253    1.111   .     S
C232   C235    1.513   .     S
C232   H251    1.111   .     S
C233   C237    1.421   .     A
C233   C840    1.437   1_554 S
C233   C855    1.425   1_554 S
C234   C235    1.411   .     A
C234   C845    1.402   .     S
C234   C854    1.425   .     S
C235   C236    1.389   .     A
C236   H261    1.082   .     S
C237   O268    1.375   .     S
Cu239  O270    1.961   .     S
Cu239  O265    1.963   .     S
Cu239  Cu240   2.702   .     S
Cu239  O272    1.959   .     S
Cu239  O274    1.941   .     S
Cu239  N263    2.031   .     S
Cu240  O273    1.963   .     S
Cu240  O271    1.941   .     S
Cu240  O269    1.959   .     S
Cu240  N264    2.031   .     S
Cu240  O275    1.961   .     S
H244   C367    1.111   1_455 S
H245   O276    0.990   .     S
H246   O266    0.979   .     S
H250   O267    0.977   .     S
H255   O268    0.993   .     S
H257   C845    1.082   .     S
C277   O334    1.299   .     A
C277   C285    1.446   .     S
C277   O338    1.297   .     A
C278   C280    1.474   .     S
C278   C299    1.421   .     A
C278   C295    1.399   .     A
C279   C285    1.397   .     A
C279   H331    1.084   .     S
C279   C488    1.383   .     S
C280   O339    1.306   .     A
C280   O340    1.302   .     A
C281   H310    1.083   .     S
C281   C282    1.401   .     A
C282   C283    1.418   .     A
C282   C291    1.452   .     S
C283   O345    1.380   .     S
C284   C285    1.398   .     A
C284   H321    1.084   .     S
C284   C490    1.387   .     S
C286   H325    1.082   .     S
C286   N333    1.358   .     A
C286   C356    1.415   .     S
C287   O335    1.374   .     S
C287   N332    1.388   .     A
C288   C299    1.420   .     A
C288   C918    1.421   .     S
C288   C923    1.437   .     S
C289   N332    1.384   .     A
C289   C300    1.515   .     S
C290   O336    1.375   .     S
C290   N333    1.374   .     A
C290   C358    1.417   .     S
C291   O341    1.297   .     A
C291   O342    1.301   .     A
C292   O344    1.310   .     A
C292   O343    1.307   .     A
C292   C294    1.494   .     S
C293   C307    1.393   .     A
C293   C924    1.402   1_554 S
C293   H947    1.082   1_554 S
C294   C306    1.424   .     A
C294   C307    1.417   .     A
C295   C296    1.384   .     A
C295   H327    1.083   .     S
C296   H329    1.083   .     S
C296   C918    1.391   .     S
C297   H328    1.073   .     S
C297   C909    1.421   1_554 S
C297   C917    1.391   1_554 S
C298   H311    1.110   .     S
C298   C307    1.507   .     S
C298   H312    1.104   .     S
C298   H382    1.111   .     S
C299   C305    1.404   .     A
C300   H317    1.111   .     S
C300   H316    1.089   .     S
C300   H318    1.111   .     S
C301   H323    1.110   .     S
C301   H322    1.111   .     S
C301   C304    1.513   .     S
C301   H320    1.111   .     S
C302   C306    1.421   .     A
C302   C909    1.437   1_554 S
C302   C924    1.425   1_554 S
C303   C304    1.411   .     A
C303   C914    1.402   .     S
C303   C923    1.425   .     S
C304   C305    1.389   .     A
C305   H330    1.082   .     S
C306   O337    1.375   .     S
Cu308  O339    1.961   .     S
Cu308  O334    1.963   .     S
Cu308  Cu309   2.702   .     S
Cu308  O341    1.959   .     S
Cu308  O343    1.941   .     S
Cu308  N332    2.031   .     S
Cu309  O342    1.963   .     S
Cu309  O340    1.941   .     S
Cu309  O338    1.959   .     S
Cu309  N333    2.031   .     S
Cu309  O344    1.961   .     S
H314   O345    0.990   .     S
H315   O335    0.979   .     S
H319   O336    0.977   .     S
H324   O337    0.993   .     S
H326   C914    1.082   .     S
C346   O403    1.299   .     A
C346   C354    1.446   .     S
C346   O407    1.297   .     A
C347   C349    1.474   .     S
C347   C368    1.421   .     A
C347   C364    1.399   .     A
C348   C354    1.397   .     A
C348   H400    1.084   .     S
C348   C557    1.383   .     S
C349   O408    1.306   .     A
C349   O409    1.302   .     A
C350   H379    1.083   .     S
C350   C351    1.401   .     A
C351   C352    1.418   .     A
C351   C360    1.452   .     S
C352   O414    1.380   .     S
C353   C354    1.398   .     A
C353   H390    1.084   .     S
C353   C559    1.387   .     S
C355   H394    1.082   .     S
C355   N402    1.358   .     A
C355   C218    1.415   1_655 S
C356   O404    1.374   .     S
C356   N401    1.388   .     A
C357   C368    1.420   .     A
C357   C987    1.421   .     S
C357   C992    1.437   .     S
C358   N401    1.384   .     A
C358   C369    1.515   .     S
C359   O405    1.375   .     S
C359   N402    1.374   .     A
C359   C220    1.417   1_655 S
C360   O410    1.297   .     A
C360   O411    1.301   .     A
C361   O413    1.310   .     A
C361   O412    1.307   .     A
C361   C363    1.494   .     S
C362   C376    1.393   .     A
C362   C993    1.402   1_554 S
C362   H1016   1.082   1_554 S
C363   C375    1.424   .     A
C363   C376    1.417   .     A
C364   C365    1.384   .     A
C364   H396    1.083   .     S
C365   H398    1.083   .     S
C365   C987    1.391   .     S
C366   H397    1.073   .     S
C366   C978    1.421   1_554 S
C366   C986    1.391   1_554 S
C367   H380    1.110   .     S
C367   C376    1.507   .     S
C367   H381    1.104   .     S
C367   H244    1.111   1_655 S
C368   C374    1.404   .     A
C369   H386    1.111   .     S
C369   H385    1.089   .     S
C369   H387    1.111   .     S
C370   H392    1.110   .     S
C370   H391    1.111   .     S
C370   C373    1.513   .     S
C370   H389    1.111   .     S
C371   C375    1.421   .     A
C371   C978    1.437   1_554 S
C371   C993    1.425   1_554 S
C372   C373    1.411   .     A
C372   C983    1.402   .     S
C372   C992    1.425   .     S
C373   C374    1.389   .     A
C374   H399    1.082   .     S
C375   O406    1.375   .     S
Cu377  O408    1.961   .     S
Cu377  O403    1.963   .     S
Cu377  Cu378   2.702   .     S
Cu377  O410    1.959   .     S
Cu377  O412    1.941   .     S
Cu377  N401    2.031   .     S
Cu378  O411    1.963   .     S
Cu378  O409    1.941   .     S
Cu378  O407    1.959   .     S
Cu378  N402    2.031   .     S
Cu378  O413    1.961   .     S
H383   O414    0.990   .     S
H384   O404    0.979   .     S
H388   O405    0.977   .     S
H393   O406    0.993   .     S
H395   C983    1.082   .     S
C415   O472    1.299   .     A
C415   C423    1.446   .     S
C415   O476    1.297   .     A
C416   C418    1.474   .     S
C416   C437    1.421   .     A
C416   C433    1.399   .     A
C417   C423    1.397   .     A
C417   H469    1.084   .     S
C417   C5      1.383   1_565 S
C418   O477    1.306   .     A
C418   O478    1.302   .     A
C419   H448    1.083   .     S
C419   C420    1.401   .     A
C420   C421    1.418   .     A
C420   C429    1.452   .     S
C421   O483    1.380   .     S
C422   C423    1.398   .     A
C422   H459    1.084   .     S
C422   C7      1.387   1_565 S
C424   H463    1.082   .     S
C424   N471    1.358   .     A
C424   C494    1.415   .     S
C425   O473    1.374   .     S
C425   N470    1.388   .     A
C425   C562    1.415   1_455 S
C426   C437    1.420   .     A
C426   C1056   1.421   .     S
C426   C1061   1.437   .     S
C427   N470    1.384   .     A
C427   C438    1.515   .     S
C427   C566    1.417   1_455 S
C428   O474    1.375   .     S
C428   N471    1.374   .     A
C428   C496    1.417   .     S
C429   O479    1.297   .     A
C429   O480    1.301   .     A
C430   O482    1.310   .     A
C430   O481    1.307   .     A
C430   C432    1.494   .     S
C431   C445    1.393   .     A
C431   C1062   1.402   1_554 S
C431   H1085   1.082   1_554 S
C432   C444    1.424   .     A
C432   C445    1.417   .     A
C433   C434    1.384   .     A
C433   H465    1.083   .     S
C434   H467    1.083   .     S
C434   C1056   1.391   .     S
C435   H466    1.073   .     S
C435   C1047   1.421   1_554 S
C435   C1055   1.391   1_554 S
C436   H449    1.110   .     S
C436   C445    1.507   .     S
C436   H450    1.104   .     S
C436   H520    1.111   .     S
C437   C443    1.404   .     A
C438   H455    1.111   .     S
C438   H454    1.089   .     S
C438   H456    1.111   .     S
C439   H461    1.110   .     S
C439   H460    1.111   .     S
C439   C442    1.513   .     S
C439   H458    1.111   .     S
C440   C444    1.421   .     A
C440   C1047   1.437   1_554 S
C440   C1062   1.425   1_554 S
C441   C442    1.411   .     A
C441   C1052   1.402   .     S
C441   C1061   1.425   .     S
C442   C443    1.389   .     A
C443   H468    1.082   .     S
C444   O475    1.375   .     S
Cu446  O477    1.961   .     S
Cu446  O472    1.963   .     S
Cu446  Cu447   2.702   .     S
Cu446  O479    1.959   .     S
Cu446  O481    1.941   .     S
Cu446  N470    2.031   .     S
Cu447  O480    1.963   .     S
Cu447  O478    1.941   .     S
Cu447  O476    1.959   .     S
Cu447  N471    2.031   .     S
Cu447  O482    1.961   .     S
H451   C574    1.111   1_455 S
H452   O483    0.990   .     S
H453   O473    0.979   .     S
H457   O474    0.977   .     S
H462   O475    0.993   .     S
H464   C1052   1.082   .     S
C484   O541    1.299   .     A
C484   C492    1.446   .     S
C484   O545    1.297   .     A
C485   C487    1.474   .     S
C485   C506    1.421   .     A
C485   C502    1.399   .     A
C486   C492    1.397   .     A
C486   H538    1.084   .     S
C486   C74     1.383   1_565 S
C487   O546    1.306   .     A
C487   O547    1.302   .     A
C488   H517    1.083   .     S
C488   C489    1.401   .     A
C489   C490    1.418   .     A
C489   C498    1.452   .     S
C490   O552    1.380   .     S
C491   C492    1.398   .     A
C491   H528    1.084   .     S
C491   C76     1.387   1_565 S
C493   H532    1.082   .     S
C493   N540    1.358   .     A
C493   C563    1.415   .     S
C494   O542    1.374   .     S
C494   N539    1.388   .     A
C495   C506    1.420   .     A
C495   C1125   1.421   .     S
C495   C1130   1.437   .     S
C496   N539    1.384   .     A
C496   C507    1.515   .     S
C497   O543    1.375   .     S
C497   N540    1.374   .     A
C497   C565    1.417   .     S
C498   O548    1.297   .     A
C498   O549    1.301   .     A
C499   O551    1.310   .     A
C499   O550    1.307   .     A
C499   C501    1.494   .     S
C500   C514    1.393   .     A
C500   C1131   1.402   1_554 S
C500   H1154   1.082   1_554 S
C501   C513    1.424   .     A
C501   C514    1.417   .     A
C502   C503    1.384   .     A
C502   H534    1.083   .     S
C503   H536    1.083   .     S
C503   C1125   1.391   .     S
C504   H535    1.073   .     S
C504   C1116   1.421   1_554 S
C504   C1124   1.391   1_554 S
C505   H518    1.110   .     S
C505   C514    1.507   .     S
C505   H519    1.104   .     S
C505   H589    1.111   .     S
C506   C512    1.404   .     A
C507   H524    1.111   .     S
C507   H523    1.089   .     S
C507   H525    1.111   .     S
C508   H530    1.110   .     S
C508   H529    1.111   .     S
C508   C511    1.513   .     S
C508   H527    1.111   .     S
C509   C513    1.421   .     A
C509   C1116   1.437   1_554 S
C509   C1131   1.425   1_554 S
C510   C511    1.411   .     A
C510   C1121   1.402   .     S
C510   C1130   1.425   .     S
C511   C512    1.389   .     A
C512   H537    1.082   .     S
C513   O544    1.375   .     S
Cu515  O546    1.961   .     S
Cu515  O541    1.963   .     S
Cu515  Cu516   2.702   .     S
Cu515  O548    1.959   .     S
Cu515  O550    1.941   .     S
Cu515  N539    2.031   .     S
Cu516  O549    1.963   .     S
Cu516  O547    1.941   .     S
Cu516  O545    1.959   .     S
Cu516  N540    2.031   .     S
Cu516  O551    1.961   .     S
H521   O552    0.990   .     S
H522   O542    0.979   .     S
H526   O543    0.977   .     S
H531   O544    0.993   .     S
H533   C1121   1.082   .     S
C553   O610    1.299   .     A
C553   C561    1.446   .     S
C553   O614    1.297   .     A
C554   C556    1.474   .     S
C554   C575    1.421   .     A
C554   C571    1.399   .     A
C555   C561    1.397   .     A
C555   H607    1.084   .     S
C555   C143    1.383   1_565 S
C556   O615    1.306   .     A
C556   O616    1.302   .     A
C557   H586    1.083   .     S
C557   C558    1.401   .     A
C558   C559    1.418   .     A
C558   C567    1.452   .     S
C559   O621    1.380   .     S
C560   C561    1.398   .     A
C560   H597    1.084   .     S
C560   C145    1.387   1_565 S
C562   H601    1.082   .     S
C562   N609    1.358   .     A
C562   C425    1.415   1_655 S
C563   O611    1.374   .     S
C563   N608    1.388   .     A
C564   C575    1.420   .     A
C564   C1194   1.421   .     S
C564   C1199   1.437   .     S
C565   N608    1.384   .     A
C565   C576    1.515   .     S
C566   O612    1.375   .     S
C566   N609    1.374   .     A
C566   C427    1.417   1_655 S
C567   O617    1.297   .     A
C567   O618    1.301   .     A
C568   O620    1.310   .     A
C568   O619    1.307   .     A
C568   C570    1.494   .     S
C569   C583    1.393   .     A
C569   C1200   1.402   1_554 S
C569   H1223   1.082   1_554 S
C570   C582    1.424   .     A
C570   C583    1.417   .     A
C571   C572    1.384   .     A
C571   H603    1.083   .     S
C572   H605    1.083   .     S
C572   C1194   1.391   .     S
C573   H604    1.073   .     S
C573   C1185   1.421   1_554 S
C573   C1193   1.391   1_554 S
C574   H587    1.110   .     S
C574   C583    1.507   .     S
C574   H588    1.104   .     S
C574   H451    1.111   1_655 S
C575   C581    1.404   .     A
C576   H593    1.111   .     S
C576   H592    1.089   .     S
C576   H594    1.111   .     S
C577   H599    1.110   .     S
C577   H598    1.111   .     S
C577   C580    1.513   .     S
C577   H596    1.111   .     S
C578   C582    1.421   .     A
C578   C1185   1.437   1_554 S
C578   C1200   1.425   1_554 S
C579   C580    1.411   .     A
C579   C1190   1.402   .     S
C579   C1199   1.425   .     S
C580   C581    1.389   .     A
C581   H606    1.082   .     S
C582   O613    1.375   .     S
Cu584  O615    1.961   .     S
Cu584  O610    1.963   .     S
Cu584  Cu585   2.702   .     S
Cu584  O617    1.959   .     S
Cu584  O619    1.941   .     S
Cu584  N608    2.031   .     S
Cu585  O618    1.963   .     S
Cu585  O616    1.941   .     S
Cu585  O614    1.959   .     S
Cu585  N609    2.031   .     S
Cu585  O620    1.961   .     S
H590   O621    0.990   .     S
H591   O611    0.979   .     S
H595   O612    0.977   .     S
H600   O613    0.993   .     S
H602   C1190   1.082   .     S
C622   O679    1.299   .     A
C622   C630    1.446   .     S
C622   O683    1.297   .     A
C623   C625    1.474   .     S
C623   C644    1.421   .     A
C623   C640    1.399   .     A
C624   C630    1.397   .     A
C624   H676    1.084   .     S
C624   C833    1.383   .     S
C625   O684    1.306   .     A
C625   O685    1.302   .     A
C626   H655    1.083   .     S
C626   C627    1.401   .     A
C626   C1038   1.383   1_545 S
C627   C628    1.418   .     A
C627   C636    1.452   .     S
C628   O690    1.380   .     S
C628   C1043   1.387   1_545 S
C629   C630    1.398   .     A
C629   H666    1.084   .     S
C629   C835    1.387   .     S
C631   H670    1.082   .     S
C631   N678    1.358   .     A
C631   C701    1.415   .     S
C632   O680    1.374   .     S
C632   N677    1.388   .     A
C632   C769    1.415   1_455 S
C633   C644    1.420   .     A
C633   C21     1.421   1_556 S
C633   C26     1.437   1_556 S
C634   N677    1.384   .     A
C634   C645    1.515   .     S
C634   C773    1.417   1_455 S
C635   O681    1.375   .     S
C635   N678    1.374   .     A
C635   C703    1.417   .     S
C636   O686    1.297   .     A
C636   O687    1.301   .     A
C637   O689    1.310   .     A
C637   O688    1.307   .     A
C637   C639    1.494   .     S
C638   C652    1.393   .     A
C639   C651    1.424   .     A
C639   C652    1.417   .     A
C640   C641    1.384   .     A
C640   H672    1.083   .     S
C641   H674    1.083   .     S
C641   C21     1.391   1_556 S
C642   H673    1.073   .     S
C643   H656    1.110   .     S
C643   C652    1.507   .     S
C643   H657    1.104   .     S
C643   H727    1.111   .     S
C644   C650    1.404   .     A
C645   H662    1.111   .     S
C645   H661    1.089   .     S
C645   H663    1.111   .     S
C646   H668    1.110   .     S
C646   H667    1.111   .     S
C646   C649    1.513   .     S
C646   H665    1.111   .     S
C647   C651    1.421   .     A
C648   C649    1.411   .     A
C648   C17     1.402   1_556 S
C648   C26     1.425   1_556 S
C649   C650    1.389   .     A
C650   H675    1.082   .     S
C651   O682    1.375   .     S
Cu653  O684    1.961   .     S
Cu653  O679    1.963   .     S
Cu653  Cu654   2.702   .     S
Cu653  O686    1.959   .     S
Cu653  O688    1.941   .     S
Cu653  N677    2.031   .     S
Cu654  O687    1.963   .     S
Cu654  O685    1.941   .     S
Cu654  O683    1.959   .     S
Cu654  N678    2.031   .     S
Cu654  O689    1.961   .     S
H658   C781    1.111   1_455 S
H659   O690    0.990   .     S
H660   O680    0.979   .     S
H664   O681    0.977   .     S
H669   O682    0.993   .     S
H671   C17     1.082   1_556 S
C691   O748    1.299   .     A
C691   C699    1.446   .     S
C691   O752    1.297   .     A
C692   C694    1.474   .     S
C692   C713    1.421   .     A
C692   C709    1.399   .     A
C693   C699    1.397   .     A
C693   H745    1.084   .     S
C693   C902    1.383   .     S
C694   O753    1.306   .     A
C694   O754    1.302   .     A
C695   H724    1.083   .     S
C695   C696    1.401   .     A
C695   C1107   1.383   1_545 S
C696   C697    1.418   .     A
C696   C705    1.452   .     S
C697   O759    1.380   .     S
C697   C1112   1.387   1_545 S
C698   C699    1.398   .     A
C698   H735    1.084   .     S
C698   C904    1.387   .     S
C700   H739    1.082   .     S
C700   N747    1.358   .     A
C700   C770    1.415   .     S
C701   O749    1.374   .     S
C701   N746    1.388   .     A
C702   C713    1.420   .     A
C702   C90     1.421   1_556 S
C702   C95     1.437   1_556 S
C703   N746    1.384   .     A
C703   C714    1.515   .     S
C704   O750    1.375   .     S
C704   N747    1.374   .     A
C704   C772    1.417   .     S
C705   O755    1.297   .     A
C705   O756    1.301   .     A
C706   O758    1.310   .     A
C706   O757    1.307   .     A
C706   C708    1.494   .     S
C707   C721    1.393   .     A
C708   C720    1.424   .     A
C708   C721    1.417   .     A
C709   C710    1.384   .     A
C709   H741    1.083   .     S
C710   H743    1.083   .     S
C710   C90     1.391   1_556 S
C711   H742    1.073   .     S
C712   H725    1.110   .     S
C712   C721    1.507   .     S
C712   H726    1.104   .     S
C712   H796    1.111   .     S
C713   C719    1.404   .     A
C714   H731    1.111   .     S
C714   H730    1.089   .     S
C714   H732    1.111   .     S
C715   H737    1.110   .     S
C715   H736    1.111   .     S
C715   C718    1.513   .     S
C715   H734    1.111   .     S
C716   C720    1.421   .     A
C717   C718    1.411   .     A
C717   C86     1.402   1_556 S
C717   C95     1.425   1_556 S
C718   C719    1.389   .     A
C719   H744    1.082   .     S
C720   O751    1.375   .     S
Cu722  O753    1.961   .     S
Cu722  O748    1.963   .     S
Cu722  Cu723   2.702   .     S
Cu722  O755    1.959   .     S
Cu722  O757    1.941   .     S
Cu722  N746    2.031   .     S
Cu723  O756    1.963   .     S
Cu723  O754    1.941   .     S
Cu723  O752    1.959   .     S
Cu723  N747    2.031   .     S
Cu723  O758    1.961   .     S
H728   O759    0.990   .     S
H729   O749    0.979   .     S
H733   O750    0.977   .     S
H738   O751    0.993   .     S
H740   C86     1.082   1_556 S
C760   O817    1.299   .     A
C760   C768    1.446   .     S
C760   O821    1.297   .     A
C761   C763    1.474   .     S
C761   C782    1.421   .     A
C761   C778    1.399   .     A
C762   C768    1.397   .     A
C762   H814    1.084   .     S
C762   C971    1.383   .     S
C763   O822    1.306   .     A
C763   O823    1.302   .     A
C764   H793    1.083   .     S
C764   C765    1.401   .     A
C764   C1176   1.383   1_545 S
C765   C766    1.418   .     A
C765   C774    1.452   .     S
C766   O828    1.380   .     S
C766   C1181   1.387   1_545 S
C767   C768    1.398   .     A
C767   H804    1.084   .     S
C767   C973    1.387   .     S
C769   H808    1.082   .     S
C769   N816    1.358   .     A
C769   C632    1.415   1_655 S
C770   O818    1.374   .     S
C770   N815    1.388   .     A
C771   C782    1.420   .     A
C771   C159    1.421   1_556 S
C771   C164    1.437   1_556 S
C772   N815    1.384   .     A
C772   C783    1.515   .     S
C773   O819    1.375   .     S
C773   N816    1.374   .     A
C773   C634    1.417   1_655 S
C774   O824    1.297   .     A
C774   O825    1.301   .     A
C775   O827    1.310   .     A
C775   O826    1.307   .     A
C775   C777    1.494   .     S
C776   C790    1.393   .     A
C777   C789    1.424   .     A
C777   C790    1.417   .     A
C778   C779    1.384   .     A
C778   H810    1.083   .     S
C779   H812    1.083   .     S
C779   C159    1.391   1_556 S
C780   H811    1.073   .     S
C781   H794    1.110   .     S
C781   C790    1.507   .     S
C781   H795    1.104   .     S
C781   H658    1.111   1_655 S
C782   C788    1.404   .     A
C783   H800    1.111   .     S
C783   H799    1.089   .     S
C783   H801    1.111   .     S
C784   H806    1.110   .     S
C784   H805    1.111   .     S
C784   C787    1.513   .     S
C784   H803    1.111   .     S
C785   C789    1.421   .     A
C786   C787    1.411   .     A
C786   C155    1.402   1_556 S
C786   C164    1.425   1_556 S
C787   C788    1.389   .     A
C788   H813    1.082   .     S
C789   O820    1.375   .     S
Cu791  O822    1.961   .     S
Cu791  O817    1.963   .     S
Cu791  Cu792   2.702   .     S
Cu791  O824    1.959   .     S
Cu791  O826    1.941   .     S
Cu791  N815    2.031   .     S
Cu792  O825    1.963   .     S
Cu792  O823    1.941   .     S
Cu792  O821    1.959   .     S
Cu792  N816    2.031   .     S
Cu792  O827    1.961   .     S
H797   O828    0.990   .     S
H798   O818    0.979   .     S
H802   O819    0.977   .     S
H807   O820    0.993   .     S
H809   C155    1.082   1_556 S
C829   O886    1.299   .     A
C829   C837    1.446   .     S
C829   O890    1.297   .     A
C830   C832    1.474   .     S
C830   C851    1.421   .     A
C830   C847    1.399   .     A
C831   C837    1.397   .     A
C831   H883    1.084   .     S
C831   C1040   1.383   .     S
C832   O891    1.306   .     A
C832   O892    1.302   .     A
C833   H862    1.083   .     S
C833   C834    1.401   .     A
C834   C835    1.418   .     A
C834   C843    1.452   .     S
C835   O897    1.380   .     S
C836   C837    1.398   .     A
C836   H873    1.084   .     S
C836   C1042   1.387   .     S
C838   H877    1.082   .     S
C838   N885    1.358   .     A
C838   C908    1.415   .     S
C839   O887    1.374   .     S
C839   N884    1.388   .     A
C839   C976    1.415   1_455 S
C840   C851    1.420   .     A
C840   C228    1.421   1_556 S
C840   C233    1.437   1_556 S
C841   N884    1.384   .     A
C841   C852    1.515   .     S
C841   C980    1.417   1_455 S
C842   O888    1.375   .     S
C842   N885    1.374   .     A
C842   C910    1.417   .     S
C843   O893    1.297   .     A
C843   O894    1.301   .     A
C844   O896    1.310   .     A
C844   O895    1.307   .     A
C844   C846    1.494   .     S
C845   C859    1.393   .     A
C846   C858    1.424   .     A
C846   C859    1.417   .     A
C847   C848    1.384   .     A
C847   H879    1.083   .     S
C848   H881    1.083   .     S
C848   C228    1.391   1_556 S
C849   H880    1.073   .     S
C850   H863    1.110   .     S
C850   C859    1.507   .     S
C850   H864    1.104   .     S
C850   H934    1.111   .     S
C851   C857    1.404   .     A
C852   H869    1.111   .     S
C852   H868    1.089   .     S
C852   H870    1.111   .     S
C853   H875    1.110   .     S
C853   H874    1.111   .     S
C853   C856    1.513   .     S
C853   H872    1.111   .     S
C854   C858    1.421   .     A
C855   C856    1.411   .     A
C855   C224    1.402   1_556 S
C855   C233    1.425   1_556 S
C856   C857    1.389   .     A
C857   H882    1.082   .     S
C858   O889    1.375   .     S
Cu860  O891    1.961   .     S
Cu860  O886    1.963   .     S
Cu860  Cu861   2.702   .     S
Cu860  O893    1.959   .     S
Cu860  O895    1.941   .     S
Cu860  N884    2.031   .     S
Cu861  O894    1.963   .     S
Cu861  O892    1.941   .     S
Cu861  O890    1.959   .     S
Cu861  N885    2.031   .     S
Cu861  O896    1.961   .     S
H865   C988    1.111   1_455 S
H866   O897    0.990   .     S
H867   O887    0.979   .     S
H871   O888    0.977   .     S
H876   O889    0.993   .     S
H878   C224    1.082   1_556 S
C898   O955    1.299   .     A
C898   C906    1.446   .     S
C898   O959    1.297   .     A
C899   C901    1.474   .     S
C899   C920    1.421   .     A
C899   C916    1.399   .     A
C900   C906    1.397   .     A
C900   H952    1.084   .     S
C900   C1109   1.383   .     S
C901   O960    1.306   .     A
C901   O961    1.302   .     A
C902   H931    1.083   .     S
C902   C903    1.401   .     A
C903   C904    1.418   .     A
C903   C912    1.452   .     S
C904   O966    1.380   .     S
C905   C906    1.398   .     A
C905   H942    1.084   .     S
C905   C1111   1.387   .     S
C907   H946    1.082   .     S
C907   N954    1.358   .     A
C907   C977    1.415   .     S
C908   O956    1.374   .     S
C908   N953    1.388   .     A
C909   C920    1.420   .     A
C909   C297    1.421   1_556 S
C909   C302    1.437   1_556 S
C910   N953    1.384   .     A
C910   C921    1.515   .     S
C911   O957    1.375   .     S
C911   N954    1.374   .     A
C911   C979    1.417   .     S
C912   O962    1.297   .     A
C912   O963    1.301   .     A
C913   O965    1.310   .     A
C913   O964    1.307   .     A
C913   C915    1.494   .     S
C914   C928    1.393   .     A
C915   C927    1.424   .     A
C915   C928    1.417   .     A
C916   C917    1.384   .     A
C916   H948    1.083   .     S
C917   H950    1.083   .     S
C917   C297    1.391   1_556 S
C918   H949    1.073   .     S
C919   H932    1.110   .     S
C919   C928    1.507   .     S
C919   H933    1.104   .     S
C919   H1003   1.111   .     S
C920   C926    1.404   .     A
C921   H938    1.111   .     S
C921   H937    1.089   .     S
C921   H939    1.111   .     S
C922   H944    1.110   .     S
C922   H943    1.111   .     S
C922   C925    1.513   .     S
C922   H941    1.111   .     S
C923   C927    1.421   .     A
C924   C925    1.411   .     A
C924   C293    1.402   1_556 S
C924   C302    1.425   1_556 S
C925   C926    1.389   .     A
C926   H951    1.082   .     S
C927   O958    1.375   .     S
Cu929  O960    1.961   .     S
Cu929  O955    1.963   .     S
Cu929  Cu930   2.702   .     S
Cu929  O962    1.959   .     S
Cu929  O964    1.941   .     S
Cu929  N953    2.031   .     S
Cu930  O963    1.963   .     S
Cu930  O961    1.941   .     S
Cu930  O959    1.959   .     S
Cu930  N954    2.031   .     S
Cu930  O965    1.961   .     S
H935   O966    0.990   .     S
H936   O956    0.979   .     S
H940   O957    0.977   .     S
H945   O958    0.993   .     S
H947   C293    1.082   1_556 S
C967   O1024   1.299   .     A
C967   C975    1.446   .     S
C967   O1028   1.297   .     A
C968   C970    1.474   .     S
C968   C989    1.421   .     A
C968   C985    1.399   .     A
C969   C975    1.397   .     A
C969   H1021   1.084   .     S
C969   C1178   1.383   .     S
C970   O1029   1.306   .     A
C970   O1030   1.302   .     A
C971   H1000   1.083   .     S
C971   C972    1.401   .     A
C972   C973    1.418   .     A
C972   C981    1.452   .     S
C973   O1035   1.380   .     S
C974   C975    1.398   .     A
C974   H1011   1.084   .     S
C974   C1180   1.387   .     S
C976   H1015   1.082   .     S
C976   N1023   1.358   .     A
C976   C839    1.415   1_655 S
C977   O1025   1.374   .     S
C977   N1022   1.388   .     A
C978   C989    1.420   .     A
C978   C366    1.421   1_556 S
C978   C371    1.437   1_556 S
C979   N1022   1.384   .     A
C979   C990    1.515   .     S
C980   O1026   1.375   .     S
C980   N1023   1.374   .     A
C980   C841    1.417   1_655 S
C981   O1031   1.297   .     A
C981   O1032   1.301   .     A
C982   O1034   1.310   .     A
C982   O1033   1.307   .     A
C982   C984    1.494   .     S
C983   C997    1.393   .     A
C984   C996    1.424   .     A
C984   C997    1.417   .     A
C985   C986    1.384   .     A
C985   H1017   1.083   .     S
C986   H1019   1.083   .     S
C986   C366    1.391   1_556 S
C987   H1018   1.073   .     S
C988   H1001   1.110   .     S
C988   C997    1.507   .     S
C988   H1002   1.104   .     S
C988   H865    1.111   1_655 S
C989   C995    1.404   .     A
C990   H1007   1.111   .     S
C990   H1006   1.089   .     S
C990   H1008   1.111   .     S
C991   H1013   1.110   .     S
C991   H1012   1.111   .     S
C991   C994    1.513   .     S
C991   H1010   1.111   .     S
C992   C996    1.421   .     A
C993   C994    1.411   .     A
C993   C362    1.402   1_556 S
C993   C371    1.425   1_556 S
C994   C995    1.389   .     A
C995   H1020   1.082   .     S
C996   O1027   1.375   .     S
Cu998  O1029   1.961   .     S
Cu998  O1024   1.963   .     S
Cu998  Cu999   2.702   .     S
Cu998  O1031   1.959   .     S
Cu998  O1033   1.941   .     S
Cu998  N1022   2.031   .     S
Cu999  O1032   1.963   .     S
Cu999  O1030   1.941   .     S
Cu999  O1028   1.959   .     S
Cu999  N1023   2.031   .     S
Cu999  O1034   1.961   .     S
H1004  O1035   0.990   .     S
H1005  O1025   0.979   .     S
H1009  O1026   0.977   .     S
H1014  O1027   0.993   .     S
H1016  C362    1.082   1_556 S
C1036  O1093   1.299   .     A
C1036  C1044   1.446   .     S
C1036  O1097   1.297   .     A
C1037  C1039   1.474   .     S
C1037  C1058   1.421   .     A
C1037  C1054   1.399   .     A
C1038  C1044   1.397   .     A
C1038  H1090   1.084   .     S
C1038  C626    1.383   1_565 S
C1039  O1098   1.306   .     A
C1039  O1099   1.302   .     A
C1040  H1069   1.083   .     S
C1040  C1041   1.401   .     A
C1041  C1042   1.418   .     A
C1041  C1050   1.452   .     S
C1042  O1104   1.380   .     S
C1043  C1044   1.398   .     A
C1043  H1080   1.084   .     S
C1043  C628    1.387   1_565 S
C1045  H1084   1.082   .     S
C1045  N1092   1.358   .     A
C1045  C1115   1.415   .     S
C1046  O1094   1.374   .     S
C1046  N1091   1.388   .     A
C1046  C1183   1.415   1_455 S
C1047  C1058   1.420   .     A
C1047  C435    1.421   1_556 S
C1047  C440    1.437   1_556 S
C1048  N1091   1.384   .     A
C1048  C1059   1.515   .     S
C1048  C1187   1.417   1_455 S
C1049  O1095   1.375   .     S
C1049  N1092   1.374   .     A
C1049  C1117   1.417   .     S
C1050  O1100   1.297   .     A
C1050  O1101   1.301   .     A
C1051  O1103   1.310   .     A
C1051  O1102   1.307   .     A
C1051  C1053   1.494   .     S
C1052  C1066   1.393   .     A
C1053  C1065   1.424   .     A
C1053  C1066   1.417   .     A
C1054  C1055   1.384   .     A
C1054  H1086   1.083   .     S
C1055  H1088   1.083   .     S
C1055  C435    1.391   1_556 S
C1056  H1087   1.073   .     S
C1057  H1070   1.110   .     S
C1057  C1066   1.507   .     S
C1057  H1071   1.104   .     S
C1057  H1141   1.111   .     S
C1058  C1064   1.404   .     A
C1059  H1076   1.111   .     S
C1059  H1075   1.089   .     S
C1059  H1077   1.111   .     S
C1060  H1082   1.110   .     S
C1060  H1081   1.111   .     S
C1060  C1063   1.513   .     S
C1060  H1079   1.111   .     S
C1061  C1065   1.421   .     A
C1062  C1063   1.411   .     A
C1062  C431    1.402   1_556 S
C1062  C440    1.425   1_556 S
C1063  C1064   1.389   .     A
C1064  H1089   1.082   .     S
C1065  O1096   1.375   .     S
Cu1067 O1098   1.961   .     S
Cu1067 O1093   1.963   .     S
Cu1067 Cu1068  2.702   .     S
Cu1067 O1100   1.959   .     S
Cu1067 O1102   1.941   .     S
Cu1067 N1091   2.031   .     S
Cu1068 O1101   1.963   .     S
Cu1068 O1099   1.941   .     S
Cu1068 O1097   1.959   .     S
Cu1068 N1092   2.031   .     S
Cu1068 O1103   1.961   .     S
H1072  C1195   1.111   1_455 S
H1073  O1104   0.990   .     S
H1074  O1094   0.979   .     S
H1078  O1095   0.977   .     S
H1083  O1096   0.993   .     S
H1085  C431    1.082   1_556 S
C1105  O1162   1.299   .     A
C1105  C1113   1.446   .     S
C1105  O1166   1.297   .     A
C1106  C1108   1.474   .     S
C1106  C1127   1.421   .     A
C1106  C1123   1.399   .     A
C1107  C1113   1.397   .     A
C1107  H1159   1.084   .     S
C1107  C695    1.383   1_565 S
C1108  O1167   1.306   .     A
C1108  O1168   1.302   .     A
C1109  H1138   1.083   .     S
C1109  C1110   1.401   .     A
C1110  C1111   1.418   .     A
C1110  C1119   1.452   .     S
C1111  O1173   1.380   .     S
C1112  C1113   1.398   .     A
C1112  H1149   1.084   .     S
C1112  C697    1.387   1_565 S
C1114  H1153   1.082   .     S
C1114  N1161   1.358   .     A
C1114  C1184   1.415   .     S
C1115  O1163   1.374   .     S
C1115  N1160   1.388   .     A
C1116  C1127   1.420   .     A
C1116  C504    1.421   1_556 S
C1116  C509    1.437   1_556 S
C1117  N1160   1.384   .     A
C1117  C1128   1.515   .     S
C1118  O1164   1.375   .     S
C1118  N1161   1.374   .     A
C1118  C1186   1.417   .     S
C1119  O1169   1.297   .     A
C1119  O1170   1.301   .     A
C1120  O1172   1.310   .     A
C1120  O1171   1.307   .     A
C1120  C1122   1.494   .     S
C1121  C1135   1.393   .     A
C1122  C1134   1.424   .     A
C1122  C1135   1.417   .     A
C1123  C1124   1.384   .     A
C1123  H1155   1.083   .     S
C1124  H1157   1.083   .     S
C1124  C504    1.391   1_556 S
C1125  H1156   1.073   .     S
C1126  H1139   1.110   .     S
C1126  C1135   1.507   .     S
C1126  H1140   1.104   .     S
C1126  H1210   1.111   .     S
C1127  C1133   1.404   .     A
C1128  H1145   1.111   .     S
C1128  H1144   1.089   .     S
C1128  H1146   1.111   .     S
C1129  H1151   1.110   .     S
C1129  H1150   1.111   .     S
C1129  C1132   1.513   .     S
C1129  H1148   1.111   .     S
C1130  C1134   1.421   .     A
C1131  C1132   1.411   .     A
C1131  C500    1.402   1_556 S
C1131  C509    1.425   1_556 S
C1132  C1133   1.389   .     A
C1133  H1158   1.082   .     S
C1134  O1165   1.375   .     S
Cu1136 O1167   1.961   .     S
Cu1136 O1162   1.963   .     S
Cu1136 Cu1137  2.702   .     S
Cu1136 O1169   1.959   .     S
Cu1136 O1171   1.941   .     S
Cu1136 N1160   2.031   .     S
Cu1137 O1170   1.963   .     S
Cu1137 O1168   1.941   .     S
Cu1137 O1166   1.959   .     S
Cu1137 N1161   2.031   .     S
Cu1137 O1172   1.961   .     S
H1142  O1173   0.990   .     S
H1143  O1163   0.979   .     S
H1147  O1164   0.977   .     S
H1152  O1165   0.993   .     S
H1154  C500    1.082   1_556 S
C1174  O1231   1.299   .     A
C1174  C1182   1.446   .     S
C1174  O1235   1.297   .     A
C1175  C1177   1.474   .     S
C1175  C1196   1.421   .     A
C1175  C1192   1.399   .     A
C1176  C1182   1.397   .     A
C1176  H1228   1.084   .     S
C1176  C764    1.383   1_565 S
C1177  O1236   1.306   .     A
C1177  O1237   1.302   .     A
C1178  H1207   1.083   .     S
C1178  C1179   1.401   .     A
C1179  C1180   1.418   .     A
C1179  C1188   1.452   .     S
C1180  O1242   1.380   .     S
C1181  C1182   1.398   .     A
C1181  H1218   1.084   .     S
C1181  C766    1.387   1_565 S
C1183  H1222   1.082   .     S
C1183  N1230   1.358   .     A
C1183  C1046   1.415   1_655 S
C1184  O1232   1.374   .     S
C1184  N1229   1.388   .     A
C1185  C1196   1.420   .     A
C1185  C573    1.421   1_556 S
C1185  C578    1.437   1_556 S
C1186  N1229   1.384   .     A
C1186  C1197   1.515   .     S
C1187  O1233   1.375   .     S
C1187  N1230   1.374   .     A
C1187  C1048   1.417   1_655 S
C1188  O1238   1.297   .     A
C1188  O1239   1.301   .     A
C1189  O1241   1.310   .     A
C1189  O1240   1.307   .     A
C1189  C1191   1.494   .     S
C1190  C1204   1.393   .     A
C1191  C1203   1.424   .     A
C1191  C1204   1.417   .     A
C1192  C1193   1.384   .     A
C1192  H1224   1.083   .     S
C1193  H1226   1.083   .     S
C1193  C573    1.391   1_556 S
C1194  H1225   1.073   .     S
C1195  H1208   1.110   .     S
C1195  C1204   1.507   .     S
C1195  H1209   1.104   .     S
C1195  H1072   1.111   1_655 S
C1196  C1202   1.404   .     A
C1197  H1214   1.111   .     S
C1197  H1213   1.089   .     S
C1197  H1215   1.111   .     S
C1198  H1220   1.110   .     S
C1198  H1219   1.111   .     S
C1198  C1201   1.513   .     S
C1198  H1217   1.111   .     S
C1199  C1203   1.421   .     A
C1200  C1201   1.411   .     A
C1200  C569    1.402   1_556 S
C1200  C578    1.425   1_556 S
C1201  C1202   1.389   .     A
C1202  H1227   1.082   .     S
C1203  O1234   1.375   .     S
Cu1205 O1236   1.961   .     S
Cu1205 O1231   1.963   .     S
Cu1205 Cu1206  2.702   .     S
Cu1205 O1238   1.959   .     S
Cu1205 O1240   1.941   .     S
Cu1205 N1229   2.031   .     S
Cu1206 O1239   1.963   .     S
Cu1206 O1237   1.941   .     S
Cu1206 O1235   1.959   .     S
Cu1206 N1230   2.031   .     S
Cu1206 O1241   1.961   .     S
H1211  O1242   0.990   .     S
H1212  O1232   0.979   .     S
H1216  O1233   0.977   .     S
H1221  O1234   0.993   .     S
H1223  C569    1.082   1_556 S
