data_str_m2_o1_o1_pcu_sym.26
_audit_creation_date              2020-01-03
_audit_creation_method            'Materials Studio'
_symmetry_space_group_name_H-M    'P1'
_symmetry_Int_Tables_number       1
_symmetry_cell_setting            triclinic
loop_
_symmetry_equiv_pos_as_xyz
  x,y,z
_cell_length_a                    33.1210
_cell_length_b                    29.2512
_cell_length_c                    29.1366
_cell_angle_alpha                 90.3830
_cell_angle_beta                  89.8172
_cell_angle_gamma                 89.9130
loop_
_atom_site_label
_atom_site_type_symbol
_atom_site_fract_x
_atom_site_fract_y
_atom_site_fract_z
_atom_site_U_iso_or_equiv
_atom_site_adp_type
_atom_site_occupancy
C1     C     0.06015   0.19151   0.16661   0.00000  Uiso   1.00
C2     C     0.49802   0.29018   0.30922   0.00000  Uiso   1.00
C3     C     0.00041   0.29027   0.02499   0.00000  Uiso   1.00
C4     C     0.00175   0.20972   0.30836   0.00000  Uiso   1.00
C5     C     0.24793   0.45981   0.02415   0.00000  Uiso   1.00
C6     C     0.24897   0.04019   0.30921   0.00000  Uiso   1.00
C7     C     0.25231   0.04010   0.02484   0.00000  Uiso   1.00
C8     C     0.25095   0.45973   0.30834   0.00000  Uiso   1.00
C9     C     0.38919   0.14122   0.12420   0.00000  Uiso   1.00
C10    C     0.10249   0.36836   0.20577   0.00000  Uiso   1.00
C11    C     0.11237   0.35731   0.12430   0.00000  Uiso   1.00
C12    C     0.44004   0.30885   0.16685   0.00000  Uiso   1.00
C13    C     0.39004   0.13991   0.20751   0.00000  Uiso   1.00
C14    C     0.11441   0.14767   0.20877   0.00000  Uiso   1.00
C15    C     0.38769   0.35746   0.12600   0.00000  Uiso   1.00
C16    C     0.38790   0.35706   0.20927   0.00000  Uiso   1.00
C17    C     0.11219   0.14155   0.12576   0.00000  Uiso   1.00
C18    C     0.13484   0.39809   0.12511   0.00000  Uiso   1.00
C19    C     0.35204   0.11921   0.20485   0.00000  Uiso   1.00
C20    C     0.36673   0.10046   0.12569   0.00000  Uiso   1.00
C21    C     0.14051   0.38919   0.20758   0.00000  Uiso   1.00
C22    C     0.36545   0.39787   0.20800   0.00000  Uiso   1.00
C23    C     0.44047   0.19065   0.16652   0.00000  Uiso   1.00
C24    C     0.15010   0.12059   0.12867   0.00000  Uiso   1.00
C25    C     0.13688   0.10685   0.20893   0.00000  Uiso   1.00
C26    C     0.34980   0.37842   0.12932   0.00000  Uiso   1.00
C27    C     0.09191   0.34468   0.16531   0.00000  Uiso   1.00
C28    C     0.40644   0.15731   0.16605   0.00000  Uiso   1.00
C29    C     0.40508   0.34106   0.16734   0.00000  Uiso   1.00
C30    C     0.09569   0.16026   0.16688   0.00000  Uiso   1.00
C31    C     0.34320   0.09262   0.16561   0.00000  Uiso   1.00
C32    C     0.15510   0.40941   0.16651   0.00000  Uiso   1.00
C33    C     0.15874   0.09530   0.16842   0.00000  Uiso   1.00
C34    C     0.05923   0.30968   0.16636   0.00000  Uiso   1.00
C35    C     0.34208   0.40608   0.16806   0.00000  Uiso   1.00
C36    C     0.49662   0.16376   0.04747   0.00000  Uiso   1.00
C37    C     0.49166   0.33564   0.28630   0.00000  Uiso   1.00
C38    C     0.00455   0.33616   0.04887   0.00000  Uiso   1.00
C39    C     0.00733   0.16415   0.28416   0.00000  Uiso   1.00
C40    C     0.24034   0.41468   0.04727   0.00000  Uiso   1.00
C41    C     0.24222   0.08573   0.28663   0.00000  Uiso   1.00
C42    C     0.26108   0.08495   0.04860   0.00000  Uiso   1.00
C43    C     0.25703   0.41424   0.28431   0.00000  Uiso   1.00
C44    C     0.38622   0.16981   0.08096   0.00000  Uiso   1.00
C45    C     0.30932   0.44063   0.16691   0.00000  Uiso   1.00
C46    C     0.36237   0.21350   0.08978   0.00000  Uiso   1.00
C47    C     0.07110   0.37894   0.24177   0.00000  Uiso   1.00
C48    C     0.07293   0.42725   0.26155   0.00000  Uiso   1.00
C49    C     0.11571   0.32707   0.08195   0.00000  Uiso   1.00
C50    C     0.13766   0.28278   0.09247   0.00000  Uiso   1.00
C51    C     0.41487   0.13707   0.25121   0.00000  Uiso   1.00
C52    C     0.40057   0.10339   0.28794   0.00000  Uiso   1.00
C53    C     0.11939   0.18042   0.24920   0.00000  Uiso   1.00
C54    C     0.14253   0.22306   0.23480   0.00000  Uiso   1.00
C55    C     0.41190   0.36054   0.08190   0.00000  Uiso   1.00
C56    C     0.19093   0.05981   0.16713   0.00000  Uiso   1.00
C57    C     0.39662   0.39373   0.04523   0.00000  Uiso   1.00
C58    C     0.38294   0.32708   0.25133   0.00000  Uiso   1.00
C59    C     0.35640   0.28615   0.24049   0.00000  Uiso   1.00
C60    C     0.08752   0.13728   0.08225   0.00000  Uiso   1.00
C61    C     0.10246   0.10288   0.04596   0.00000  Uiso   1.00
C62    C     0.12876   0.43194   0.08622   0.00000  Uiso   1.00
C63    C     0.10659   0.47463   0.10325   0.00000  Uiso   1.00
C64    C     0.31972   0.13088   0.23929   0.00000  Uiso   1.00
C65    C     0.32079   0.17999   0.25716   0.00000  Uiso   1.00
C66    C     0.37328   0.06500   0.08792   0.00000  Uiso   1.00
C67    C     0.19010   0.44124   0.16664   0.00000  Uiso   1.00
C68    C     0.39337   0.02205   0.10668   0.00000  Uiso   1.00
C69    C     0.16675   0.38455   0.24993   0.00000  Uiso   1.00
C70    C     0.15320   0.34979   0.28597   0.00000  Uiso   1.00
C71    C     0.37086   0.43216   0.24697   0.00000  Uiso   1.00
C72    C     0.39076   0.47595   0.23006   0.00000  Uiso   1.00
C73    C     0.18303   0.13191   0.09484   0.00000  Uiso   1.00
C74    C     0.18155   0.18046   0.07619   0.00000  Uiso   1.00
C75    C     0.13243   0.07568   0.25001   0.00000  Uiso   1.00
C76    C     0.11064   0.03188   0.23722   0.00000  Uiso   1.00
C77    C     0.31654   0.36606   0.09638   0.00000  Uiso   1.00
C78    C     0.30961   0.05904   0.16643   0.00000  Uiso   1.00
C79    C     0.31773   0.31673   0.07902   0.00000  Uiso   1.00
C80    C     0.49969   0.20969   0.02427   0.00000  Uiso   1.00
Cu81   Cu    0.00000   0.25000   0.21355   0.00000  Uiso   1.00
Cu82   Cu   -0.00000   0.25000   0.11978   0.00000  Uiso   1.00
Cu83   Cu    0.25000   0.00000   0.21355   0.00000  Uiso   1.00
Cu84   Cu    0.25000   0.00000   0.11978   0.00000  Uiso   1.00
H85    H     0.49914   0.16438   0.08465   0.00000  Uiso   1.00
H86    H     0.00153   0.16452   0.24752   0.00000  Uiso   1.00
H87    H     0.34413   0.31072   0.05640   0.00000  Uiso   1.00
H88    H     0.31854   0.29307   0.10863   0.00000  Uiso   1.00
H89    H     0.29010   0.30944   0.05877   0.00000  Uiso   1.00
H90    H     0.28749   0.36872   0.11517   0.00000  Uiso   1.00
H91    H     0.31739   0.39021   0.06745   0.00000  Uiso   1.00
H92    H     0.03816   0.15084   0.29012   0.00000  Uiso   1.00
H93    H     0.48623   0.13839   0.29765   0.00000  Uiso   1.00
H94    H     0.24681   0.41561   0.08355   0.00000  Uiso   1.00
H95    H     0.20885   0.40355   0.04142   0.00000  Uiso   1.00
H96    H     0.25988   0.38727   0.03346   0.00000  Uiso   1.00
H97    H     0.24565   0.08485   0.24978   0.00000  Uiso   1.00
H98    H     0.21227   0.09959   0.29616   0.00000  Uiso   1.00
H99    H     0.26391   0.11139   0.29889   0.00000  Uiso   1.00
H100   H     0.25379   0.08428   0.08466   0.00000  Uiso   1.00
H101   H     0.46799   0.14668   0.03836   0.00000  Uiso   1.00
H102   H     0.29302   0.09468   0.04335   0.00000  Uiso   1.00
H103   H     0.24259   0.11333   0.03550   0.00000  Uiso   1.00
H104   H     0.25179   0.41460   0.24757   0.00000  Uiso   1.00
H105   H     0.28787   0.40122   0.29099   0.00000  Uiso   1.00
H106   H     0.23562   0.38849   0.29715   0.00000  Uiso   1.00
H107   H     0.33205   0.20531   0.10393   0.00000  Uiso   1.00
H108   H     0.37851   0.23638   0.11409   0.00000  Uiso   1.00
H109   H     0.35849   0.23162   0.05675   0.00000  Uiso   1.00
H110   H     0.41571   0.17854   0.06643   0.00000  Uiso   1.00
H111   H     0.36987   0.15098   0.05354   0.00000  Uiso   1.00
H112   H     0.02063   0.14096   0.03461   0.00000  Uiso   1.00
H113   H     0.10092   0.43304   0.28135   0.00000  Uiso   1.00
H114   H     0.07063   0.45198   0.23301   0.00000  Uiso   1.00
H115   H     0.04700   0.43307   0.28510   0.00000  Uiso   1.00
H116   H     0.04147   0.37814   0.22446   0.00000  Uiso   1.00
H117   H     0.07267   0.35302   0.26919   0.00000  Uiso   1.00
H118   H     0.16784   0.29015   0.10730   0.00000  Uiso   1.00
H119   H     0.12012   0.26142   0.11671   0.00000  Uiso   1.00
H120   H     0.14172   0.26356   0.05987   0.00000  Uiso   1.00
H121   H     0.08634   0.31932   0.06651   0.00000  Uiso   1.00
H122   H     0.13372   0.34420   0.05490   0.00000  Uiso   1.00
H123   H     0.49603   0.33456   0.24960   0.00000  Uiso   1.00
H124   H     0.37707   0.11911   0.31010   0.00000  Uiso   1.00
H125   H     0.38902   0.07151   0.27214   0.00000  Uiso   1.00
H126   H     0.42615   0.09426   0.31064   0.00000  Uiso   1.00
H127   H     0.44458   0.12389   0.23976   0.00000  Uiso   1.00
H128   H     0.41804   0.17127   0.26751   0.00000  Uiso   1.00
H129   H     0.17040   0.21347   0.21567   0.00000  Uiso   1.00
H130   H     0.12350   0.24529   0.21295   0.00000  Uiso   1.00
H131   H     0.15153   0.24233   0.26600   0.00000  Uiso   1.00
H132   H     0.09056   0.19033   0.26536   0.00000  Uiso   1.00
H133   H     0.13746   0.16434   0.27683   0.00000  Uiso   1.00
H134   H     0.46141   0.34943   0.29447   0.00000  Uiso   1.00
H135   H     0.37282   0.37763   0.02401   0.00000  Uiso   1.00
H136   H     0.38517   0.42584   0.06094   0.00000  Uiso   1.00
H137   H     0.42168   0.40272   0.02161   0.00000  Uiso   1.00
H138   H     0.44131   0.37459   0.09298   0.00000  Uiso   1.00
H139   H     0.41560   0.32625   0.06588   0.00000  Uiso   1.00
H140   H     0.32729   0.29741   0.22541   0.00000  Uiso   1.00
H141   H     0.37200   0.26255   0.21620   0.00000  Uiso   1.00
H142   H     0.35002   0.26786   0.27293   0.00000  Uiso   1.00
H143   H     0.41153   0.31467   0.26536   0.00000  Uiso   1.00
H144   H     0.36780   0.34604   0.27967   0.00000  Uiso   1.00
H145   H     0.01294   0.36142   0.29935   0.00000  Uiso   1.00
H146   H     0.12611   0.11826   0.02401   0.00000  Uiso   1.00
H147   H     0.11404   0.07131   0.06211   0.00000  Uiso   1.00
H148   H     0.07720   0.09307   0.02300   0.00000  Uiso   1.00
H149   H     0.05796   0.12397   0.09390   0.00000  Uiso   1.00
H150   H     0.08406   0.17115   0.06576   0.00000  Uiso   1.00
H151   H     0.07904   0.46502   0.12278   0.00000  Uiso   1.00
H152   H     0.12643   0.49568   0.12553   0.00000  Uiso   1.00
H153   H     0.09724   0.49534   0.07337   0.00000  Uiso   1.00
H154   H     0.15718   0.44187   0.06934   0.00000  Uiso   1.00
H155   H     0.10968   0.41676   0.05878   0.00000  Uiso   1.00
H156   H     0.00135   0.33588   0.08597   0.00000  Uiso   1.00
H157   H     0.34810   0.18659   0.27793   0.00000  Uiso   1.00
H158   H     0.31950   0.20374   0.22768   0.00000  Uiso   1.00
H159   H     0.29407   0.18652   0.27936   0.00000  Uiso   1.00
H160   H     0.29033   0.12862   0.22153   0.00000  Uiso   1.00
H161   H     0.32155   0.10617   0.26768   0.00000  Uiso   1.00
H162   H     0.41974   0.03117   0.12834   0.00000  Uiso   1.00
H163   H     0.37161   0.00188   0.12718   0.00000  Uiso   1.00
H164   H     0.40422   0.00056   0.07766   0.00000  Uiso   1.00
H165   H     0.34515   0.05579   0.07000   0.00000  Uiso   1.00
H166   H     0.39396   0.07854   0.06118   0.00000  Uiso   1.00
H167   H     0.03379   0.35207   0.04008   0.00000  Uiso   1.00
H168   H     0.13034   0.36504   0.30929   0.00000  Uiso   1.00
H169   H     0.14098   0.31863   0.26945   0.00000  Uiso   1.00
H170   H     0.17924   0.33960   0.30751   0.00000  Uiso   1.00
H171   H     0.19615   0.37173   0.23692   0.00000  Uiso   1.00
H172   H     0.17036   0.41815   0.26732   0.00000  Uiso   1.00
H173   H     0.41715   0.46791   0.20777   0.00000  Uiso   1.00
H174   H     0.36894   0.49712   0.21078   0.00000  Uiso   1.00
H175   H     0.40163   0.49588   0.26002   0.00000  Uiso   1.00
H176   H     0.34230   0.44008   0.26495   0.00000  Uiso   1.00
H177   H     0.39139   0.41804   0.27345   0.00000  Uiso   1.00
H178   H     0.48141   0.36004   0.03644   0.00000  Uiso   1.00
H179   H     0.15492   0.18556   0.05400   0.00000  Uiso   1.00
H180   H     0.18116   0.20509   0.10529   0.00000  Uiso   1.00
H181   H     0.20892   0.18707   0.05518   0.00000  Uiso   1.00
H182   H     0.21199   0.13069   0.11365   0.00000  Uiso   1.00
H183   H     0.18258   0.10656   0.06653   0.00000  Uiso   1.00
H184   H     0.08124   0.03966   0.22073   0.00000  Uiso   1.00
H185   H     0.12920   0.01037   0.21378   0.00000  Uiso   1.00
H186   H     0.10497   0.01277   0.26929   0.00000  Uiso   1.00
H187   H     0.16137   0.06720   0.26600   0.00000  Uiso   1.00
H188   H     0.11385   0.09227   0.27718   0.00000  Uiso   1.00
N189   N     0.00000   0.25000   0.28402   0.00000  Uiso   1.00
N190   N    -0.00000   0.25000   0.04931   0.00000  Uiso   1.00
N191   N     0.25000   0.00000   0.28402   0.00000  Uiso   1.00
N192   N     0.25000   0.00000   0.04931   0.00000  Uiso   1.00
O193   O     0.04508   0.20491   0.20625   0.00000  Uiso   1.00
O194   O     0.20491   0.04509   0.12709   0.00000  Uiso   1.00
O195   O     0.20491   0.04509   0.20625   0.00000  Uiso   1.00
O196   O     0.29508   0.45491   0.12709   0.00000  Uiso   1.00
O197   O     0.20491   0.45491   0.12709   0.00000  Uiso   1.00
O198   O     0.29508   0.04509   0.20625   0.00000  Uiso   1.00
O199   O     0.29508   0.04509   0.12709   0.00000  Uiso   1.00
O200   O     0.20491   0.45491   0.20625   0.00000  Uiso   1.00
O201   O     0.45491   0.29509   0.12709   0.00000  Uiso   1.00
O202   O     0.45491   0.29509   0.20625   0.00000  Uiso   1.00
O203   O     0.04508   0.20491   0.12709   0.00000  Uiso   1.00
O204   O     0.45491   0.20491   0.12709   0.00000  Uiso   1.00
O205   O     0.04508   0.29509   0.20625   0.00000  Uiso   1.00
O206   O     0.04508   0.29509   0.12709   0.00000  Uiso   1.00
O207   O     0.45491   0.20491   0.20625   0.00000  Uiso   1.00
O208   O     0.29508   0.45491   0.20625   0.00000  Uiso   1.00
C209   C     0.56015   0.19151   0.16661   0.00000  Uiso   1.00
C210   C     0.99802   0.29018   0.30922   0.00000  Uiso   1.00
C211   C     0.50041   0.29027   0.02499   0.00000  Uiso   1.00
C212   C     0.50175   0.20972   0.30836   0.00000  Uiso   1.00
C213   C     0.74793   0.45981   0.02415   0.00000  Uiso   1.00
C214   C     0.74897   0.04019   0.30921   0.00000  Uiso   1.00
C215   C     0.75231   0.04010   0.02484   0.00000  Uiso   1.00
C216   C     0.75095   0.45973   0.30834   0.00000  Uiso   1.00
C217   C     0.88919   0.14122   0.12420   0.00000  Uiso   1.00
C218   C     0.60249   0.36836   0.20577   0.00000  Uiso   1.00
C219   C     0.61237   0.35731   0.12430   0.00000  Uiso   1.00
C220   C     0.94004   0.30885   0.16685   0.00000  Uiso   1.00
C221   C     0.89004   0.13991   0.20751   0.00000  Uiso   1.00
C222   C     0.61441   0.14767   0.20877   0.00000  Uiso   1.00
C223   C     0.88769   0.35746   0.12600   0.00000  Uiso   1.00
C224   C     0.88790   0.35706   0.20927   0.00000  Uiso   1.00
C225   C     0.61219   0.14155   0.12576   0.00000  Uiso   1.00
C226   C     0.63484   0.39809   0.12511   0.00000  Uiso   1.00
C227   C     0.85204   0.11921   0.20485   0.00000  Uiso   1.00
C228   C     0.86673   0.10046   0.12569   0.00000  Uiso   1.00
C229   C     0.64051   0.38919   0.20758   0.00000  Uiso   1.00
C230   C     0.86545   0.39787   0.20800   0.00000  Uiso   1.00
C231   C     0.94047   0.19065   0.16652   0.00000  Uiso   1.00
C232   C     0.65010   0.12059   0.12867   0.00000  Uiso   1.00
C233   C     0.63688   0.10685   0.20893   0.00000  Uiso   1.00
C234   C     0.84980   0.37842   0.12932   0.00000  Uiso   1.00
C235   C     0.59191   0.34468   0.16531   0.00000  Uiso   1.00
C236   C     0.90644   0.15731   0.16605   0.00000  Uiso   1.00
C237   C     0.90508   0.34106   0.16734   0.00000  Uiso   1.00
C238   C     0.59569   0.16026   0.16688   0.00000  Uiso   1.00
C239   C     0.84320   0.09262   0.16561   0.00000  Uiso   1.00
C240   C     0.65510   0.40941   0.16651   0.00000  Uiso   1.00
C241   C     0.65874   0.09530   0.16842   0.00000  Uiso   1.00
C242   C     0.55923   0.30968   0.16636   0.00000  Uiso   1.00
C243   C     0.84208   0.40608   0.16806   0.00000  Uiso   1.00
C244   C     0.99662   0.16376   0.04747   0.00000  Uiso   1.00
C245   C     0.99166   0.33564   0.28630   0.00000  Uiso   1.00
C246   C     0.50455   0.33616   0.04887   0.00000  Uiso   1.00
C247   C     0.50733   0.16415   0.28416   0.00000  Uiso   1.00
C248   C     0.74034   0.41468   0.04727   0.00000  Uiso   1.00
C249   C     0.74222   0.08573   0.28663   0.00000  Uiso   1.00
C250   C     0.76108   0.08495   0.04860   0.00000  Uiso   1.00
C251   C     0.75703   0.41424   0.28431   0.00000  Uiso   1.00
C252   C     0.88622   0.16981   0.08096   0.00000  Uiso   1.00
C253   C     0.80932   0.44063   0.16691   0.00000  Uiso   1.00
C254   C     0.86237   0.21350   0.08978   0.00000  Uiso   1.00
C255   C     0.57110   0.37894   0.24177   0.00000  Uiso   1.00
C256   C     0.57293   0.42725   0.26155   0.00000  Uiso   1.00
C257   C     0.61571   0.32707   0.08195   0.00000  Uiso   1.00
C258   C     0.63766   0.28278   0.09247   0.00000  Uiso   1.00
C259   C     0.91487   0.13707   0.25121   0.00000  Uiso   1.00
C260   C     0.90057   0.10339   0.28794   0.00000  Uiso   1.00
C261   C     0.61939   0.18042   0.24920   0.00000  Uiso   1.00
C262   C     0.64253   0.22306   0.23480   0.00000  Uiso   1.00
C263   C     0.91190   0.36054   0.08190   0.00000  Uiso   1.00
C264   C     0.69093   0.05981   0.16713   0.00000  Uiso   1.00
C265   C     0.89662   0.39373   0.04523   0.00000  Uiso   1.00
C266   C     0.88294   0.32708   0.25133   0.00000  Uiso   1.00
C267   C     0.85640   0.28615   0.24049   0.00000  Uiso   1.00
C268   C     0.58752   0.13728   0.08225   0.00000  Uiso   1.00
C269   C     0.60246   0.10288   0.04596   0.00000  Uiso   1.00
C270   C     0.62876   0.43194   0.08622   0.00000  Uiso   1.00
C271   C     0.60659   0.47463   0.10325   0.00000  Uiso   1.00
C272   C     0.81972   0.13088   0.23929   0.00000  Uiso   1.00
C273   C     0.82079   0.17999   0.25716   0.00000  Uiso   1.00
C274   C     0.87328   0.06500   0.08792   0.00000  Uiso   1.00
C275   C     0.69010   0.44124   0.16664   0.00000  Uiso   1.00
C276   C     0.89337   0.02205   0.10668   0.00000  Uiso   1.00
C277   C     0.66675   0.38455   0.24993   0.00000  Uiso   1.00
C278   C     0.65320   0.34979   0.28597   0.00000  Uiso   1.00
C279   C     0.87086   0.43216   0.24697   0.00000  Uiso   1.00
C280   C     0.89076   0.47595   0.23006   0.00000  Uiso   1.00
C281   C     0.68303   0.13191   0.09484   0.00000  Uiso   1.00
C282   C     0.68155   0.18046   0.07619   0.00000  Uiso   1.00
C283   C     0.63243   0.07568   0.25001   0.00000  Uiso   1.00
C284   C     0.61064   0.03188   0.23722   0.00000  Uiso   1.00
C285   C     0.81654   0.36606   0.09638   0.00000  Uiso   1.00
C286   C     0.80961   0.05904   0.16643   0.00000  Uiso   1.00
C287   C     0.81773   0.31673   0.07902   0.00000  Uiso   1.00
C288   C     0.99969   0.20969   0.02427   0.00000  Uiso   1.00
Cu289  Cu    0.50000   0.25000   0.21355   0.00000  Uiso   1.00
Cu290  Cu    0.50000   0.25000   0.11978   0.00000  Uiso   1.00
Cu291  Cu    0.75000   0.00000   0.21355   0.00000  Uiso   1.00
Cu292  Cu    0.75000   0.00000   0.11978   0.00000  Uiso   1.00
H293   H     0.99914   0.16438   0.08465   0.00000  Uiso   1.00
H294   H     0.50153   0.16452   0.24752   0.00000  Uiso   1.00
H295   H     0.84413   0.31072   0.05640   0.00000  Uiso   1.00
H296   H     0.81854   0.29307   0.10863   0.00000  Uiso   1.00
H297   H     0.79010   0.30944   0.05877   0.00000  Uiso   1.00
H298   H     0.78749   0.36872   0.11517   0.00000  Uiso   1.00
H299   H     0.81739   0.39021   0.06745   0.00000  Uiso   1.00
H300   H     0.53816   0.15084   0.29012   0.00000  Uiso   1.00
H301   H     0.98623   0.13839   0.29765   0.00000  Uiso   1.00
H302   H     0.74681   0.41561   0.08355   0.00000  Uiso   1.00
H303   H     0.70885   0.40355   0.04142   0.00000  Uiso   1.00
H304   H     0.75988   0.38727   0.03346   0.00000  Uiso   1.00
H305   H     0.74565   0.08485   0.24978   0.00000  Uiso   1.00
H306   H     0.71227   0.09959   0.29616   0.00000  Uiso   1.00
H307   H     0.76391   0.11139   0.29889   0.00000  Uiso   1.00
H308   H     0.75379   0.08428   0.08466   0.00000  Uiso   1.00
H309   H     0.96799   0.14668   0.03836   0.00000  Uiso   1.00
H310   H     0.79302   0.09468   0.04335   0.00000  Uiso   1.00
H311   H     0.74259   0.11333   0.03550   0.00000  Uiso   1.00
H312   H     0.75179   0.41460   0.24757   0.00000  Uiso   1.00
H313   H     0.78787   0.40122   0.29099   0.00000  Uiso   1.00
H314   H     0.73562   0.38849   0.29715   0.00000  Uiso   1.00
H315   H     0.83205   0.20531   0.10393   0.00000  Uiso   1.00
H316   H     0.87851   0.23638   0.11409   0.00000  Uiso   1.00
H317   H     0.85849   0.23162   0.05675   0.00000  Uiso   1.00
H318   H     0.91571   0.17854   0.06643   0.00000  Uiso   1.00
H319   H     0.86987   0.15098   0.05354   0.00000  Uiso   1.00
H320   H     0.52063   0.14096   0.03461   0.00000  Uiso   1.00
H321   H     0.60092   0.43304   0.28135   0.00000  Uiso   1.00
H322   H     0.57063   0.45198   0.23301   0.00000  Uiso   1.00
H323   H     0.54700   0.43307   0.28510   0.00000  Uiso   1.00
H324   H     0.54147   0.37814   0.22446   0.00000  Uiso   1.00
H325   H     0.57267   0.35302   0.26919   0.00000  Uiso   1.00
H326   H     0.66784   0.29015   0.10730   0.00000  Uiso   1.00
H327   H     0.62012   0.26142   0.11671   0.00000  Uiso   1.00
H328   H     0.64172   0.26356   0.05987   0.00000  Uiso   1.00
H329   H     0.58634   0.31932   0.06651   0.00000  Uiso   1.00
H330   H     0.63372   0.34420   0.05490   0.00000  Uiso   1.00
H331   H     0.99603   0.33456   0.24960   0.00000  Uiso   1.00
H332   H     0.87707   0.11911   0.31010   0.00000  Uiso   1.00
H333   H     0.88902   0.07151   0.27214   0.00000  Uiso   1.00
H334   H     0.92615   0.09426   0.31064   0.00000  Uiso   1.00
H335   H     0.94458   0.12389   0.23976   0.00000  Uiso   1.00
H336   H     0.91804   0.17127   0.26751   0.00000  Uiso   1.00
H337   H     0.67040   0.21347   0.21567   0.00000  Uiso   1.00
H338   H     0.62350   0.24529   0.21295   0.00000  Uiso   1.00
H339   H     0.65153   0.24233   0.26600   0.00000  Uiso   1.00
H340   H     0.59056   0.19033   0.26536   0.00000  Uiso   1.00
H341   H     0.63746   0.16434   0.27683   0.00000  Uiso   1.00
H342   H     0.96141   0.34943   0.29447   0.00000  Uiso   1.00
H343   H     0.87282   0.37763   0.02401   0.00000  Uiso   1.00
H344   H     0.88517   0.42584   0.06094   0.00000  Uiso   1.00
H345   H     0.92168   0.40272   0.02161   0.00000  Uiso   1.00
H346   H     0.94131   0.37459   0.09298   0.00000  Uiso   1.00
H347   H     0.91560   0.32625   0.06588   0.00000  Uiso   1.00
H348   H     0.82729   0.29741   0.22541   0.00000  Uiso   1.00
H349   H     0.87200   0.26255   0.21620   0.00000  Uiso   1.00
H350   H     0.85002   0.26786   0.27293   0.00000  Uiso   1.00
H351   H     0.91153   0.31467   0.26536   0.00000  Uiso   1.00
H352   H     0.86780   0.34604   0.27967   0.00000  Uiso   1.00
H353   H     0.51294   0.36142   0.29935   0.00000  Uiso   1.00
H354   H     0.62611   0.11826   0.02401   0.00000  Uiso   1.00
H355   H     0.61404   0.07131   0.06211   0.00000  Uiso   1.00
H356   H     0.57720   0.09307   0.02300   0.00000  Uiso   1.00
H357   H     0.55796   0.12397   0.09390   0.00000  Uiso   1.00
H358   H     0.58406   0.17115   0.06576   0.00000  Uiso   1.00
H359   H     0.57904   0.46502   0.12278   0.00000  Uiso   1.00
H360   H     0.62643   0.49568   0.12553   0.00000  Uiso   1.00
H361   H     0.59724   0.49534   0.07337   0.00000  Uiso   1.00
H362   H     0.65718   0.44187   0.06934   0.00000  Uiso   1.00
H363   H     0.60968   0.41676   0.05878   0.00000  Uiso   1.00
H364   H     0.50135   0.33588   0.08597   0.00000  Uiso   1.00
H365   H     0.84810   0.18659   0.27793   0.00000  Uiso   1.00
H366   H     0.81950   0.20374   0.22768   0.00000  Uiso   1.00
H367   H     0.79407   0.18652   0.27936   0.00000  Uiso   1.00
H368   H     0.79033   0.12862   0.22153   0.00000  Uiso   1.00
H369   H     0.82155   0.10617   0.26768   0.00000  Uiso   1.00
H370   H     0.91974   0.03117   0.12834   0.00000  Uiso   1.00
H371   H     0.87161   0.00188   0.12718   0.00000  Uiso   1.00
H372   H     0.90422   0.00056   0.07766   0.00000  Uiso   1.00
H373   H     0.84515   0.05579   0.07000   0.00000  Uiso   1.00
H374   H     0.89396   0.07854   0.06118   0.00000  Uiso   1.00
H375   H     0.53379   0.35207   0.04008   0.00000  Uiso   1.00
H376   H     0.63034   0.36504   0.30929   0.00000  Uiso   1.00
H377   H     0.64098   0.31863   0.26945   0.00000  Uiso   1.00
H378   H     0.67924   0.33960   0.30751   0.00000  Uiso   1.00
H379   H     0.69615   0.37173   0.23692   0.00000  Uiso   1.00
H380   H     0.67036   0.41815   0.26732   0.00000  Uiso   1.00
H381   H     0.91715   0.46791   0.20777   0.00000  Uiso   1.00
H382   H     0.86894   0.49712   0.21078   0.00000  Uiso   1.00
H383   H     0.90163   0.49588   0.26002   0.00000  Uiso   1.00
H384   H     0.84230   0.44008   0.26495   0.00000  Uiso   1.00
H385   H     0.89139   0.41804   0.27345   0.00000  Uiso   1.00
H386   H     0.98141   0.36004   0.03644   0.00000  Uiso   1.00
H387   H     0.65492   0.18556   0.05400   0.00000  Uiso   1.00
H388   H     0.68116   0.20509   0.10529   0.00000  Uiso   1.00
H389   H     0.70892   0.18707   0.05518   0.00000  Uiso   1.00
H390   H     0.71199   0.13069   0.11365   0.00000  Uiso   1.00
H391   H     0.68258   0.10656   0.06653   0.00000  Uiso   1.00
H392   H     0.58124   0.03966   0.22073   0.00000  Uiso   1.00
H393   H     0.62920   0.01037   0.21378   0.00000  Uiso   1.00
H394   H     0.60497   0.01277   0.26929   0.00000  Uiso   1.00
H395   H     0.66137   0.06720   0.26600   0.00000  Uiso   1.00
H396   H     0.61385   0.09227   0.27718   0.00000  Uiso   1.00
N397   N     0.50000   0.25000   0.28402   0.00000  Uiso   1.00
N398   N     0.50000   0.25000   0.04931   0.00000  Uiso   1.00
N399   N     0.75000   0.00000   0.28402   0.00000  Uiso   1.00
N400   N     0.75000   0.00000   0.04931   0.00000  Uiso   1.00
O401   O     0.54508   0.20491   0.20625   0.00000  Uiso   1.00
O402   O     0.70491   0.04509   0.12709   0.00000  Uiso   1.00
O403   O     0.70491   0.04509   0.20625   0.00000  Uiso   1.00
O404   O     0.79508   0.45491   0.12709   0.00000  Uiso   1.00
O405   O     0.70491   0.45491   0.12709   0.00000  Uiso   1.00
O406   O     0.79508   0.04509   0.20625   0.00000  Uiso   1.00
O407   O     0.79508   0.04509   0.12709   0.00000  Uiso   1.00
O408   O     0.70491   0.45491   0.20625   0.00000  Uiso   1.00
O409   O     0.95491   0.29509   0.12709   0.00000  Uiso   1.00
O410   O     0.95491   0.29509   0.20625   0.00000  Uiso   1.00
O411   O     0.54508   0.20491   0.12709   0.00000  Uiso   1.00
O412   O     0.95491   0.20491   0.12709   0.00000  Uiso   1.00
O413   O     0.54508   0.29509   0.20625   0.00000  Uiso   1.00
O414   O     0.54508   0.29509   0.12709   0.00000  Uiso   1.00
O415   O     0.95491   0.20491   0.20625   0.00000  Uiso   1.00
O416   O     0.79508   0.45491   0.20625   0.00000  Uiso   1.00
C417   C     0.06015   0.69151   0.16661   0.00000  Uiso   1.00
C418   C     0.49802   0.79018   0.30922   0.00000  Uiso   1.00
C419   C     0.00041   0.79027   0.02499   0.00000  Uiso   1.00
C420   C     0.00175   0.70972   0.30836   0.00000  Uiso   1.00
C421   C     0.24793   0.95981   0.02415   0.00000  Uiso   1.00
C422   C     0.24897   0.54019   0.30921   0.00000  Uiso   1.00
C423   C     0.25231   0.54010   0.02484   0.00000  Uiso   1.00
C424   C     0.25095   0.95973   0.30834   0.00000  Uiso   1.00
C425   C     0.38919   0.64122   0.12420   0.00000  Uiso   1.00
C426   C     0.10249   0.86836   0.20577   0.00000  Uiso   1.00
C427   C     0.11237   0.85731   0.12430   0.00000  Uiso   1.00
C428   C     0.44004   0.80885   0.16685   0.00000  Uiso   1.00
C429   C     0.39004   0.63991   0.20751   0.00000  Uiso   1.00
C430   C     0.11441   0.64767   0.20877   0.00000  Uiso   1.00
C431   C     0.38769   0.85746   0.12600   0.00000  Uiso   1.00
C432   C     0.38790   0.85706   0.20927   0.00000  Uiso   1.00
C433   C     0.11219   0.64155   0.12576   0.00000  Uiso   1.00
C434   C     0.13484   0.89809   0.12511   0.00000  Uiso   1.00
C435   C     0.35204   0.61921   0.20485   0.00000  Uiso   1.00
C436   C     0.36673   0.60046   0.12569   0.00000  Uiso   1.00
C437   C     0.14051   0.88919   0.20758   0.00000  Uiso   1.00
C438   C     0.36545   0.89787   0.20800   0.00000  Uiso   1.00
C439   C     0.44047   0.69065   0.16652   0.00000  Uiso   1.00
C440   C     0.15010   0.62059   0.12867   0.00000  Uiso   1.00
C441   C     0.13688   0.60685   0.20893   0.00000  Uiso   1.00
C442   C     0.34980   0.87842   0.12932   0.00000  Uiso   1.00
C443   C     0.09191   0.84468   0.16531   0.00000  Uiso   1.00
C444   C     0.40644   0.65731   0.16605   0.00000  Uiso   1.00
C445   C     0.40508   0.84106   0.16734   0.00000  Uiso   1.00
C446   C     0.09569   0.66026   0.16688   0.00000  Uiso   1.00
C447   C     0.34320   0.59262   0.16561   0.00000  Uiso   1.00
C448   C     0.15510   0.90941   0.16651   0.00000  Uiso   1.00
C449   C     0.15874   0.59530   0.16842   0.00000  Uiso   1.00
C450   C     0.05923   0.80968   0.16636   0.00000  Uiso   1.00
C451   C     0.34208   0.90608   0.16806   0.00000  Uiso   1.00
C452   C     0.49662   0.66376   0.04747   0.00000  Uiso   1.00
C453   C     0.49166   0.83564   0.28630   0.00000  Uiso   1.00
C454   C     0.00455   0.83616   0.04887   0.00000  Uiso   1.00
C455   C     0.00733   0.66415   0.28416   0.00000  Uiso   1.00
C456   C     0.24034   0.91468   0.04727   0.00000  Uiso   1.00
C457   C     0.24222   0.58573   0.28663   0.00000  Uiso   1.00
C458   C     0.26108   0.58495   0.04860   0.00000  Uiso   1.00
C459   C     0.25703   0.91424   0.28431   0.00000  Uiso   1.00
C460   C     0.38622   0.66981   0.08096   0.00000  Uiso   1.00
C461   C     0.30932   0.94063   0.16691   0.00000  Uiso   1.00
C462   C     0.36237   0.71350   0.08978   0.00000  Uiso   1.00
C463   C     0.07110   0.87894   0.24177   0.00000  Uiso   1.00
C464   C     0.07293   0.92725   0.26155   0.00000  Uiso   1.00
C465   C     0.11571   0.82707   0.08195   0.00000  Uiso   1.00
C466   C     0.13766   0.78278   0.09247   0.00000  Uiso   1.00
C467   C     0.41487   0.63707   0.25121   0.00000  Uiso   1.00
C468   C     0.40057   0.60339   0.28794   0.00000  Uiso   1.00
C469   C     0.11939   0.68042   0.24920   0.00000  Uiso   1.00
C470   C     0.14253   0.72306   0.23480   0.00000  Uiso   1.00
C471   C     0.41190   0.86054   0.08190   0.00000  Uiso   1.00
C472   C     0.19093   0.55981   0.16713   0.00000  Uiso   1.00
C473   C     0.39662   0.89373   0.04523   0.00000  Uiso   1.00
C474   C     0.38294   0.82708   0.25133   0.00000  Uiso   1.00
C475   C     0.35640   0.78615   0.24049   0.00000  Uiso   1.00
C476   C     0.08752   0.63728   0.08225   0.00000  Uiso   1.00
C477   C     0.10246   0.60288   0.04596   0.00000  Uiso   1.00
C478   C     0.12876   0.93194   0.08622   0.00000  Uiso   1.00
C479   C     0.10659   0.97463   0.10325   0.00000  Uiso   1.00
C480   C     0.31972   0.63088   0.23929   0.00000  Uiso   1.00
C481   C     0.32079   0.67999   0.25716   0.00000  Uiso   1.00
C482   C     0.37328   0.56500   0.08792   0.00000  Uiso   1.00
C483   C     0.19010   0.94124   0.16664   0.00000  Uiso   1.00
C484   C     0.39337   0.52205   0.10668   0.00000  Uiso   1.00
C485   C     0.16675   0.88455   0.24993   0.00000  Uiso   1.00
C486   C     0.15320   0.84979   0.28597   0.00000  Uiso   1.00
C487   C     0.37086   0.93216   0.24697   0.00000  Uiso   1.00
C488   C     0.39076   0.97595   0.23006   0.00000  Uiso   1.00
C489   C     0.18303   0.63191   0.09484   0.00000  Uiso   1.00
C490   C     0.18155   0.68046   0.07619   0.00000  Uiso   1.00
C491   C     0.13243   0.57568   0.25001   0.00000  Uiso   1.00
C492   C     0.11064   0.53188   0.23722   0.00000  Uiso   1.00
C493   C     0.31654   0.86606   0.09638   0.00000  Uiso   1.00
C494   C     0.30961   0.55904   0.16643   0.00000  Uiso   1.00
C495   C     0.31773   0.81673   0.07902   0.00000  Uiso   1.00
C496   C     0.49969   0.70969   0.02427   0.00000  Uiso   1.00
Cu497  Cu    0.00000   0.75000   0.21355   0.00000  Uiso   1.00
Cu498  Cu   -0.00000   0.75000   0.11978   0.00000  Uiso   1.00
Cu499  Cu    0.25000   0.50000   0.21355   0.00000  Uiso   1.00
Cu500  Cu    0.25000   0.50000   0.11978   0.00000  Uiso   1.00
H501   H     0.49914   0.66438   0.08465   0.00000  Uiso   1.00
H502   H     0.00153   0.66452   0.24752   0.00000  Uiso   1.00
H503   H     0.34413   0.81072   0.05640   0.00000  Uiso   1.00
H504   H     0.31854   0.79307   0.10863   0.00000  Uiso   1.00
H505   H     0.29010   0.80944   0.05877   0.00000  Uiso   1.00
H506   H     0.28749   0.86872   0.11517   0.00000  Uiso   1.00
H507   H     0.31739   0.89021   0.06745   0.00000  Uiso   1.00
H508   H     0.03816   0.65084   0.29012   0.00000  Uiso   1.00
H509   H     0.48623   0.63839   0.29765   0.00000  Uiso   1.00
H510   H     0.24681   0.91561   0.08355   0.00000  Uiso   1.00
H511   H     0.20885   0.90355   0.04142   0.00000  Uiso   1.00
H512   H     0.25988   0.88727   0.03346   0.00000  Uiso   1.00
H513   H     0.24565   0.58485   0.24978   0.00000  Uiso   1.00
H514   H     0.21227   0.59959   0.29616   0.00000  Uiso   1.00
H515   H     0.26391   0.61139   0.29889   0.00000  Uiso   1.00
H516   H     0.25379   0.58428   0.08466   0.00000  Uiso   1.00
H517   H     0.46799   0.64668   0.03836   0.00000  Uiso   1.00
H518   H     0.29302   0.59468   0.04335   0.00000  Uiso   1.00
H519   H     0.24259   0.61333   0.03550   0.00000  Uiso   1.00
H520   H     0.25179   0.91460   0.24757   0.00000  Uiso   1.00
H521   H     0.28787   0.90122   0.29099   0.00000  Uiso   1.00
H522   H     0.23562   0.88849   0.29715   0.00000  Uiso   1.00
H523   H     0.33205   0.70531   0.10393   0.00000  Uiso   1.00
H524   H     0.37851   0.73638   0.11409   0.00000  Uiso   1.00
H525   H     0.35849   0.73162   0.05675   0.00000  Uiso   1.00
H526   H     0.41571   0.67854   0.06643   0.00000  Uiso   1.00
H527   H     0.36987   0.65098   0.05354   0.00000  Uiso   1.00
H528   H     0.02063   0.64096   0.03461   0.00000  Uiso   1.00
H529   H     0.10092   0.93304   0.28135   0.00000  Uiso   1.00
H530   H     0.07063   0.95198   0.23301   0.00000  Uiso   1.00
H531   H     0.04700   0.93307   0.28510   0.00000  Uiso   1.00
H532   H     0.04147   0.87814   0.22446   0.00000  Uiso   1.00
H533   H     0.07267   0.85302   0.26919   0.00000  Uiso   1.00
H534   H     0.16784   0.79015   0.10730   0.00000  Uiso   1.00
H535   H     0.12012   0.76142   0.11671   0.00000  Uiso   1.00
H536   H     0.14172   0.76356   0.05987   0.00000  Uiso   1.00
H537   H     0.08634   0.81932   0.06651   0.00000  Uiso   1.00
H538   H     0.13372   0.84420   0.05490   0.00000  Uiso   1.00
H539   H     0.49603   0.83456   0.24960   0.00000  Uiso   1.00
H540   H     0.37707   0.61911   0.31010   0.00000  Uiso   1.00
H541   H     0.38902   0.57151   0.27214   0.00000  Uiso   1.00
H542   H     0.42615   0.59426   0.31064   0.00000  Uiso   1.00
H543   H     0.44458   0.62389   0.23976   0.00000  Uiso   1.00
H544   H     0.41804   0.67127   0.26751   0.00000  Uiso   1.00
H545   H     0.17040   0.71347   0.21567   0.00000  Uiso   1.00
H546   H     0.12350   0.74529   0.21295   0.00000  Uiso   1.00
H547   H     0.15153   0.74233   0.26600   0.00000  Uiso   1.00
H548   H     0.09056   0.69033   0.26536   0.00000  Uiso   1.00
H549   H     0.13746   0.66434   0.27683   0.00000  Uiso   1.00
H550   H     0.46141   0.84943   0.29447   0.00000  Uiso   1.00
H551   H     0.37282   0.87763   0.02401   0.00000  Uiso   1.00
H552   H     0.38517   0.92584   0.06094   0.00000  Uiso   1.00
H553   H     0.42168   0.90272   0.02161   0.00000  Uiso   1.00
H554   H     0.44131   0.87459   0.09298   0.00000  Uiso   1.00
H555   H     0.41560   0.82625   0.06588   0.00000  Uiso   1.00
H556   H     0.32729   0.79741   0.22541   0.00000  Uiso   1.00
H557   H     0.37200   0.76255   0.21620   0.00000  Uiso   1.00
H558   H     0.35002   0.76786   0.27293   0.00000  Uiso   1.00
H559   H     0.41153   0.81467   0.26536   0.00000  Uiso   1.00
H560   H     0.36780   0.84604   0.27967   0.00000  Uiso   1.00
H561   H     0.01294   0.86142   0.29935   0.00000  Uiso   1.00
H562   H     0.12611   0.61826   0.02401   0.00000  Uiso   1.00
H563   H     0.11404   0.57131   0.06211   0.00000  Uiso   1.00
H564   H     0.07720   0.59307   0.02300   0.00000  Uiso   1.00
H565   H     0.05796   0.62397   0.09390   0.00000  Uiso   1.00
H566   H     0.08406   0.67115   0.06576   0.00000  Uiso   1.00
H567   H     0.07904   0.96502   0.12278   0.00000  Uiso   1.00
H568   H     0.12643   0.99568   0.12553   0.00000  Uiso   1.00
H569   H     0.09724   0.99534   0.07337   0.00000  Uiso   1.00
H570   H     0.15718   0.94187   0.06934   0.00000  Uiso   1.00
H571   H     0.10968   0.91676   0.05878   0.00000  Uiso   1.00
H572   H     0.00135   0.83588   0.08597   0.00000  Uiso   1.00
H573   H     0.34810   0.68659   0.27793   0.00000  Uiso   1.00
H574   H     0.31950   0.70374   0.22768   0.00000  Uiso   1.00
H575   H     0.29407   0.68652   0.27936   0.00000  Uiso   1.00
H576   H     0.29033   0.62862   0.22153   0.00000  Uiso   1.00
H577   H     0.32155   0.60617   0.26768   0.00000  Uiso   1.00
H578   H     0.41974   0.53117   0.12834   0.00000  Uiso   1.00
H579   H     0.37161   0.50188   0.12718   0.00000  Uiso   1.00
H580   H     0.40422   0.50056   0.07766   0.00000  Uiso   1.00
H581   H     0.34515   0.55579   0.07000   0.00000  Uiso   1.00
H582   H     0.39396   0.57854   0.06118   0.00000  Uiso   1.00
H583   H     0.03379   0.85207   0.04008   0.00000  Uiso   1.00
H584   H     0.13034   0.86504   0.30929   0.00000  Uiso   1.00
H585   H     0.14098   0.81863   0.26945   0.00000  Uiso   1.00
H586   H     0.17924   0.83960   0.30751   0.00000  Uiso   1.00
H587   H     0.19615   0.87173   0.23692   0.00000  Uiso   1.00
H588   H     0.17036   0.91815   0.26732   0.00000  Uiso   1.00
H589   H     0.41715   0.96791   0.20777   0.00000  Uiso   1.00
H590   H     0.36894   0.99712   0.21078   0.00000  Uiso   1.00
H591   H     0.40163   0.99588   0.26002   0.00000  Uiso   1.00
H592   H     0.34230   0.94008   0.26495   0.00000  Uiso   1.00
H593   H     0.39139   0.91804   0.27345   0.00000  Uiso   1.00
H594   H     0.48141   0.86004   0.03644   0.00000  Uiso   1.00
H595   H     0.15492   0.68556   0.05400   0.00000  Uiso   1.00
H596   H     0.18116   0.70509   0.10529   0.00000  Uiso   1.00
H597   H     0.20892   0.68707   0.05518   0.00000  Uiso   1.00
H598   H     0.21199   0.63069   0.11365   0.00000  Uiso   1.00
H599   H     0.18258   0.60656   0.06653   0.00000  Uiso   1.00
H600   H     0.08124   0.53966   0.22073   0.00000  Uiso   1.00
H601   H     0.12920   0.51037   0.21378   0.00000  Uiso   1.00
H602   H     0.10497   0.51277   0.26929   0.00000  Uiso   1.00
H603   H     0.16137   0.56720   0.26600   0.00000  Uiso   1.00
H604   H     0.11385   0.59227   0.27718   0.00000  Uiso   1.00
N605   N     0.00000   0.75000   0.28402   0.00000  Uiso   1.00
N606   N    -0.00000   0.75000   0.04931   0.00000  Uiso   1.00
N607   N     0.25000   0.50000   0.28402   0.00000  Uiso   1.00
N608   N     0.25000   0.50000   0.04931   0.00000  Uiso   1.00
O609   O     0.04508   0.70491   0.20625   0.00000  Uiso   1.00
O610   O     0.20491   0.54509   0.12709   0.00000  Uiso   1.00
O611   O     0.20491   0.54509   0.20625   0.00000  Uiso   1.00
O612   O     0.29508   0.95491   0.12709   0.00000  Uiso   1.00
O613   O     0.20491   0.95491   0.12709   0.00000  Uiso   1.00
O614   O     0.29508   0.54509   0.20625   0.00000  Uiso   1.00
O615   O     0.29508   0.54509   0.12709   0.00000  Uiso   1.00
O616   O     0.20491   0.95491   0.20625   0.00000  Uiso   1.00
O617   O     0.45491   0.79509   0.12709   0.00000  Uiso   1.00
O618   O     0.45491   0.79509   0.20625   0.00000  Uiso   1.00
O619   O     0.04508   0.70491   0.12709   0.00000  Uiso   1.00
O620   O     0.45491   0.70491   0.12709   0.00000  Uiso   1.00
O621   O     0.04508   0.79509   0.20625   0.00000  Uiso   1.00
O622   O     0.04508   0.79509   0.12709   0.00000  Uiso   1.00
O623   O     0.45491   0.70491   0.20625   0.00000  Uiso   1.00
O624   O     0.29508   0.95491   0.20625   0.00000  Uiso   1.00
C625   C     0.56015   0.69151   0.16661   0.00000  Uiso   1.00
C626   C     0.99802   0.79018   0.30922   0.00000  Uiso   1.00
C627   C     0.50041   0.79027   0.02499   0.00000  Uiso   1.00
C628   C     0.50175   0.70972   0.30836   0.00000  Uiso   1.00
C629   C     0.74793   0.95981   0.02415   0.00000  Uiso   1.00
C630   C     0.74897   0.54019   0.30921   0.00000  Uiso   1.00
C631   C     0.75231   0.54010   0.02484   0.00000  Uiso   1.00
C632   C     0.75095   0.95973   0.30834   0.00000  Uiso   1.00
C633   C     0.88919   0.64122   0.12420   0.00000  Uiso   1.00
C634   C     0.60249   0.86836   0.20577   0.00000  Uiso   1.00
C635   C     0.61237   0.85731   0.12430   0.00000  Uiso   1.00
C636   C     0.94004   0.80885   0.16685   0.00000  Uiso   1.00
C637   C     0.89004   0.63991   0.20751   0.00000  Uiso   1.00
C638   C     0.61441   0.64767   0.20877   0.00000  Uiso   1.00
C639   C     0.88769   0.85746   0.12600   0.00000  Uiso   1.00
C640   C     0.88790   0.85706   0.20927   0.00000  Uiso   1.00
C641   C     0.61219   0.64155   0.12576   0.00000  Uiso   1.00
C642   C     0.63484   0.89809   0.12511   0.00000  Uiso   1.00
C643   C     0.85204   0.61921   0.20485   0.00000  Uiso   1.00
C644   C     0.86673   0.60046   0.12569   0.00000  Uiso   1.00
C645   C     0.64051   0.88919   0.20758   0.00000  Uiso   1.00
C646   C     0.86545   0.89787   0.20800   0.00000  Uiso   1.00
C647   C     0.94047   0.69065   0.16652   0.00000  Uiso   1.00
C648   C     0.65010   0.62059   0.12867   0.00000  Uiso   1.00
C649   C     0.63688   0.60685   0.20893   0.00000  Uiso   1.00
C650   C     0.84980   0.87842   0.12932   0.00000  Uiso   1.00
C651   C     0.59191   0.84468   0.16531   0.00000  Uiso   1.00
C652   C     0.90644   0.65731   0.16605   0.00000  Uiso   1.00
C653   C     0.90508   0.84106   0.16734   0.00000  Uiso   1.00
C654   C     0.59569   0.66026   0.16688   0.00000  Uiso   1.00
C655   C     0.84320   0.59262   0.16561   0.00000  Uiso   1.00
C656   C     0.65510   0.90941   0.16651   0.00000  Uiso   1.00
C657   C     0.65874   0.59530   0.16842   0.00000  Uiso   1.00
C658   C     0.55923   0.80968   0.16636   0.00000  Uiso   1.00
C659   C     0.84208   0.90608   0.16806   0.00000  Uiso   1.00
C660   C     0.99662   0.66376   0.04747   0.00000  Uiso   1.00
C661   C     0.99166   0.83564   0.28630   0.00000  Uiso   1.00
C662   C     0.50455   0.83616   0.04887   0.00000  Uiso   1.00
C663   C     0.50733   0.66415   0.28416   0.00000  Uiso   1.00
C664   C     0.74034   0.91468   0.04727   0.00000  Uiso   1.00
C665   C     0.74222   0.58573   0.28663   0.00000  Uiso   1.00
C666   C     0.76108   0.58495   0.04860   0.00000  Uiso   1.00
C667   C     0.75703   0.91424   0.28431   0.00000  Uiso   1.00
C668   C     0.88622   0.66981   0.08096   0.00000  Uiso   1.00
C669   C     0.80932   0.94063   0.16691   0.00000  Uiso   1.00
C670   C     0.86237   0.71350   0.08978   0.00000  Uiso   1.00
C671   C     0.57110   0.87894   0.24177   0.00000  Uiso   1.00
C672   C     0.57293   0.92725   0.26155   0.00000  Uiso   1.00
C673   C     0.61571   0.82707   0.08195   0.00000  Uiso   1.00
C674   C     0.63766   0.78278   0.09247   0.00000  Uiso   1.00
C675   C     0.91487   0.63707   0.25121   0.00000  Uiso   1.00
C676   C     0.90057   0.60339   0.28794   0.00000  Uiso   1.00
C677   C     0.61939   0.68042   0.24920   0.00000  Uiso   1.00
C678   C     0.64253   0.72306   0.23480   0.00000  Uiso   1.00
C679   C     0.91190   0.86054   0.08190   0.00000  Uiso   1.00
C680   C     0.69093   0.55981   0.16713   0.00000  Uiso   1.00
C681   C     0.89662   0.89373   0.04523   0.00000  Uiso   1.00
C682   C     0.88294   0.82708   0.25133   0.00000  Uiso   1.00
C683   C     0.85640   0.78615   0.24049   0.00000  Uiso   1.00
C684   C     0.58752   0.63728   0.08225   0.00000  Uiso   1.00
C685   C     0.60246   0.60288   0.04596   0.00000  Uiso   1.00
C686   C     0.62876   0.93194   0.08622   0.00000  Uiso   1.00
C687   C     0.60659   0.97463   0.10325   0.00000  Uiso   1.00
C688   C     0.81972   0.63088   0.23929   0.00000  Uiso   1.00
C689   C     0.82079   0.67999   0.25716   0.00000  Uiso   1.00
C690   C     0.87328   0.56500   0.08792   0.00000  Uiso   1.00
C691   C     0.69010   0.94124   0.16664   0.00000  Uiso   1.00
C692   C     0.89337   0.52205   0.10668   0.00000  Uiso   1.00
C693   C     0.66675   0.88455   0.24993   0.00000  Uiso   1.00
C694   C     0.65320   0.84979   0.28597   0.00000  Uiso   1.00
C695   C     0.87086   0.93216   0.24697   0.00000  Uiso   1.00
C696   C     0.89076   0.97595   0.23006   0.00000  Uiso   1.00
C697   C     0.68303   0.63191   0.09484   0.00000  Uiso   1.00
C698   C     0.68155   0.68046   0.07619   0.00000  Uiso   1.00
C699   C     0.63243   0.57568   0.25001   0.00000  Uiso   1.00
C700   C     0.61064   0.53188   0.23722   0.00000  Uiso   1.00
C701   C     0.81654   0.86606   0.09638   0.00000  Uiso   1.00
C702   C     0.80961   0.55904   0.16643   0.00000  Uiso   1.00
C703   C     0.81773   0.81673   0.07902   0.00000  Uiso   1.00
C704   C     0.99969   0.70969   0.02427   0.00000  Uiso   1.00
Cu705  Cu    0.50000   0.75000   0.21355   0.00000  Uiso   1.00
Cu706  Cu    0.50000   0.75000   0.11978   0.00000  Uiso   1.00
Cu707  Cu    0.75000   0.50000   0.21355   0.00000  Uiso   1.00
Cu708  Cu    0.75000   0.50000   0.11978   0.00000  Uiso   1.00
H709   H     0.99914   0.66438   0.08465   0.00000  Uiso   1.00
H710   H     0.50153   0.66452   0.24752   0.00000  Uiso   1.00
H711   H     0.84413   0.81072   0.05640   0.00000  Uiso   1.00
H712   H     0.81854   0.79307   0.10863   0.00000  Uiso   1.00
H713   H     0.79010   0.80944   0.05877   0.00000  Uiso   1.00
H714   H     0.78749   0.86872   0.11517   0.00000  Uiso   1.00
H715   H     0.81739   0.89021   0.06745   0.00000  Uiso   1.00
H716   H     0.53816   0.65084   0.29012   0.00000  Uiso   1.00
H717   H     0.98623   0.63839   0.29765   0.00000  Uiso   1.00
H718   H     0.74681   0.91561   0.08355   0.00000  Uiso   1.00
H719   H     0.70885   0.90355   0.04142   0.00000  Uiso   1.00
H720   H     0.75988   0.88727   0.03346   0.00000  Uiso   1.00
H721   H     0.74565   0.58485   0.24978   0.00000  Uiso   1.00
H722   H     0.71227   0.59959   0.29616   0.00000  Uiso   1.00
H723   H     0.76391   0.61139   0.29889   0.00000  Uiso   1.00
H724   H     0.75379   0.58428   0.08466   0.00000  Uiso   1.00
H725   H     0.96799   0.64668   0.03836   0.00000  Uiso   1.00
H726   H     0.79302   0.59468   0.04335   0.00000  Uiso   1.00
H727   H     0.74259   0.61333   0.03550   0.00000  Uiso   1.00
H728   H     0.75179   0.91460   0.24757   0.00000  Uiso   1.00
H729   H     0.78787   0.90122   0.29099   0.00000  Uiso   1.00
H730   H     0.73562   0.88849   0.29715   0.00000  Uiso   1.00
H731   H     0.83205   0.70531   0.10393   0.00000  Uiso   1.00
H732   H     0.87851   0.73638   0.11409   0.00000  Uiso   1.00
H733   H     0.85849   0.73162   0.05675   0.00000  Uiso   1.00
H734   H     0.91571   0.67854   0.06643   0.00000  Uiso   1.00
H735   H     0.86987   0.65098   0.05354   0.00000  Uiso   1.00
H736   H     0.52063   0.64096   0.03461   0.00000  Uiso   1.00
H737   H     0.60092   0.93304   0.28135   0.00000  Uiso   1.00
H738   H     0.57063   0.95198   0.23301   0.00000  Uiso   1.00
H739   H     0.54700   0.93307   0.28510   0.00000  Uiso   1.00
H740   H     0.54147   0.87814   0.22446   0.00000  Uiso   1.00
H741   H     0.57267   0.85302   0.26919   0.00000  Uiso   1.00
H742   H     0.66784   0.79015   0.10730   0.00000  Uiso   1.00
H743   H     0.62012   0.76142   0.11671   0.00000  Uiso   1.00
H744   H     0.64172   0.76356   0.05987   0.00000  Uiso   1.00
H745   H     0.58634   0.81932   0.06651   0.00000  Uiso   1.00
H746   H     0.63372   0.84420   0.05490   0.00000  Uiso   1.00
H747   H     0.99603   0.83456   0.24960   0.00000  Uiso   1.00
H748   H     0.87707   0.61911   0.31010   0.00000  Uiso   1.00
H749   H     0.88902   0.57151   0.27214   0.00000  Uiso   1.00
H750   H     0.92615   0.59426   0.31064   0.00000  Uiso   1.00
H751   H     0.94458   0.62389   0.23976   0.00000  Uiso   1.00
H752   H     0.91804   0.67127   0.26751   0.00000  Uiso   1.00
H753   H     0.67040   0.71347   0.21567   0.00000  Uiso   1.00
H754   H     0.62350   0.74529   0.21295   0.00000  Uiso   1.00
H755   H     0.65153   0.74233   0.26600   0.00000  Uiso   1.00
H756   H     0.59056   0.69033   0.26536   0.00000  Uiso   1.00
H757   H     0.63746   0.66434   0.27683   0.00000  Uiso   1.00
H758   H     0.96141   0.84943   0.29447   0.00000  Uiso   1.00
H759   H     0.87282   0.87763   0.02401   0.00000  Uiso   1.00
H760   H     0.88517   0.92584   0.06094   0.00000  Uiso   1.00
H761   H     0.92168   0.90272   0.02161   0.00000  Uiso   1.00
H762   H     0.94131   0.87459   0.09298   0.00000  Uiso   1.00
H763   H     0.91560   0.82625   0.06588   0.00000  Uiso   1.00
H764   H     0.82729   0.79741   0.22541   0.00000  Uiso   1.00
H765   H     0.87200   0.76255   0.21620   0.00000  Uiso   1.00
H766   H     0.85002   0.76786   0.27293   0.00000  Uiso   1.00
H767   H     0.91153   0.81467   0.26536   0.00000  Uiso   1.00
H768   H     0.86780   0.84604   0.27967   0.00000  Uiso   1.00
H769   H     0.51294   0.86142   0.29935   0.00000  Uiso   1.00
H770   H     0.62611   0.61826   0.02401   0.00000  Uiso   1.00
H771   H     0.61404   0.57131   0.06211   0.00000  Uiso   1.00
H772   H     0.57720   0.59307   0.02300   0.00000  Uiso   1.00
H773   H     0.55796   0.62397   0.09390   0.00000  Uiso   1.00
H774   H     0.58406   0.67115   0.06576   0.00000  Uiso   1.00
H775   H     0.57904   0.96502   0.12278   0.00000  Uiso   1.00
H776   H     0.62643   0.99568   0.12553   0.00000  Uiso   1.00
H777   H     0.59724   0.99534   0.07337   0.00000  Uiso   1.00
H778   H     0.65718   0.94187   0.06934   0.00000  Uiso   1.00
H779   H     0.60968   0.91676   0.05878   0.00000  Uiso   1.00
H780   H     0.50135   0.83588   0.08597   0.00000  Uiso   1.00
H781   H     0.84810   0.68659   0.27793   0.00000  Uiso   1.00
H782   H     0.81950   0.70374   0.22768   0.00000  Uiso   1.00
H783   H     0.79407   0.68652   0.27936   0.00000  Uiso   1.00
H784   H     0.79033   0.62862   0.22153   0.00000  Uiso   1.00
H785   H     0.82155   0.60617   0.26768   0.00000  Uiso   1.00
H786   H     0.91974   0.53117   0.12834   0.00000  Uiso   1.00
H787   H     0.87161   0.50188   0.12718   0.00000  Uiso   1.00
H788   H     0.90422   0.50056   0.07766   0.00000  Uiso   1.00
H789   H     0.84515   0.55579   0.07000   0.00000  Uiso   1.00
H790   H     0.89396   0.57854   0.06118   0.00000  Uiso   1.00
H791   H     0.53379   0.85207   0.04008   0.00000  Uiso   1.00
H792   H     0.63034   0.86504   0.30929   0.00000  Uiso   1.00
H793   H     0.64098   0.81863   0.26945   0.00000  Uiso   1.00
H794   H     0.67924   0.83960   0.30751   0.00000  Uiso   1.00
H795   H     0.69615   0.87173   0.23692   0.00000  Uiso   1.00
H796   H     0.67036   0.91815   0.26732   0.00000  Uiso   1.00
H797   H     0.91715   0.96791   0.20777   0.00000  Uiso   1.00
H798   H     0.86894   0.99712   0.21078   0.00000  Uiso   1.00
H799   H     0.90163   0.99588   0.26002   0.00000  Uiso   1.00
H800   H     0.84230   0.94008   0.26495   0.00000  Uiso   1.00
H801   H     0.89139   0.91804   0.27345   0.00000  Uiso   1.00
H802   H     0.98141   0.86004   0.03644   0.00000  Uiso   1.00
H803   H     0.65492   0.68556   0.05400   0.00000  Uiso   1.00
H804   H     0.68116   0.70509   0.10529   0.00000  Uiso   1.00
H805   H     0.70892   0.68707   0.05518   0.00000  Uiso   1.00
H806   H     0.71199   0.63069   0.11365   0.00000  Uiso   1.00
H807   H     0.68258   0.60656   0.06653   0.00000  Uiso   1.00
H808   H     0.58124   0.53966   0.22073   0.00000  Uiso   1.00
H809   H     0.62920   0.51037   0.21378   0.00000  Uiso   1.00
H810   H     0.60497   0.51277   0.26929   0.00000  Uiso   1.00
H811   H     0.66137   0.56720   0.26600   0.00000  Uiso   1.00
H812   H     0.61385   0.59227   0.27718   0.00000  Uiso   1.00
N813   N     0.50000   0.75000   0.28402   0.00000  Uiso   1.00
N814   N     0.50000   0.75000   0.04931   0.00000  Uiso   1.00
N815   N     0.75000   0.50000   0.28402   0.00000  Uiso   1.00
N816   N     0.75000   0.50000   0.04931   0.00000  Uiso   1.00
O817   O     0.54508   0.70491   0.20625   0.00000  Uiso   1.00
O818   O     0.70491   0.54509   0.12709   0.00000  Uiso   1.00
O819   O     0.70491   0.54509   0.20625   0.00000  Uiso   1.00
O820   O     0.79508   0.95491   0.12709   0.00000  Uiso   1.00
O821   O     0.70491   0.95491   0.12709   0.00000  Uiso   1.00
O822   O     0.79508   0.54509   0.20625   0.00000  Uiso   1.00
O823   O     0.79508   0.54509   0.12709   0.00000  Uiso   1.00
O824   O     0.70491   0.95491   0.20625   0.00000  Uiso   1.00
O825   O     0.95491   0.79509   0.12709   0.00000  Uiso   1.00
O826   O     0.95491   0.79509   0.20625   0.00000  Uiso   1.00
O827   O     0.54508   0.70491   0.12709   0.00000  Uiso   1.00
O828   O     0.95491   0.70491   0.12709   0.00000  Uiso   1.00
O829   O     0.54508   0.79509   0.20625   0.00000  Uiso   1.00
O830   O     0.54508   0.79509   0.12709   0.00000  Uiso   1.00
O831   O     0.95491   0.70491   0.20625   0.00000  Uiso   1.00
O832   O     0.79508   0.95491   0.20625   0.00000  Uiso   1.00
C833   C     0.06015   0.19151   0.49995   0.00000  Uiso   1.00
C834   C     0.49802   0.29018   0.64255   0.00000  Uiso   1.00
C835   C     0.00041   0.29027   0.35832   0.00000  Uiso   1.00
C836   C     0.00175   0.20972   0.64169   0.00000  Uiso   1.00
C837   C     0.24793   0.45981   0.35748   0.00000  Uiso   1.00
C838   C     0.24897   0.04019   0.64255   0.00000  Uiso   1.00
C839   C     0.25231   0.04010   0.35818   0.00000  Uiso   1.00
C840   C     0.25095   0.45973   0.64168   0.00000  Uiso   1.00
C841   C     0.38919   0.14122   0.45753   0.00000  Uiso   1.00
C842   C     0.10249   0.36836   0.53911   0.00000  Uiso   1.00
C843   C     0.11237   0.35731   0.45764   0.00000  Uiso   1.00
C844   C     0.44004   0.30885   0.50018   0.00000  Uiso   1.00
C845   C     0.39004   0.13991   0.54085   0.00000  Uiso   1.00
C846   C     0.11441   0.14767   0.54210   0.00000  Uiso   1.00
C847   C     0.38769   0.35746   0.45934   0.00000  Uiso   1.00
C848   C     0.38790   0.35706   0.54261   0.00000  Uiso   1.00
C849   C     0.11219   0.14155   0.45909   0.00000  Uiso   1.00
C850   C     0.13484   0.39809   0.45845   0.00000  Uiso   1.00
C851   C     0.35204   0.11921   0.53818   0.00000  Uiso   1.00
C852   C     0.36673   0.10046   0.45903   0.00000  Uiso   1.00
C853   C     0.14051   0.38919   0.54091   0.00000  Uiso   1.00
C854   C     0.36545   0.39787   0.54134   0.00000  Uiso   1.00
C855   C     0.44047   0.19065   0.49986   0.00000  Uiso   1.00
C856   C     0.15010   0.12059   0.46200   0.00000  Uiso   1.00
C857   C     0.13688   0.10685   0.54227   0.00000  Uiso   1.00
C858   C     0.34980   0.37842   0.46265   0.00000  Uiso   1.00
C859   C     0.09191   0.34468   0.49864   0.00000  Uiso   1.00
C860   C     0.40644   0.15731   0.49938   0.00000  Uiso   1.00
C861   C     0.40508   0.34106   0.50068   0.00000  Uiso   1.00
C862   C     0.09569   0.16026   0.50022   0.00000  Uiso   1.00
C863   C     0.34320   0.09262   0.49894   0.00000  Uiso   1.00
C864   C     0.15510   0.40941   0.49985   0.00000  Uiso   1.00
C865   C     0.15874   0.09530   0.50175   0.00000  Uiso   1.00
C866   C     0.05923   0.30968   0.49969   0.00000  Uiso   1.00
C867   C     0.34208   0.40608   0.50139   0.00000  Uiso   1.00
C868   C     0.49662   0.16376   0.38081   0.00000  Uiso   1.00
C869   C     0.49166   0.33564   0.61963   0.00000  Uiso   1.00
C870   C     0.00455   0.33616   0.38220   0.00000  Uiso   1.00
C871   C     0.00733   0.16415   0.61749   0.00000  Uiso   1.00
C872   C     0.24034   0.41468   0.38060   0.00000  Uiso   1.00
C873   C     0.24222   0.08573   0.61996   0.00000  Uiso   1.00
C874   C     0.26108   0.08495   0.38194   0.00000  Uiso   1.00
C875   C     0.25703   0.41424   0.61764   0.00000  Uiso   1.00
C876   C     0.38622   0.16981   0.41429   0.00000  Uiso   1.00
C877   C     0.30932   0.44063   0.50025   0.00000  Uiso   1.00
C878   C     0.36237   0.21350   0.42311   0.00000  Uiso   1.00
C879   C     0.07110   0.37894   0.57510   0.00000  Uiso   1.00
C880   C     0.07293   0.42725   0.59488   0.00000  Uiso   1.00
C881   C     0.11571   0.32707   0.41528   0.00000  Uiso   1.00
C882   C     0.13766   0.28278   0.42581   0.00000  Uiso   1.00
C883   C     0.41487   0.13707   0.58454   0.00000  Uiso   1.00
C884   C     0.40057   0.10339   0.62127   0.00000  Uiso   1.00
C885   C     0.11939   0.18042   0.58254   0.00000  Uiso   1.00
C886   C     0.14253   0.22306   0.56814   0.00000  Uiso   1.00
C887   C     0.41190   0.36054   0.41523   0.00000  Uiso   1.00
C888   C     0.19093   0.05981   0.50046   0.00000  Uiso   1.00
C889   C     0.39662   0.39373   0.37856   0.00000  Uiso   1.00
C890   C     0.38294   0.32708   0.58466   0.00000  Uiso   1.00
C891   C     0.35640   0.28615   0.57383   0.00000  Uiso   1.00
C892   C     0.08752   0.13728   0.41559   0.00000  Uiso   1.00
C893   C     0.10246   0.10288   0.37929   0.00000  Uiso   1.00
C894   C     0.12876   0.43194   0.41955   0.00000  Uiso   1.00
C895   C     0.10659   0.47463   0.43659   0.00000  Uiso   1.00
C896   C     0.31972   0.13088   0.57262   0.00000  Uiso   1.00
C897   C     0.32079   0.17999   0.59049   0.00000  Uiso   1.00
C898   C     0.37328   0.06500   0.42125   0.00000  Uiso   1.00
C899   C     0.19010   0.44124   0.49997   0.00000  Uiso   1.00
C900   C     0.39337   0.02205   0.44001   0.00000  Uiso   1.00
C901   C     0.16675   0.38455   0.58327   0.00000  Uiso   1.00
C902   C     0.15320   0.34979   0.61930   0.00000  Uiso   1.00
C903   C     0.37086   0.43216   0.58030   0.00000  Uiso   1.00
C904   C     0.39076   0.47595   0.56339   0.00000  Uiso   1.00
C905   C     0.18303   0.13191   0.42818   0.00000  Uiso   1.00
C906   C     0.18155   0.18046   0.40952   0.00000  Uiso   1.00
C907   C     0.13243   0.07568   0.58335   0.00000  Uiso   1.00
C908   C     0.11064   0.03188   0.57055   0.00000  Uiso   1.00
C909   C     0.31654   0.36606   0.42971   0.00000  Uiso   1.00
C910   C     0.30961   0.05904   0.49977   0.00000  Uiso   1.00
C911   C     0.31773   0.31673   0.41236   0.00000  Uiso   1.00
C912   C     0.49969   0.20969   0.35760   0.00000  Uiso   1.00
Cu913  Cu    0.00000   0.25000   0.54689   0.00000  Uiso   1.00
Cu914  Cu   -0.00000   0.25000   0.45311   0.00000  Uiso   1.00
Cu915  Cu    0.25000   0.00000   0.54689   0.00000  Uiso   1.00
Cu916  Cu    0.25000   0.00000   0.45311   0.00000  Uiso   1.00
H917   H     0.49914   0.16438   0.41798   0.00000  Uiso   1.00
H918   H     0.00153   0.16452   0.58086   0.00000  Uiso   1.00
H919   H     0.34413   0.31072   0.38974   0.00000  Uiso   1.00
H920   H     0.31854   0.29307   0.44197   0.00000  Uiso   1.00
H921   H     0.29010   0.30944   0.39210   0.00000  Uiso   1.00
H922   H     0.28749   0.36872   0.44850   0.00000  Uiso   1.00
H923   H     0.31739   0.39021   0.40078   0.00000  Uiso   1.00
H924   H     0.03816   0.15084   0.62345   0.00000  Uiso   1.00
H925   H     0.48623   0.13839   0.63098   0.00000  Uiso   1.00
H926   H     0.24681   0.41561   0.41689   0.00000  Uiso   1.00
H927   H     0.20885   0.40355   0.37475   0.00000  Uiso   1.00
H928   H     0.25988   0.38727   0.36679   0.00000  Uiso   1.00
H929   H     0.24565   0.08485   0.58311   0.00000  Uiso   1.00
H930   H     0.21227   0.09959   0.62949   0.00000  Uiso   1.00
H931   H     0.26391   0.11139   0.63223   0.00000  Uiso   1.00
H932   H     0.25379   0.08428   0.41799   0.00000  Uiso   1.00
H933   H     0.46799   0.14668   0.37169   0.00000  Uiso   1.00
H934   H     0.29302   0.09468   0.37668   0.00000  Uiso   1.00
H935   H     0.24259   0.11333   0.36883   0.00000  Uiso   1.00
H936   H     0.25179   0.41460   0.58091   0.00000  Uiso   1.00
H937   H     0.28787   0.40122   0.62433   0.00000  Uiso   1.00
H938   H     0.23562   0.38849   0.63048   0.00000  Uiso   1.00
H939   H     0.33205   0.20531   0.43726   0.00000  Uiso   1.00
H940   H     0.37851   0.23638   0.44743   0.00000  Uiso   1.00
H941   H     0.35849   0.23162   0.39009   0.00000  Uiso   1.00
H942   H     0.41571   0.17854   0.39977   0.00000  Uiso   1.00
H943   H     0.36987   0.15098   0.38687   0.00000  Uiso   1.00
H944   H     0.02063   0.14096   0.36795   0.00000  Uiso   1.00
H945   H     0.10092   0.43304   0.61468   0.00000  Uiso   1.00
H946   H     0.07063   0.45198   0.56634   0.00000  Uiso   1.00
H947   H     0.04700   0.43307   0.61843   0.00000  Uiso   1.00
H948   H     0.04147   0.37814   0.55780   0.00000  Uiso   1.00
H949   H     0.07267   0.35302   0.60252   0.00000  Uiso   1.00
H950   H     0.16784   0.29015   0.44063   0.00000  Uiso   1.00
H951   H     0.12012   0.26142   0.45005   0.00000  Uiso   1.00
H952   H     0.14172   0.26356   0.39320   0.00000  Uiso   1.00
H953   H     0.08634   0.31932   0.39984   0.00000  Uiso   1.00
H954   H     0.13372   0.34420   0.38824   0.00000  Uiso   1.00
H955   H     0.49603   0.33456   0.58294   0.00000  Uiso   1.00
H956   H     0.37707   0.11911   0.64343   0.00000  Uiso   1.00
H957   H     0.38902   0.07151   0.60548   0.00000  Uiso   1.00
H958   H     0.42615   0.09426   0.64397   0.00000  Uiso   1.00
H959   H     0.44458   0.12389   0.57309   0.00000  Uiso   1.00
H960   H     0.41804   0.17127   0.60084   0.00000  Uiso   1.00
H961   H     0.17040   0.21347   0.54900   0.00000  Uiso   1.00
H962   H     0.12350   0.24529   0.54628   0.00000  Uiso   1.00
H963   H     0.15153   0.24233   0.59934   0.00000  Uiso   1.00
H964   H     0.09056   0.19033   0.59869   0.00000  Uiso   1.00
H965   H     0.13746   0.16434   0.61017   0.00000  Uiso   1.00
H966   H     0.46141   0.34943   0.62780   0.00000  Uiso   1.00
H967   H     0.37282   0.37763   0.35734   0.00000  Uiso   1.00
H968   H     0.38517   0.42584   0.39427   0.00000  Uiso   1.00
H969   H     0.42168   0.40272   0.35495   0.00000  Uiso   1.00
H970   H     0.44131   0.37459   0.42632   0.00000  Uiso   1.00
H971   H     0.41560   0.32625   0.39921   0.00000  Uiso   1.00
H972   H     0.32729   0.29741   0.55874   0.00000  Uiso   1.00
H973   H     0.37200   0.26255   0.54953   0.00000  Uiso   1.00
H974   H     0.35002   0.26786   0.60626   0.00000  Uiso   1.00
H975   H     0.41153   0.31467   0.59869   0.00000  Uiso   1.00
H976   H     0.36780   0.34604   0.61301   0.00000  Uiso   1.00
H977   H     0.01294   0.36142   0.63268   0.00000  Uiso   1.00
H978   H     0.12611   0.11826   0.35734   0.00000  Uiso   1.00
H979   H     0.11404   0.07131   0.39545   0.00000  Uiso   1.00
H980   H     0.07720   0.09307   0.35633   0.00000  Uiso   1.00
H981   H     0.05796   0.12397   0.42724   0.00000  Uiso   1.00
H982   H     0.08406   0.17115   0.39909   0.00000  Uiso   1.00
H983   H     0.07904   0.46502   0.45611   0.00000  Uiso   1.00
H984   H     0.12643   0.49568   0.45886   0.00000  Uiso   1.00
H985   H     0.09724   0.49534   0.40670   0.00000  Uiso   1.00
H986   H     0.15718   0.44187   0.40267   0.00000  Uiso   1.00
H987   H     0.10968   0.41676   0.39211   0.00000  Uiso   1.00
H988   H     0.00135   0.33588   0.41931   0.00000  Uiso   1.00
H989   H     0.34810   0.18659   0.61126   0.00000  Uiso   1.00
H990   H     0.31950   0.20374   0.56101   0.00000  Uiso   1.00
H991   H     0.29407   0.18652   0.61269   0.00000  Uiso   1.00
H992   H     0.29033   0.12862   0.55487   0.00000  Uiso   1.00
H993   H     0.32155   0.10617   0.60101   0.00000  Uiso   1.00
H994   H     0.41974   0.03117   0.46168   0.00000  Uiso   1.00
H995   H     0.37161   0.00188   0.46052   0.00000  Uiso   1.00
H996   H     0.40422   0.00056   0.41099   0.00000  Uiso   1.00
H997   H     0.34515   0.05579   0.40333   0.00000  Uiso   1.00
H998   H     0.39396   0.07854   0.39451   0.00000  Uiso   1.00
H999   H     0.03379   0.35207   0.37341   0.00000  Uiso   1.00
H1000  H     0.13034   0.36504   0.64263   0.00000  Uiso   1.00
H1001  H     0.14098   0.31863   0.60278   0.00000  Uiso   1.00
H1002  H     0.17924   0.33960   0.64084   0.00000  Uiso   1.00
H1003  H     0.19615   0.37173   0.57026   0.00000  Uiso   1.00
H1004  H     0.17036   0.41815   0.60065   0.00000  Uiso   1.00
H1005  H     0.41715   0.46791   0.54110   0.00000  Uiso   1.00
H1006  H     0.36894   0.49712   0.54411   0.00000  Uiso   1.00
H1007  H     0.40163   0.49588   0.59336   0.00000  Uiso   1.00
H1008  H     0.34230   0.44008   0.59829   0.00000  Uiso   1.00
H1009  H     0.39139   0.41804   0.60678   0.00000  Uiso   1.00
H1010  H     0.48141   0.36004   0.36977   0.00000  Uiso   1.00
H1011  H     0.15492   0.18556   0.38733   0.00000  Uiso   1.00
H1012  H     0.18116   0.20509   0.43863   0.00000  Uiso   1.00
H1013  H     0.20892   0.18707   0.38851   0.00000  Uiso   1.00
H1014  H     0.21199   0.13069   0.44699   0.00000  Uiso   1.00
H1015  H     0.18258   0.10656   0.39987   0.00000  Uiso   1.00
H1016  H     0.08124   0.03966   0.55406   0.00000  Uiso   1.00
H1017  H     0.12920   0.01037   0.54711   0.00000  Uiso   1.00
H1018  H     0.10497   0.01277   0.60262   0.00000  Uiso   1.00
H1019  H     0.16137   0.06720   0.59933   0.00000  Uiso   1.00
H1020  H     0.11385   0.09227   0.61051   0.00000  Uiso   1.00
N1021  N     0.00000   0.25000   0.61736   0.00000  Uiso   1.00
N1022  N    -0.00000   0.25000   0.38264   0.00000  Uiso   1.00
N1023  N     0.25000   0.00000   0.61736   0.00000  Uiso   1.00
N1024  N     0.25000   0.00000   0.38264   0.00000  Uiso   1.00
O1025  O     0.04508   0.20491   0.53958   0.00000  Uiso   1.00
O1026  O     0.20491   0.04509   0.46042   0.00000  Uiso   1.00
O1027  O     0.20491   0.04509   0.53958   0.00000  Uiso   1.00
O1028  O     0.29508   0.45491   0.46042   0.00000  Uiso   1.00
O1029  O     0.20491   0.45491   0.46042   0.00000  Uiso   1.00
O1030  O     0.29508   0.04509   0.53958   0.00000  Uiso   1.00
O1031  O     0.29508   0.04509   0.46042   0.00000  Uiso   1.00
O1032  O     0.20491   0.45491   0.53958   0.00000  Uiso   1.00
O1033  O     0.45491   0.29509   0.46042   0.00000  Uiso   1.00
O1034  O     0.45491   0.29509   0.53958   0.00000  Uiso   1.00
O1035  O     0.04508   0.20491   0.46042   0.00000  Uiso   1.00
O1036  O     0.45491   0.20491   0.46042   0.00000  Uiso   1.00
O1037  O     0.04508   0.29509   0.53958   0.00000  Uiso   1.00
O1038  O     0.04508   0.29509   0.46042   0.00000  Uiso   1.00
O1039  O     0.45491   0.20491   0.53958   0.00000  Uiso   1.00
O1040  O     0.29508   0.45491   0.53958   0.00000  Uiso   1.00
C1041  C     0.56015   0.19151   0.49995   0.00000  Uiso   1.00
C1042  C     0.99802   0.29018   0.64255   0.00000  Uiso   1.00
C1043  C     0.50041   0.29027   0.35832   0.00000  Uiso   1.00
C1044  C     0.50175   0.20972   0.64169   0.00000  Uiso   1.00
C1045  C     0.74793   0.45981   0.35748   0.00000  Uiso   1.00
C1046  C     0.74897   0.04019   0.64255   0.00000  Uiso   1.00
C1047  C     0.75231   0.04010   0.35818   0.00000  Uiso   1.00
C1048  C     0.75095   0.45973   0.64168   0.00000  Uiso   1.00
C1049  C     0.88919   0.14122   0.45753   0.00000  Uiso   1.00
C1050  C     0.60249   0.36836   0.53911   0.00000  Uiso   1.00
C1051  C     0.61237   0.35731   0.45764   0.00000  Uiso   1.00
C1052  C     0.94004   0.30885   0.50018   0.00000  Uiso   1.00
C1053  C     0.89004   0.13991   0.54085   0.00000  Uiso   1.00
C1054  C     0.61441   0.14767   0.54210   0.00000  Uiso   1.00
C1055  C     0.88769   0.35746   0.45934   0.00000  Uiso   1.00
C1056  C     0.88790   0.35706   0.54261   0.00000  Uiso   1.00
C1057  C     0.61219   0.14155   0.45909   0.00000  Uiso   1.00
C1058  C     0.63484   0.39809   0.45845   0.00000  Uiso   1.00
C1059  C     0.85204   0.11921   0.53818   0.00000  Uiso   1.00
C1060  C     0.86673   0.10046   0.45903   0.00000  Uiso   1.00
C1061  C     0.64051   0.38919   0.54091   0.00000  Uiso   1.00
C1062  C     0.86545   0.39787   0.54134   0.00000  Uiso   1.00
C1063  C     0.94047   0.19065   0.49986   0.00000  Uiso   1.00
C1064  C     0.65010   0.12059   0.46200   0.00000  Uiso   1.00
C1065  C     0.63688   0.10685   0.54227   0.00000  Uiso   1.00
C1066  C     0.84980   0.37842   0.46265   0.00000  Uiso   1.00
C1067  C     0.59191   0.34468   0.49864   0.00000  Uiso   1.00
C1068  C     0.90644   0.15731   0.49938   0.00000  Uiso   1.00
C1069  C     0.90508   0.34106   0.50068   0.00000  Uiso   1.00
C1070  C     0.59569   0.16026   0.50022   0.00000  Uiso   1.00
C1071  C     0.84320   0.09262   0.49894   0.00000  Uiso   1.00
C1072  C     0.65510   0.40941   0.49985   0.00000  Uiso   1.00
C1073  C     0.65874   0.09530   0.50175   0.00000  Uiso   1.00
C1074  C     0.55923   0.30968   0.49969   0.00000  Uiso   1.00
C1075  C     0.84208   0.40608   0.50139   0.00000  Uiso   1.00
C1076  C     0.99662   0.16376   0.38081   0.00000  Uiso   1.00
C1077  C     0.99166   0.33564   0.61963   0.00000  Uiso   1.00
C1078  C     0.50455   0.33616   0.38220   0.00000  Uiso   1.00
C1079  C     0.50733   0.16415   0.61749   0.00000  Uiso   1.00
C1080  C     0.74034   0.41468   0.38060   0.00000  Uiso   1.00
C1081  C     0.74222   0.08573   0.61996   0.00000  Uiso   1.00
C1082  C     0.76108   0.08495   0.38194   0.00000  Uiso   1.00
C1083  C     0.75703   0.41424   0.61764   0.00000  Uiso   1.00
C1084  C     0.88622   0.16981   0.41429   0.00000  Uiso   1.00
C1085  C     0.80932   0.44063   0.50025   0.00000  Uiso   1.00
C1086  C     0.86237   0.21350   0.42311   0.00000  Uiso   1.00
C1087  C     0.57110   0.37894   0.57510   0.00000  Uiso   1.00
C1088  C     0.57293   0.42725   0.59488   0.00000  Uiso   1.00
C1089  C     0.61571   0.32707   0.41528   0.00000  Uiso   1.00
C1090  C     0.63766   0.28278   0.42581   0.00000  Uiso   1.00
C1091  C     0.91487   0.13707   0.58454   0.00000  Uiso   1.00
C1092  C     0.90057   0.10339   0.62127   0.00000  Uiso   1.00
C1093  C     0.61939   0.18042   0.58254   0.00000  Uiso   1.00
C1094  C     0.64253   0.22306   0.56814   0.00000  Uiso   1.00
C1095  C     0.91190   0.36054   0.41523   0.00000  Uiso   1.00
C1096  C     0.69093   0.05981   0.50046   0.00000  Uiso   1.00
C1097  C     0.89662   0.39373   0.37856   0.00000  Uiso   1.00
C1098  C     0.88294   0.32708   0.58466   0.00000  Uiso   1.00
C1099  C     0.85640   0.28615   0.57383   0.00000  Uiso   1.00
C1100  C     0.58752   0.13728   0.41559   0.00000  Uiso   1.00
C1101  C     0.60246   0.10288   0.37929   0.00000  Uiso   1.00
C1102  C     0.62876   0.43194   0.41955   0.00000  Uiso   1.00
C1103  C     0.60659   0.47463   0.43659   0.00000  Uiso   1.00
C1104  C     0.81972   0.13088   0.57262   0.00000  Uiso   1.00
C1105  C     0.82079   0.17999   0.59049   0.00000  Uiso   1.00
C1106  C     0.87328   0.06500   0.42125   0.00000  Uiso   1.00
C1107  C     0.69010   0.44124   0.49997   0.00000  Uiso   1.00
C1108  C     0.89337   0.02205   0.44001   0.00000  Uiso   1.00
C1109  C     0.66675   0.38455   0.58327   0.00000  Uiso   1.00
C1110  C     0.65320   0.34979   0.61930   0.00000  Uiso   1.00
C1111  C     0.87086   0.43216   0.58030   0.00000  Uiso   1.00
C1112  C     0.89076   0.47595   0.56339   0.00000  Uiso   1.00
C1113  C     0.68303   0.13191   0.42818   0.00000  Uiso   1.00
C1114  C     0.68155   0.18046   0.40952   0.00000  Uiso   1.00
C1115  C     0.63243   0.07568   0.58335   0.00000  Uiso   1.00
C1116  C     0.61064   0.03188   0.57055   0.00000  Uiso   1.00
C1117  C     0.81654   0.36606   0.42971   0.00000  Uiso   1.00
C1118  C     0.80961   0.05904   0.49977   0.00000  Uiso   1.00
C1119  C     0.81773   0.31673   0.41236   0.00000  Uiso   1.00
C1120  C     0.99969   0.20969   0.35760   0.00000  Uiso   1.00
Cu1121 Cu    0.50000   0.25000   0.54689   0.00000  Uiso   1.00
Cu1122 Cu    0.50000   0.25000   0.45311   0.00000  Uiso   1.00
Cu1123 Cu    0.75000   0.00000   0.54689   0.00000  Uiso   1.00
Cu1124 Cu    0.75000   0.00000   0.45311   0.00000  Uiso   1.00
H1125  H     0.99914   0.16438   0.41798   0.00000  Uiso   1.00
H1126  H     0.50153   0.16452   0.58086   0.00000  Uiso   1.00
H1127  H     0.84413   0.31072   0.38974   0.00000  Uiso   1.00
H1128  H     0.81854   0.29307   0.44197   0.00000  Uiso   1.00
H1129  H     0.79010   0.30944   0.39210   0.00000  Uiso   1.00
H1130  H     0.78749   0.36872   0.44850   0.00000  Uiso   1.00
H1131  H     0.81739   0.39021   0.40078   0.00000  Uiso   1.00
H1132  H     0.53816   0.15084   0.62345   0.00000  Uiso   1.00
H1133  H     0.98623   0.13839   0.63098   0.00000  Uiso   1.00
H1134  H     0.74681   0.41561   0.41689   0.00000  Uiso   1.00
H1135  H     0.70885   0.40355   0.37475   0.00000  Uiso   1.00
H1136  H     0.75988   0.38727   0.36679   0.00000  Uiso   1.00
H1137  H     0.74565   0.08485   0.58311   0.00000  Uiso   1.00
H1138  H     0.71227   0.09959   0.62949   0.00000  Uiso   1.00
H1139  H     0.76391   0.11139   0.63223   0.00000  Uiso   1.00
H1140  H     0.75379   0.08428   0.41799   0.00000  Uiso   1.00
H1141  H     0.96799   0.14668   0.37169   0.00000  Uiso   1.00
H1142  H     0.79302   0.09468   0.37668   0.00000  Uiso   1.00
H1143  H     0.74259   0.11333   0.36883   0.00000  Uiso   1.00
H1144  H     0.75179   0.41460   0.58091   0.00000  Uiso   1.00
H1145  H     0.78787   0.40122   0.62433   0.00000  Uiso   1.00
H1146  H     0.73562   0.38849   0.63048   0.00000  Uiso   1.00
H1147  H     0.83205   0.20531   0.43726   0.00000  Uiso   1.00
H1148  H     0.87851   0.23638   0.44743   0.00000  Uiso   1.00
H1149  H     0.85849   0.23162   0.39009   0.00000  Uiso   1.00
H1150  H     0.91571   0.17854   0.39977   0.00000  Uiso   1.00
H1151  H     0.86987   0.15098   0.38687   0.00000  Uiso   1.00
H1152  H     0.52063   0.14096   0.36795   0.00000  Uiso   1.00
H1153  H     0.60092   0.43304   0.61468   0.00000  Uiso   1.00
H1154  H     0.57063   0.45198   0.56634   0.00000  Uiso   1.00
H1155  H     0.54700   0.43307   0.61843   0.00000  Uiso   1.00
H1156  H     0.54147   0.37814   0.55780   0.00000  Uiso   1.00
H1157  H     0.57267   0.35302   0.60252   0.00000  Uiso   1.00
H1158  H     0.66784   0.29015   0.44063   0.00000  Uiso   1.00
H1159  H     0.62012   0.26142   0.45005   0.00000  Uiso   1.00
H1160  H     0.64172   0.26356   0.39320   0.00000  Uiso   1.00
H1161  H     0.58634   0.31932   0.39984   0.00000  Uiso   1.00
H1162  H     0.63372   0.34420   0.38824   0.00000  Uiso   1.00
H1163  H     0.99603   0.33456   0.58294   0.00000  Uiso   1.00
H1164  H     0.87707   0.11911   0.64343   0.00000  Uiso   1.00
H1165  H     0.88902   0.07151   0.60548   0.00000  Uiso   1.00
H1166  H     0.92615   0.09426   0.64397   0.00000  Uiso   1.00
H1167  H     0.94458   0.12389   0.57309   0.00000  Uiso   1.00
H1168  H     0.91804   0.17127   0.60084   0.00000  Uiso   1.00
H1169  H     0.67040   0.21347   0.54900   0.00000  Uiso   1.00
H1170  H     0.62350   0.24529   0.54628   0.00000  Uiso   1.00
H1171  H     0.65153   0.24233   0.59934   0.00000  Uiso   1.00
H1172  H     0.59056   0.19033   0.59869   0.00000  Uiso   1.00
H1173  H     0.63746   0.16434   0.61017   0.00000  Uiso   1.00
H1174  H     0.96141   0.34943   0.62780   0.00000  Uiso   1.00
H1175  H     0.87282   0.37763   0.35734   0.00000  Uiso   1.00
H1176  H     0.88517   0.42584   0.39427   0.00000  Uiso   1.00
H1177  H     0.92168   0.40272   0.35495   0.00000  Uiso   1.00
H1178  H     0.94131   0.37459   0.42632   0.00000  Uiso   1.00
H1179  H     0.91560   0.32625   0.39921   0.00000  Uiso   1.00
H1180  H     0.82729   0.29741   0.55874   0.00000  Uiso   1.00
H1181  H     0.87200   0.26255   0.54953   0.00000  Uiso   1.00
H1182  H     0.85002   0.26786   0.60626   0.00000  Uiso   1.00
H1183  H     0.91153   0.31467   0.59869   0.00000  Uiso   1.00
H1184  H     0.86780   0.34604   0.61301   0.00000  Uiso   1.00
H1185  H     0.51294   0.36142   0.63268   0.00000  Uiso   1.00
H1186  H     0.62611   0.11826   0.35734   0.00000  Uiso   1.00
H1187  H     0.61404   0.07131   0.39545   0.00000  Uiso   1.00
H1188  H     0.57720   0.09307   0.35633   0.00000  Uiso   1.00
H1189  H     0.55796   0.12397   0.42724   0.00000  Uiso   1.00
H1190  H     0.58406   0.17115   0.39909   0.00000  Uiso   1.00
H1191  H     0.57904   0.46502   0.45611   0.00000  Uiso   1.00
H1192  H     0.62643   0.49568   0.45886   0.00000  Uiso   1.00
H1193  H     0.59724   0.49534   0.40670   0.00000  Uiso   1.00
H1194  H     0.65718   0.44187   0.40267   0.00000  Uiso   1.00
H1195  H     0.60968   0.41676   0.39211   0.00000  Uiso   1.00
H1196  H     0.50135   0.33588   0.41931   0.00000  Uiso   1.00
H1197  H     0.84810   0.18659   0.61126   0.00000  Uiso   1.00
H1198  H     0.81950   0.20374   0.56101   0.00000  Uiso   1.00
H1199  H     0.79407   0.18652   0.61269   0.00000  Uiso   1.00
H1200  H     0.79033   0.12862   0.55487   0.00000  Uiso   1.00
H1201  H     0.82155   0.10617   0.60101   0.00000  Uiso   1.00
H1202  H     0.91974   0.03117   0.46168   0.00000  Uiso   1.00
H1203  H     0.87161   0.00188   0.46052   0.00000  Uiso   1.00
H1204  H     0.90422   0.00056   0.41099   0.00000  Uiso   1.00
H1205  H     0.84515   0.05579   0.40333   0.00000  Uiso   1.00
H1206  H     0.89396   0.07854   0.39451   0.00000  Uiso   1.00
H1207  H     0.53379   0.35207   0.37341   0.00000  Uiso   1.00
H1208  H     0.63034   0.36504   0.64263   0.00000  Uiso   1.00
H1209  H     0.64098   0.31863   0.60278   0.00000  Uiso   1.00
H1210  H     0.67924   0.33960   0.64084   0.00000  Uiso   1.00
H1211  H     0.69615   0.37173   0.57026   0.00000  Uiso   1.00
H1212  H     0.67036   0.41815   0.60065   0.00000  Uiso   1.00
H1213  H     0.91715   0.46791   0.54110   0.00000  Uiso   1.00
H1214  H     0.86894   0.49712   0.54411   0.00000  Uiso   1.00
H1215  H     0.90163   0.49588   0.59336   0.00000  Uiso   1.00
H1216  H     0.84230   0.44008   0.59829   0.00000  Uiso   1.00
H1217  H     0.89139   0.41804   0.60678   0.00000  Uiso   1.00
H1218  H     0.98141   0.36004   0.36977   0.00000  Uiso   1.00
H1219  H     0.65492   0.18556   0.38733   0.00000  Uiso   1.00
H1220  H     0.68116   0.20509   0.43863   0.00000  Uiso   1.00
H1221  H     0.70892   0.18707   0.38851   0.00000  Uiso   1.00
H1222  H     0.71199   0.13069   0.44699   0.00000  Uiso   1.00
H1223  H     0.68258   0.10656   0.39987   0.00000  Uiso   1.00
H1224  H     0.58124   0.03966   0.55406   0.00000  Uiso   1.00
H1225  H     0.62920   0.01037   0.54711   0.00000  Uiso   1.00
H1226  H     0.60497   0.01277   0.60262   0.00000  Uiso   1.00
H1227  H     0.66137   0.06720   0.59933   0.00000  Uiso   1.00
H1228  H     0.61385   0.09227   0.61051   0.00000  Uiso   1.00
N1229  N     0.50000   0.25000   0.61736   0.00000  Uiso   1.00
N1230  N     0.50000   0.25000   0.38264   0.00000  Uiso   1.00
N1231  N     0.75000   0.00000   0.61736   0.00000  Uiso   1.00
N1232  N     0.75000   0.00000   0.38264   0.00000  Uiso   1.00
O1233  O     0.54508   0.20491   0.53958   0.00000  Uiso   1.00
O1234  O     0.70491   0.04509   0.46042   0.00000  Uiso   1.00
O1235  O     0.70491   0.04509   0.53958   0.00000  Uiso   1.00
O1236  O     0.79508   0.45491   0.46042   0.00000  Uiso   1.00
O1237  O     0.70491   0.45491   0.46042   0.00000  Uiso   1.00
O1238  O     0.79508   0.04509   0.53958   0.00000  Uiso   1.00
O1239  O     0.79508   0.04509   0.46042   0.00000  Uiso   1.00
O1240  O     0.70491   0.45491   0.53958   0.00000  Uiso   1.00
O1241  O     0.95491   0.29509   0.46042   0.00000  Uiso   1.00
O1242  O     0.95491   0.29509   0.53958   0.00000  Uiso   1.00
O1243  O     0.54508   0.20491   0.46042   0.00000  Uiso   1.00
O1244  O     0.95491   0.20491   0.46042   0.00000  Uiso   1.00
O1245  O     0.54508   0.29509   0.53958   0.00000  Uiso   1.00
O1246  O     0.54508   0.29509   0.46042   0.00000  Uiso   1.00
O1247  O     0.95491   0.20491   0.53958   0.00000  Uiso   1.00
O1248  O     0.79508   0.45491   0.53958   0.00000  Uiso   1.00
C1249  C     0.06015   0.69151   0.49995   0.00000  Uiso   1.00
C1250  C     0.49802   0.79018   0.64255   0.00000  Uiso   1.00
C1251  C     0.00041   0.79027   0.35832   0.00000  Uiso   1.00
C1252  C     0.00175   0.70972   0.64169   0.00000  Uiso   1.00
C1253  C     0.24793   0.95981   0.35748   0.00000  Uiso   1.00
C1254  C     0.24897   0.54019   0.64255   0.00000  Uiso   1.00
C1255  C     0.25231   0.54010   0.35818   0.00000  Uiso   1.00
C1256  C     0.25095   0.95973   0.64168   0.00000  Uiso   1.00
C1257  C     0.38919   0.64122   0.45753   0.00000  Uiso   1.00
C1258  C     0.10249   0.86836   0.53911   0.00000  Uiso   1.00
C1259  C     0.11237   0.85731   0.45764   0.00000  Uiso   1.00
C1260  C     0.44004   0.80885   0.50018   0.00000  Uiso   1.00
C1261  C     0.39004   0.63991   0.54085   0.00000  Uiso   1.00
C1262  C     0.11441   0.64767   0.54210   0.00000  Uiso   1.00
C1263  C     0.38769   0.85746   0.45934   0.00000  Uiso   1.00
C1264  C     0.38790   0.85706   0.54261   0.00000  Uiso   1.00
C1265  C     0.11219   0.64155   0.45909   0.00000  Uiso   1.00
C1266  C     0.13484   0.89809   0.45845   0.00000  Uiso   1.00
C1267  C     0.35204   0.61921   0.53818   0.00000  Uiso   1.00
C1268  C     0.36673   0.60046   0.45903   0.00000  Uiso   1.00
C1269  C     0.14051   0.88919   0.54091   0.00000  Uiso   1.00
C1270  C     0.36545   0.89787   0.54134   0.00000  Uiso   1.00
C1271  C     0.44047   0.69065   0.49986   0.00000  Uiso   1.00
C1272  C     0.15010   0.62059   0.46200   0.00000  Uiso   1.00
C1273  C     0.13688   0.60685   0.54227   0.00000  Uiso   1.00
C1274  C     0.34980   0.87842   0.46265   0.00000  Uiso   1.00
C1275  C     0.09191   0.84468   0.49864   0.00000  Uiso   1.00
C1276  C     0.40644   0.65731   0.49938   0.00000  Uiso   1.00
C1277  C     0.40508   0.84106   0.50068   0.00000  Uiso   1.00
C1278  C     0.09569   0.66026   0.50022   0.00000  Uiso   1.00
C1279  C     0.34320   0.59262   0.49894   0.00000  Uiso   1.00
C1280  C     0.15510   0.90941   0.49985   0.00000  Uiso   1.00
C1281  C     0.15874   0.59530   0.50175   0.00000  Uiso   1.00
C1282  C     0.05923   0.80968   0.49969   0.00000  Uiso   1.00
C1283  C     0.34208   0.90608   0.50139   0.00000  Uiso   1.00
C1284  C     0.49662   0.66376   0.38081   0.00000  Uiso   1.00
C1285  C     0.49166   0.83564   0.61963   0.00000  Uiso   1.00
C1286  C     0.00455   0.83616   0.38220   0.00000  Uiso   1.00
C1287  C     0.00733   0.66415   0.61749   0.00000  Uiso   1.00
C1288  C     0.24034   0.91468   0.38060   0.00000  Uiso   1.00
C1289  C     0.24222   0.58573   0.61996   0.00000  Uiso   1.00
C1290  C     0.26108   0.58495   0.38194   0.00000  Uiso   1.00
C1291  C     0.25703   0.91424   0.61764   0.00000  Uiso   1.00
C1292  C     0.38622   0.66981   0.41429   0.00000  Uiso   1.00
C1293  C     0.30932   0.94063   0.50025   0.00000  Uiso   1.00
C1294  C     0.36237   0.71350   0.42311   0.00000  Uiso   1.00
C1295  C     0.07110   0.87894   0.57510   0.00000  Uiso   1.00
C1296  C     0.07293   0.92725   0.59488   0.00000  Uiso   1.00
C1297  C     0.11571   0.82707   0.41528   0.00000  Uiso   1.00
C1298  C     0.13766   0.78278   0.42581   0.00000  Uiso   1.00
C1299  C     0.41487   0.63707   0.58454   0.00000  Uiso   1.00
C1300  C     0.40057   0.60339   0.62127   0.00000  Uiso   1.00
C1301  C     0.11939   0.68042   0.58254   0.00000  Uiso   1.00
C1302  C     0.14253   0.72306   0.56814   0.00000  Uiso   1.00
C1303  C     0.41190   0.86054   0.41523   0.00000  Uiso   1.00
C1304  C     0.19093   0.55981   0.50046   0.00000  Uiso   1.00
C1305  C     0.39662   0.89373   0.37856   0.00000  Uiso   1.00
C1306  C     0.38294   0.82708   0.58466   0.00000  Uiso   1.00
C1307  C     0.35640   0.78615   0.57383   0.00000  Uiso   1.00
C1308  C     0.08752   0.63728   0.41559   0.00000  Uiso   1.00
C1309  C     0.10246   0.60288   0.37929   0.00000  Uiso   1.00
C1310  C     0.12876   0.93194   0.41955   0.00000  Uiso   1.00
C1311  C     0.10659   0.97463   0.43659   0.00000  Uiso   1.00
C1312  C     0.31972   0.63088   0.57262   0.00000  Uiso   1.00
C1313  C     0.32079   0.67999   0.59049   0.00000  Uiso   1.00
C1314  C     0.37328   0.56500   0.42125   0.00000  Uiso   1.00
C1315  C     0.19010   0.94124   0.49997   0.00000  Uiso   1.00
C1316  C     0.39337   0.52205   0.44001   0.00000  Uiso   1.00
C1317  C     0.16675   0.88455   0.58327   0.00000  Uiso   1.00
C1318  C     0.15320   0.84979   0.61930   0.00000  Uiso   1.00
C1319  C     0.37086   0.93216   0.58030   0.00000  Uiso   1.00
C1320  C     0.39076   0.97595   0.56339   0.00000  Uiso   1.00
C1321  C     0.18303   0.63191   0.42818   0.00000  Uiso   1.00
C1322  C     0.18155   0.68046   0.40952   0.00000  Uiso   1.00
C1323  C     0.13243   0.57568   0.58335   0.00000  Uiso   1.00
C1324  C     0.11064   0.53188   0.57055   0.00000  Uiso   1.00
C1325  C     0.31654   0.86606   0.42971   0.00000  Uiso   1.00
C1326  C     0.30961   0.55904   0.49977   0.00000  Uiso   1.00
C1327  C     0.31773   0.81673   0.41236   0.00000  Uiso   1.00
C1328  C     0.49969   0.70969   0.35760   0.00000  Uiso   1.00
Cu1329 Cu    0.00000   0.75000   0.54689   0.00000  Uiso   1.00
Cu1330 Cu   -0.00000   0.75000   0.45311   0.00000  Uiso   1.00
Cu1331 Cu    0.25000   0.50000   0.54689   0.00000  Uiso   1.00
Cu1332 Cu    0.25000   0.50000   0.45311   0.00000  Uiso   1.00
H1333  H     0.49914   0.66438   0.41798   0.00000  Uiso   1.00
H1334  H     0.00153   0.66452   0.58086   0.00000  Uiso   1.00
H1335  H     0.34413   0.81072   0.38974   0.00000  Uiso   1.00
H1336  H     0.31854   0.79307   0.44197   0.00000  Uiso   1.00
H1337  H     0.29010   0.80944   0.39210   0.00000  Uiso   1.00
H1338  H     0.28749   0.86872   0.44850   0.00000  Uiso   1.00
H1339  H     0.31739   0.89021   0.40078   0.00000  Uiso   1.00
H1340  H     0.03816   0.65084   0.62345   0.00000  Uiso   1.00
H1341  H     0.48623   0.63839   0.63098   0.00000  Uiso   1.00
H1342  H     0.24681   0.91561   0.41689   0.00000  Uiso   1.00
H1343  H     0.20885   0.90355   0.37475   0.00000  Uiso   1.00
H1344  H     0.25988   0.88727   0.36679   0.00000  Uiso   1.00
H1345  H     0.24565   0.58485   0.58311   0.00000  Uiso   1.00
H1346  H     0.21227   0.59959   0.62949   0.00000  Uiso   1.00
H1347  H     0.26391   0.61139   0.63223   0.00000  Uiso   1.00
H1348  H     0.25379   0.58428   0.41799   0.00000  Uiso   1.00
H1349  H     0.46799   0.64668   0.37169   0.00000  Uiso   1.00
H1350  H     0.29302   0.59468   0.37668   0.00000  Uiso   1.00
H1351  H     0.24259   0.61333   0.36883   0.00000  Uiso   1.00
H1352  H     0.25179   0.91460   0.58091   0.00000  Uiso   1.00
H1353  H     0.28787   0.90122   0.62433   0.00000  Uiso   1.00
H1354  H     0.23562   0.88849   0.63048   0.00000  Uiso   1.00
H1355  H     0.33205   0.70531   0.43726   0.00000  Uiso   1.00
H1356  H     0.37851   0.73638   0.44743   0.00000  Uiso   1.00
H1357  H     0.35849   0.73162   0.39009   0.00000  Uiso   1.00
H1358  H     0.41571   0.67854   0.39977   0.00000  Uiso   1.00
H1359  H     0.36987   0.65098   0.38687   0.00000  Uiso   1.00
H1360  H     0.02063   0.64096   0.36795   0.00000  Uiso   1.00
H1361  H     0.10092   0.93304   0.61468   0.00000  Uiso   1.00
H1362  H     0.07063   0.95198   0.56634   0.00000  Uiso   1.00
H1363  H     0.04700   0.93307   0.61843   0.00000  Uiso   1.00
H1364  H     0.04147   0.87814   0.55780   0.00000  Uiso   1.00
H1365  H     0.07267   0.85302   0.60252   0.00000  Uiso   1.00
H1366  H     0.16784   0.79015   0.44063   0.00000  Uiso   1.00
H1367  H     0.12012   0.76142   0.45005   0.00000  Uiso   1.00
H1368  H     0.14172   0.76356   0.39320   0.00000  Uiso   1.00
H1369  H     0.08634   0.81932   0.39984   0.00000  Uiso   1.00
H1370  H     0.13372   0.84420   0.38824   0.00000  Uiso   1.00
H1371  H     0.49603   0.83456   0.58294   0.00000  Uiso   1.00
H1372  H     0.37707   0.61911   0.64343   0.00000  Uiso   1.00
H1373  H     0.38902   0.57151   0.60548   0.00000  Uiso   1.00
H1374  H     0.42615   0.59426   0.64397   0.00000  Uiso   1.00
H1375  H     0.44458   0.62389   0.57309   0.00000  Uiso   1.00
H1376  H     0.41804   0.67127   0.60084   0.00000  Uiso   1.00
H1377  H     0.17040   0.71347   0.54900   0.00000  Uiso   1.00
H1378  H     0.12350   0.74529   0.54628   0.00000  Uiso   1.00
H1379  H     0.15153   0.74233   0.59934   0.00000  Uiso   1.00
H1380  H     0.09056   0.69033   0.59869   0.00000  Uiso   1.00
H1381  H     0.13746   0.66434   0.61017   0.00000  Uiso   1.00
H1382  H     0.46141   0.84943   0.62780   0.00000  Uiso   1.00
H1383  H     0.37282   0.87763   0.35734   0.00000  Uiso   1.00
H1384  H     0.38517   0.92584   0.39427   0.00000  Uiso   1.00
H1385  H     0.42168   0.90272   0.35495   0.00000  Uiso   1.00
H1386  H     0.44131   0.87459   0.42632   0.00000  Uiso   1.00
H1387  H     0.41560   0.82625   0.39921   0.00000  Uiso   1.00
H1388  H     0.32729   0.79741   0.55874   0.00000  Uiso   1.00
H1389  H     0.37200   0.76255   0.54953   0.00000  Uiso   1.00
H1390  H     0.35002   0.76786   0.60626   0.00000  Uiso   1.00
H1391  H     0.41153   0.81467   0.59869   0.00000  Uiso   1.00
H1392  H     0.36780   0.84604   0.61301   0.00000  Uiso   1.00
H1393  H     0.01294   0.86142   0.63268   0.00000  Uiso   1.00
H1394  H     0.12611   0.61826   0.35734   0.00000  Uiso   1.00
H1395  H     0.11404   0.57131   0.39545   0.00000  Uiso   1.00
H1396  H     0.07720   0.59307   0.35633   0.00000  Uiso   1.00
H1397  H     0.05796   0.62397   0.42724   0.00000  Uiso   1.00
H1398  H     0.08406   0.67115   0.39909   0.00000  Uiso   1.00
H1399  H     0.07904   0.96502   0.45611   0.00000  Uiso   1.00
H1400  H     0.12643   0.99568   0.45886   0.00000  Uiso   1.00
H1401  H     0.09724   0.99534   0.40670   0.00000  Uiso   1.00
H1402  H     0.15718   0.94187   0.40267   0.00000  Uiso   1.00
H1403  H     0.10968   0.91676   0.39211   0.00000  Uiso   1.00
H1404  H     0.00135   0.83588   0.41931   0.00000  Uiso   1.00
H1405  H     0.34810   0.68659   0.61126   0.00000  Uiso   1.00
H1406  H     0.31950   0.70374   0.56101   0.00000  Uiso   1.00
H1407  H     0.29407   0.68652   0.61269   0.00000  Uiso   1.00
H1408  H     0.29033   0.62862   0.55487   0.00000  Uiso   1.00
H1409  H     0.32155   0.60617   0.60101   0.00000  Uiso   1.00
H1410  H     0.41974   0.53117   0.46168   0.00000  Uiso   1.00
H1411  H     0.37161   0.50188   0.46052   0.00000  Uiso   1.00
H1412  H     0.40422   0.50056   0.41099   0.00000  Uiso   1.00
H1413  H     0.34515   0.55579   0.40333   0.00000  Uiso   1.00
H1414  H     0.39396   0.57854   0.39451   0.00000  Uiso   1.00
H1415  H     0.03379   0.85207   0.37341   0.00000  Uiso   1.00
H1416  H     0.13034   0.86504   0.64263   0.00000  Uiso   1.00
H1417  H     0.14098   0.81863   0.60278   0.00000  Uiso   1.00
H1418  H     0.17924   0.83960   0.64084   0.00000  Uiso   1.00
H1419  H     0.19615   0.87173   0.57026   0.00000  Uiso   1.00
H1420  H     0.17036   0.91815   0.60065   0.00000  Uiso   1.00
H1421  H     0.41715   0.96791   0.54110   0.00000  Uiso   1.00
H1422  H     0.36894   0.99712   0.54411   0.00000  Uiso   1.00
H1423  H     0.40163   0.99588   0.59336   0.00000  Uiso   1.00
H1424  H     0.34230   0.94008   0.59829   0.00000  Uiso   1.00
H1425  H     0.39139   0.91804   0.60678   0.00000  Uiso   1.00
H1426  H     0.48141   0.86004   0.36977   0.00000  Uiso   1.00
H1427  H     0.15492   0.68556   0.38733   0.00000  Uiso   1.00
H1428  H     0.18116   0.70509   0.43863   0.00000  Uiso   1.00
H1429  H     0.20892   0.68707   0.38851   0.00000  Uiso   1.00
H1430  H     0.21199   0.63069   0.44699   0.00000  Uiso   1.00
H1431  H     0.18258   0.60656   0.39987   0.00000  Uiso   1.00
H1432  H     0.08124   0.53966   0.55406   0.00000  Uiso   1.00
H1433  H     0.12920   0.51037   0.54711   0.00000  Uiso   1.00
H1434  H     0.10497   0.51277   0.60262   0.00000  Uiso   1.00
H1435  H     0.16137   0.56720   0.59933   0.00000  Uiso   1.00
H1436  H     0.11385   0.59227   0.61051   0.00000  Uiso   1.00
N1437  N     0.00000   0.75000   0.61736   0.00000  Uiso   1.00
N1438  N    -0.00000   0.75000   0.38264   0.00000  Uiso   1.00
N1439  N     0.25000   0.50000   0.61736   0.00000  Uiso   1.00
N1440  N     0.25000   0.50000   0.38264   0.00000  Uiso   1.00
O1441  O     0.04508   0.70491   0.53958   0.00000  Uiso   1.00
O1442  O     0.20491   0.54509   0.46042   0.00000  Uiso   1.00
O1443  O     0.20491   0.54509   0.53958   0.00000  Uiso   1.00
O1444  O     0.29508   0.95491   0.46042   0.00000  Uiso   1.00
O1445  O     0.20491   0.95491   0.46042   0.00000  Uiso   1.00
O1446  O     0.29508   0.54509   0.53958   0.00000  Uiso   1.00
O1447  O     0.29508   0.54509   0.46042   0.00000  Uiso   1.00
O1448  O     0.20491   0.95491   0.53958   0.00000  Uiso   1.00
O1449  O     0.45491   0.79509   0.46042   0.00000  Uiso   1.00
O1450  O     0.45491   0.79509   0.53958   0.00000  Uiso   1.00
O1451  O     0.04508   0.70491   0.46042   0.00000  Uiso   1.00
O1452  O     0.45491   0.70491   0.46042   0.00000  Uiso   1.00
O1453  O     0.04508   0.79509   0.53958   0.00000  Uiso   1.00
O1454  O     0.04508   0.79509   0.46042   0.00000  Uiso   1.00
O1455  O     0.45491   0.70491   0.53958   0.00000  Uiso   1.00
O1456  O     0.29508   0.95491   0.53958   0.00000  Uiso   1.00
C1457  C     0.56015   0.69151   0.49995   0.00000  Uiso   1.00
C1458  C     0.99802   0.79018   0.64255   0.00000  Uiso   1.00
C1459  C     0.50041   0.79027   0.35832   0.00000  Uiso   1.00
C1460  C     0.50175   0.70972   0.64169   0.00000  Uiso   1.00
C1461  C     0.74793   0.95981   0.35748   0.00000  Uiso   1.00
C1462  C     0.74897   0.54019   0.64255   0.00000  Uiso   1.00
C1463  C     0.75231   0.54010   0.35818   0.00000  Uiso   1.00
C1464  C     0.75095   0.95973   0.64168   0.00000  Uiso   1.00
C1465  C     0.88919   0.64122   0.45753   0.00000  Uiso   1.00
C1466  C     0.60249   0.86836   0.53911   0.00000  Uiso   1.00
C1467  C     0.61237   0.85731   0.45764   0.00000  Uiso   1.00
C1468  C     0.94004   0.80885   0.50018   0.00000  Uiso   1.00
C1469  C     0.89004   0.63991   0.54085   0.00000  Uiso   1.00
C1470  C     0.61441   0.64767   0.54210   0.00000  Uiso   1.00
C1471  C     0.88769   0.85746   0.45934   0.00000  Uiso   1.00
C1472  C     0.88790   0.85706   0.54261   0.00000  Uiso   1.00
C1473  C     0.61219   0.64155   0.45909   0.00000  Uiso   1.00
C1474  C     0.63484   0.89809   0.45845   0.00000  Uiso   1.00
C1475  C     0.85204   0.61921   0.53818   0.00000  Uiso   1.00
C1476  C     0.86673   0.60046   0.45903   0.00000  Uiso   1.00
C1477  C     0.64051   0.88919   0.54091   0.00000  Uiso   1.00
C1478  C     0.86545   0.89787   0.54134   0.00000  Uiso   1.00
C1479  C     0.94047   0.69065   0.49986   0.00000  Uiso   1.00
C1480  C     0.65010   0.62059   0.46200   0.00000  Uiso   1.00
C1481  C     0.63688   0.60685   0.54227   0.00000  Uiso   1.00
C1482  C     0.84980   0.87842   0.46265   0.00000  Uiso   1.00
C1483  C     0.59191   0.84468   0.49864   0.00000  Uiso   1.00
C1484  C     0.90644   0.65731   0.49938   0.00000  Uiso   1.00
C1485  C     0.90508   0.84106   0.50068   0.00000  Uiso   1.00
C1486  C     0.59569   0.66026   0.50022   0.00000  Uiso   1.00
C1487  C     0.84320   0.59262   0.49894   0.00000  Uiso   1.00
C1488  C     0.65510   0.90941   0.49985   0.00000  Uiso   1.00
C1489  C     0.65874   0.59530   0.50175   0.00000  Uiso   1.00
C1490  C     0.55923   0.80968   0.49969   0.00000  Uiso   1.00
C1491  C     0.84208   0.90608   0.50139   0.00000  Uiso   1.00
C1492  C     0.99662   0.66376   0.38081   0.00000  Uiso   1.00
C1493  C     0.99166   0.83564   0.61963   0.00000  Uiso   1.00
C1494  C     0.50455   0.83616   0.38220   0.00000  Uiso   1.00
C1495  C     0.50733   0.66415   0.61749   0.00000  Uiso   1.00
C1496  C     0.74034   0.91468   0.38060   0.00000  Uiso   1.00
C1497  C     0.74222   0.58573   0.61996   0.00000  Uiso   1.00
C1498  C     0.76108   0.58495   0.38194   0.00000  Uiso   1.00
C1499  C     0.75703   0.91424   0.61764   0.00000  Uiso   1.00
C1500  C     0.88622   0.66981   0.41429   0.00000  Uiso   1.00
C1501  C     0.80932   0.94063   0.50025   0.00000  Uiso   1.00
C1502  C     0.86237   0.71350   0.42311   0.00000  Uiso   1.00
C1503  C     0.57110   0.87894   0.57510   0.00000  Uiso   1.00
C1504  C     0.57293   0.92725   0.59488   0.00000  Uiso   1.00
C1505  C     0.61571   0.82707   0.41528   0.00000  Uiso   1.00
C1506  C     0.63766   0.78278   0.42581   0.00000  Uiso   1.00
C1507  C     0.91487   0.63707   0.58454   0.00000  Uiso   1.00
C1508  C     0.90057   0.60339   0.62127   0.00000  Uiso   1.00
C1509  C     0.61939   0.68042   0.58254   0.00000  Uiso   1.00
C1510  C     0.64253   0.72306   0.56814   0.00000  Uiso   1.00
C1511  C     0.91190   0.86054   0.41523   0.00000  Uiso   1.00
C1512  C     0.69093   0.55981   0.50046   0.00000  Uiso   1.00
C1513  C     0.89662   0.89373   0.37856   0.00000  Uiso   1.00
C1514  C     0.88294   0.82708   0.58466   0.00000  Uiso   1.00
C1515  C     0.85640   0.78615   0.57383   0.00000  Uiso   1.00
C1516  C     0.58752   0.63728   0.41559   0.00000  Uiso   1.00
C1517  C     0.60246   0.60288   0.37929   0.00000  Uiso   1.00
C1518  C     0.62876   0.93194   0.41955   0.00000  Uiso   1.00
C1519  C     0.60659   0.97463   0.43659   0.00000  Uiso   1.00
C1520  C     0.81972   0.63088   0.57262   0.00000  Uiso   1.00
C1521  C     0.82079   0.67999   0.59049   0.00000  Uiso   1.00
C1522  C     0.87328   0.56500   0.42125   0.00000  Uiso   1.00
C1523  C     0.69010   0.94124   0.49997   0.00000  Uiso   1.00
C1524  C     0.89337   0.52205   0.44001   0.00000  Uiso   1.00
C1525  C     0.66675   0.88455   0.58327   0.00000  Uiso   1.00
C1526  C     0.65320   0.84979   0.61930   0.00000  Uiso   1.00
C1527  C     0.87086   0.93216   0.58030   0.00000  Uiso   1.00
C1528  C     0.89076   0.97595   0.56339   0.00000  Uiso   1.00
C1529  C     0.68303   0.63191   0.42818   0.00000  Uiso   1.00
C1530  C     0.68155   0.68046   0.40952   0.00000  Uiso   1.00
C1531  C     0.63243   0.57568   0.58335   0.00000  Uiso   1.00
C1532  C     0.61064   0.53188   0.57055   0.00000  Uiso   1.00
C1533  C     0.81654   0.86606   0.42971   0.00000  Uiso   1.00
C1534  C     0.80961   0.55904   0.49977   0.00000  Uiso   1.00
C1535  C     0.81773   0.81673   0.41236   0.00000  Uiso   1.00
C1536  C     0.99969   0.70969   0.35760   0.00000  Uiso   1.00
Cu1537 Cu    0.50000   0.75000   0.54689   0.00000  Uiso   1.00
Cu1538 Cu    0.50000   0.75000   0.45311   0.00000  Uiso   1.00
Cu1539 Cu    0.75000   0.50000   0.54689   0.00000  Uiso   1.00
Cu1540 Cu    0.75000   0.50000   0.45311   0.00000  Uiso   1.00
H1541  H     0.99914   0.66438   0.41798   0.00000  Uiso   1.00
H1542  H     0.50153   0.66452   0.58086   0.00000  Uiso   1.00
H1543  H     0.84413   0.81072   0.38974   0.00000  Uiso   1.00
H1544  H     0.81854   0.79307   0.44197   0.00000  Uiso   1.00
H1545  H     0.79010   0.80944   0.39210   0.00000  Uiso   1.00
H1546  H     0.78749   0.86872   0.44850   0.00000  Uiso   1.00
H1547  H     0.81739   0.89021   0.40078   0.00000  Uiso   1.00
H1548  H     0.53816   0.65084   0.62345   0.00000  Uiso   1.00
H1549  H     0.98623   0.63839   0.63098   0.00000  Uiso   1.00
H1550  H     0.74681   0.91561   0.41689   0.00000  Uiso   1.00
H1551  H     0.70885   0.90355   0.37475   0.00000  Uiso   1.00
H1552  H     0.75988   0.88727   0.36679   0.00000  Uiso   1.00
H1553  H     0.74565   0.58485   0.58311   0.00000  Uiso   1.00
H1554  H     0.71227   0.59959   0.62949   0.00000  Uiso   1.00
H1555  H     0.76391   0.61139   0.63223   0.00000  Uiso   1.00
H1556  H     0.75379   0.58428   0.41799   0.00000  Uiso   1.00
H1557  H     0.96799   0.64668   0.37169   0.00000  Uiso   1.00
H1558  H     0.79302   0.59468   0.37668   0.00000  Uiso   1.00
H1559  H     0.74259   0.61333   0.36883   0.00000  Uiso   1.00
H1560  H     0.75179   0.91460   0.58091   0.00000  Uiso   1.00
H1561  H     0.78787   0.90122   0.62433   0.00000  Uiso   1.00
H1562  H     0.73562   0.88849   0.63048   0.00000  Uiso   1.00
H1563  H     0.83205   0.70531   0.43726   0.00000  Uiso   1.00
H1564  H     0.87851   0.73638   0.44743   0.00000  Uiso   1.00
H1565  H     0.85849   0.73162   0.39009   0.00000  Uiso   1.00
H1566  H     0.91571   0.67854   0.39977   0.00000  Uiso   1.00
H1567  H     0.86987   0.65098   0.38687   0.00000  Uiso   1.00
H1568  H     0.52063   0.64096   0.36795   0.00000  Uiso   1.00
H1569  H     0.60092   0.93304   0.61468   0.00000  Uiso   1.00
H1570  H     0.57063   0.95198   0.56634   0.00000  Uiso   1.00
H1571  H     0.54700   0.93307   0.61843   0.00000  Uiso   1.00
H1572  H     0.54147   0.87814   0.55780   0.00000  Uiso   1.00
H1573  H     0.57267   0.85302   0.60252   0.00000  Uiso   1.00
H1574  H     0.66784   0.79015   0.44063   0.00000  Uiso   1.00
H1575  H     0.62012   0.76142   0.45005   0.00000  Uiso   1.00
H1576  H     0.64172   0.76356   0.39320   0.00000  Uiso   1.00
H1577  H     0.58634   0.81932   0.39984   0.00000  Uiso   1.00
H1578  H     0.63372   0.84420   0.38824   0.00000  Uiso   1.00
H1579  H     0.99603   0.83456   0.58294   0.00000  Uiso   1.00
H1580  H     0.87707   0.61911   0.64343   0.00000  Uiso   1.00
H1581  H     0.88902   0.57151   0.60548   0.00000  Uiso   1.00
H1582  H     0.92615   0.59426   0.64397   0.00000  Uiso   1.00
H1583  H     0.94458   0.62389   0.57309   0.00000  Uiso   1.00
H1584  H     0.91804   0.67127   0.60084   0.00000  Uiso   1.00
H1585  H     0.67040   0.71347   0.54900   0.00000  Uiso   1.00
H1586  H     0.62350   0.74529   0.54628   0.00000  Uiso   1.00
H1587  H     0.65153   0.74233   0.59934   0.00000  Uiso   1.00
H1588  H     0.59056   0.69033   0.59869   0.00000  Uiso   1.00
H1589  H     0.63746   0.66434   0.61017   0.00000  Uiso   1.00
H1590  H     0.96141   0.84943   0.62780   0.00000  Uiso   1.00
H1591  H     0.87282   0.87763   0.35734   0.00000  Uiso   1.00
H1592  H     0.88517   0.92584   0.39427   0.00000  Uiso   1.00
H1593  H     0.92168   0.90272   0.35495   0.00000  Uiso   1.00
H1594  H     0.94131   0.87459   0.42632   0.00000  Uiso   1.00
H1595  H     0.91560   0.82625   0.39921   0.00000  Uiso   1.00
H1596  H     0.82729   0.79741   0.55874   0.00000  Uiso   1.00
H1597  H     0.87200   0.76255   0.54953   0.00000  Uiso   1.00
H1598  H     0.85002   0.76786   0.60626   0.00000  Uiso   1.00
H1599  H     0.91153   0.81467   0.59869   0.00000  Uiso   1.00
H1600  H     0.86780   0.84604   0.61301   0.00000  Uiso   1.00
H1601  H     0.51294   0.86142   0.63268   0.00000  Uiso   1.00
H1602  H     0.62611   0.61826   0.35734   0.00000  Uiso   1.00
H1603  H     0.61404   0.57131   0.39545   0.00000  Uiso   1.00
H1604  H     0.57720   0.59307   0.35633   0.00000  Uiso   1.00
H1605  H     0.55796   0.62397   0.42724   0.00000  Uiso   1.00
H1606  H     0.58406   0.67115   0.39909   0.00000  Uiso   1.00
H1607  H     0.57904   0.96502   0.45611   0.00000  Uiso   1.00
H1608  H     0.62643   0.99568   0.45886   0.00000  Uiso   1.00
H1609  H     0.59724   0.99534   0.40670   0.00000  Uiso   1.00
H1610  H     0.65718   0.94187   0.40267   0.00000  Uiso   1.00
H1611  H     0.60968   0.91676   0.39211   0.00000  Uiso   1.00
H1612  H     0.50135   0.83588   0.41931   0.00000  Uiso   1.00
H1613  H     0.84810   0.68659   0.61126   0.00000  Uiso   1.00
H1614  H     0.81950   0.70374   0.56101   0.00000  Uiso   1.00
H1615  H     0.79407   0.68652   0.61269   0.00000  Uiso   1.00
H1616  H     0.79033   0.62862   0.55487   0.00000  Uiso   1.00
H1617  H     0.82155   0.60617   0.60101   0.00000  Uiso   1.00
H1618  H     0.91974   0.53117   0.46168   0.00000  Uiso   1.00
H1619  H     0.87161   0.50188   0.46052   0.00000  Uiso   1.00
H1620  H     0.90422   0.50056   0.41099   0.00000  Uiso   1.00
H1621  H     0.84515   0.55579   0.40333   0.00000  Uiso   1.00
H1622  H     0.89396   0.57854   0.39451   0.00000  Uiso   1.00
H1623  H     0.53379   0.85207   0.37341   0.00000  Uiso   1.00
H1624  H     0.63034   0.86504   0.64263   0.00000  Uiso   1.00
H1625  H     0.64098   0.81863   0.60278   0.00000  Uiso   1.00
H1626  H     0.67924   0.83960   0.64084   0.00000  Uiso   1.00
H1627  H     0.69615   0.87173   0.57026   0.00000  Uiso   1.00
H1628  H     0.67036   0.91815   0.60065   0.00000  Uiso   1.00
H1629  H     0.91715   0.96791   0.54110   0.00000  Uiso   1.00
H1630  H     0.86894   0.99712   0.54411   0.00000  Uiso   1.00
H1631  H     0.90163   0.99588   0.59336   0.00000  Uiso   1.00
H1632  H     0.84230   0.94008   0.59829   0.00000  Uiso   1.00
H1633  H     0.89139   0.91804   0.60678   0.00000  Uiso   1.00
H1634  H     0.98141   0.86004   0.36977   0.00000  Uiso   1.00
H1635  H     0.65492   0.68556   0.38733   0.00000  Uiso   1.00
H1636  H     0.68116   0.70509   0.43863   0.00000  Uiso   1.00
H1637  H     0.70892   0.68707   0.38851   0.00000  Uiso   1.00
H1638  H     0.71199   0.63069   0.44699   0.00000  Uiso   1.00
H1639  H     0.68258   0.60656   0.39987   0.00000  Uiso   1.00
H1640  H     0.58124   0.53966   0.55406   0.00000  Uiso   1.00
H1641  H     0.62920   0.51037   0.54711   0.00000  Uiso   1.00
H1642  H     0.60497   0.51277   0.60262   0.00000  Uiso   1.00
H1643  H     0.66137   0.56720   0.59933   0.00000  Uiso   1.00
H1644  H     0.61385   0.59227   0.61051   0.00000  Uiso   1.00
N1645  N     0.50000   0.75000   0.61736   0.00000  Uiso   1.00
N1646  N     0.50000   0.75000   0.38264   0.00000  Uiso   1.00
N1647  N     0.75000   0.50000   0.61736   0.00000  Uiso   1.00
N1648  N     0.75000   0.50000   0.38264   0.00000  Uiso   1.00
O1649  O     0.54508   0.70491   0.53958   0.00000  Uiso   1.00
O1650  O     0.70491   0.54509   0.46042   0.00000  Uiso   1.00
O1651  O     0.70491   0.54509   0.53958   0.00000  Uiso   1.00
O1652  O     0.79508   0.95491   0.46042   0.00000  Uiso   1.00
O1653  O     0.70491   0.95491   0.46042   0.00000  Uiso   1.00
O1654  O     0.79508   0.54509   0.53958   0.00000  Uiso   1.00
O1655  O     0.79508   0.54509   0.46042   0.00000  Uiso   1.00
O1656  O     0.70491   0.95491   0.53958   0.00000  Uiso   1.00
O1657  O     0.95491   0.79509   0.46042   0.00000  Uiso   1.00
O1658  O     0.95491   0.79509   0.53958   0.00000  Uiso   1.00
O1659  O     0.54508   0.70491   0.46042   0.00000  Uiso   1.00
O1660  O     0.95491   0.70491   0.46042   0.00000  Uiso   1.00
O1661  O     0.54508   0.79509   0.53958   0.00000  Uiso   1.00
O1662  O     0.54508   0.79509   0.46042   0.00000  Uiso   1.00
O1663  O     0.95491   0.70491   0.53958   0.00000  Uiso   1.00
O1664  O     0.79508   0.95491   0.53958   0.00000  Uiso   1.00
C1665  C     0.06015   0.19151   0.83328   0.00000  Uiso   1.00
C1666  C     0.49802   0.29018   0.97588   0.00000  Uiso   1.00
C1667  C     0.00041   0.29027   0.69166   0.00000  Uiso   1.00
C1668  C     0.00175   0.20972   0.97502   0.00000  Uiso   1.00
C1669  C     0.24793   0.45981   0.69082   0.00000  Uiso   1.00
C1670  C     0.24897   0.04019   0.97588   0.00000  Uiso   1.00
C1671  C     0.25231   0.04010   0.69151   0.00000  Uiso   1.00
C1672  C     0.25095   0.45973   0.97501   0.00000  Uiso   1.00
C1673  C     0.38919   0.14122   0.79086   0.00000  Uiso   1.00
C1674  C     0.10249   0.36836   0.87244   0.00000  Uiso   1.00
C1675  C     0.11237   0.35731   0.79097   0.00000  Uiso   1.00
C1676  C     0.44004   0.30885   0.83351   0.00000  Uiso   1.00
C1677  C     0.39004   0.13991   0.87418   0.00000  Uiso   1.00
C1678  C     0.11441   0.14767   0.87544   0.00000  Uiso   1.00
C1679  C     0.38769   0.35746   0.79267   0.00000  Uiso   1.00
C1680  C     0.38790   0.35706   0.87594   0.00000  Uiso   1.00
C1681  C     0.11219   0.14155   0.79242   0.00000  Uiso   1.00
C1682  C     0.13484   0.39809   0.79178   0.00000  Uiso   1.00
C1683  C     0.35204   0.11921   0.87151   0.00000  Uiso   1.00
C1684  C     0.36673   0.10046   0.79236   0.00000  Uiso   1.00
C1685  C     0.14051   0.38919   0.87424   0.00000  Uiso   1.00
C1686  C     0.36545   0.39787   0.87467   0.00000  Uiso   1.00
C1687  C     0.44047   0.19065   0.83319   0.00000  Uiso   1.00
C1688  C     0.15010   0.12059   0.79534   0.00000  Uiso   1.00
C1689  C     0.13688   0.10685   0.87560   0.00000  Uiso   1.00
C1690  C     0.34980   0.37842   0.79599   0.00000  Uiso   1.00
C1691  C     0.09191   0.34468   0.83197   0.00000  Uiso   1.00
C1692  C     0.40644   0.15731   0.83271   0.00000  Uiso   1.00
C1693  C     0.40508   0.34106   0.83401   0.00000  Uiso   1.00
C1694  C     0.09569   0.16026   0.83355   0.00000  Uiso   1.00
C1695  C     0.34320   0.09262   0.83228   0.00000  Uiso   1.00
C1696  C     0.15510   0.40941   0.83318   0.00000  Uiso   1.00
C1697  C     0.15874   0.09530   0.83508   0.00000  Uiso   1.00
C1698  C     0.05923   0.30968   0.83302   0.00000  Uiso   1.00
C1699  C     0.34208   0.40608   0.83473   0.00000  Uiso   1.00
C1700  C     0.49662   0.16376   0.71414   0.00000  Uiso   1.00
C1701  C     0.49166   0.33564   0.95297   0.00000  Uiso   1.00
C1702  C     0.00455   0.33616   0.71553   0.00000  Uiso   1.00
C1703  C     0.00733   0.16415   0.95083   0.00000  Uiso   1.00
C1704  C     0.24034   0.41468   0.71393   0.00000  Uiso   1.00
C1705  C     0.24222   0.08573   0.95330   0.00000  Uiso   1.00
C1706  C     0.26108   0.08495   0.71527   0.00000  Uiso   1.00
C1707  C     0.25703   0.41424   0.95097   0.00000  Uiso   1.00
C1708  C     0.38622   0.16981   0.74763   0.00000  Uiso   1.00
C1709  C     0.30932   0.44063   0.83358   0.00000  Uiso   1.00
C1710  C     0.36237   0.21350   0.75645   0.00000  Uiso   1.00
C1711  C     0.07110   0.37894   0.90843   0.00000  Uiso   1.00
C1712  C     0.07293   0.42725   0.92822   0.00000  Uiso   1.00
C1713  C     0.11571   0.32707   0.74861   0.00000  Uiso   1.00
C1714  C     0.13766   0.28278   0.75914   0.00000  Uiso   1.00
C1715  C     0.41487   0.13707   0.91788   0.00000  Uiso   1.00
C1716  C     0.40057   0.10339   0.95460   0.00000  Uiso   1.00
C1717  C     0.11939   0.18042   0.91587   0.00000  Uiso   1.00
C1718  C     0.14253   0.22306   0.90147   0.00000  Uiso   1.00
C1719  C     0.41190   0.36054   0.74857   0.00000  Uiso   1.00
C1720  C     0.19093   0.05981   0.83380   0.00000  Uiso   1.00
C1721  C     0.39662   0.39373   0.71190   0.00000  Uiso   1.00
C1722  C     0.38294   0.32708   0.91799   0.00000  Uiso   1.00
C1723  C     0.35640   0.28615   0.90716   0.00000  Uiso   1.00
C1724  C     0.08752   0.13728   0.74892   0.00000  Uiso   1.00
C1725  C     0.10246   0.10288   0.71262   0.00000  Uiso   1.00
C1726  C     0.12876   0.43194   0.75289   0.00000  Uiso   1.00
C1727  C     0.10659   0.47463   0.76992   0.00000  Uiso   1.00
C1728  C     0.31972   0.13088   0.90595   0.00000  Uiso   1.00
C1729  C     0.32079   0.17999   0.92382   0.00000  Uiso   1.00
C1730  C     0.37328   0.06500   0.75458   0.00000  Uiso   1.00
C1731  C     0.19010   0.44124   0.83330   0.00000  Uiso   1.00
C1732  C     0.39337   0.02205   0.77335   0.00000  Uiso   1.00
C1733  C     0.16675   0.38455   0.91660   0.00000  Uiso   1.00
C1734  C     0.15320   0.34979   0.95263   0.00000  Uiso   1.00
C1735  C     0.37086   0.43216   0.91364   0.00000  Uiso   1.00
C1736  C     0.39076   0.47595   0.89672   0.00000  Uiso   1.00
C1737  C     0.18303   0.13191   0.76151   0.00000  Uiso   1.00
C1738  C     0.18155   0.18046   0.74286   0.00000  Uiso   1.00
C1739  C     0.13243   0.07568   0.91668   0.00000  Uiso   1.00
C1740  C     0.11064   0.03188   0.90389   0.00000  Uiso   1.00
C1741  C     0.31654   0.36606   0.76304   0.00000  Uiso   1.00
C1742  C     0.30961   0.05904   0.83310   0.00000  Uiso   1.00
C1743  C     0.31773   0.31673   0.74569   0.00000  Uiso   1.00
C1744  C     0.49969   0.20969   0.69094   0.00000  Uiso   1.00
Cu1745 Cu    0.00000   0.25000   0.88022   0.00000  Uiso   1.00
Cu1746 Cu   -0.00000   0.25000   0.78645   0.00000  Uiso   1.00
Cu1747 Cu    0.25000   0.00000   0.88022   0.00000  Uiso   1.00
Cu1748 Cu    0.25000   0.00000   0.78645   0.00000  Uiso   1.00
H1749  H     0.49914   0.16438   0.75131   0.00000  Uiso   1.00
H1750  H     0.00153   0.16452   0.91419   0.00000  Uiso   1.00
H1751  H     0.34413   0.31072   0.72307   0.00000  Uiso   1.00
H1752  H     0.31854   0.29307   0.77530   0.00000  Uiso   1.00
H1753  H     0.29010   0.30944   0.72544   0.00000  Uiso   1.00
H1754  H     0.28749   0.36872   0.78183   0.00000  Uiso   1.00
H1755  H     0.31739   0.39021   0.73412   0.00000  Uiso   1.00
H1756  H     0.03816   0.15084   0.95678   0.00000  Uiso   1.00
H1757  H     0.48623   0.13839   0.96432   0.00000  Uiso   1.00
H1758  H     0.24681   0.41561   0.75022   0.00000  Uiso   1.00
H1759  H     0.20885   0.40355   0.70808   0.00000  Uiso   1.00
H1760  H     0.25988   0.38727   0.70012   0.00000  Uiso   1.00
H1761  H     0.24565   0.08485   0.91645   0.00000  Uiso   1.00
H1762  H     0.21227   0.09959   0.96283   0.00000  Uiso   1.00
H1763  H     0.26391   0.11139   0.96556   0.00000  Uiso   1.00
H1764  H     0.25379   0.08428   0.75133   0.00000  Uiso   1.00
H1765  H     0.46799   0.14668   0.70503   0.00000  Uiso   1.00
H1766  H     0.29302   0.09468   0.71002   0.00000  Uiso   1.00
H1767  H     0.24259   0.11333   0.70217   0.00000  Uiso   1.00
H1768  H     0.25179   0.41460   0.91424   0.00000  Uiso   1.00
H1769  H     0.28787   0.40122   0.95766   0.00000  Uiso   1.00
H1770  H     0.23562   0.38849   0.96382   0.00000  Uiso   1.00
H1771  H     0.33205   0.20531   0.77060   0.00000  Uiso   1.00
H1772  H     0.37851   0.23638   0.78076   0.00000  Uiso   1.00
H1773  H     0.35849   0.23162   0.72342   0.00000  Uiso   1.00
H1774  H     0.41571   0.17854   0.73310   0.00000  Uiso   1.00
H1775  H     0.36987   0.15098   0.72021   0.00000  Uiso   1.00
H1776  H     0.02063   0.14096   0.70128   0.00000  Uiso   1.00
H1777  H     0.10092   0.43304   0.94801   0.00000  Uiso   1.00
H1778  H     0.07063   0.45198   0.89968   0.00000  Uiso   1.00
H1779  H     0.04700   0.43307   0.95176   0.00000  Uiso   1.00
H1780  H     0.04147   0.37814   0.89113   0.00000  Uiso   1.00
H1781  H     0.07267   0.35302   0.93585   0.00000  Uiso   1.00
H1782  H     0.16784   0.29015   0.77397   0.00000  Uiso   1.00
H1783  H     0.12012   0.26142   0.78338   0.00000  Uiso   1.00
H1784  H     0.14172   0.26356   0.72654   0.00000  Uiso   1.00
H1785  H     0.08634   0.31932   0.73317   0.00000  Uiso   1.00
H1786  H     0.13372   0.34420   0.72157   0.00000  Uiso   1.00
H1787  H     0.49603   0.33456   0.91627   0.00000  Uiso   1.00
H1788  H     0.37707   0.11911   0.97677   0.00000  Uiso   1.00
H1789  H     0.38902   0.07151   0.93881   0.00000  Uiso   1.00
H1790  H     0.42615   0.09426   0.97730   0.00000  Uiso   1.00
H1791  H     0.44458   0.12389   0.90643   0.00000  Uiso   1.00
H1792  H     0.41804   0.17127   0.93417   0.00000  Uiso   1.00
H1793  H     0.17040   0.21347   0.88233   0.00000  Uiso   1.00
H1794  H     0.12350   0.24529   0.87961   0.00000  Uiso   1.00
H1795  H     0.15153   0.24233   0.93267   0.00000  Uiso   1.00
H1796  H     0.09056   0.19033   0.93202   0.00000  Uiso   1.00
H1797  H     0.13746   0.16434   0.94350   0.00000  Uiso   1.00
H1798  H     0.46141   0.34943   0.96114   0.00000  Uiso   1.00
H1799  H     0.37282   0.37763   0.69067   0.00000  Uiso   1.00
H1800  H     0.38517   0.42584   0.72761   0.00000  Uiso   1.00
H1801  H     0.42168   0.40272   0.68828   0.00000  Uiso   1.00
H1802  H     0.44131   0.37459   0.75965   0.00000  Uiso   1.00
H1803  H     0.41560   0.32625   0.73254   0.00000  Uiso   1.00
H1804  H     0.32729   0.29741   0.89208   0.00000  Uiso   1.00
H1805  H     0.37200   0.26255   0.88287   0.00000  Uiso   1.00
H1806  H     0.35002   0.26786   0.93959   0.00000  Uiso   1.00
H1807  H     0.41153   0.31467   0.93202   0.00000  Uiso   1.00
H1808  H     0.36780   0.34604   0.94634   0.00000  Uiso   1.00
H1809  H     0.01294   0.36142   0.96602   0.00000  Uiso   1.00
H1810  H     0.12611   0.11826   0.69067   0.00000  Uiso   1.00
H1811  H     0.11404   0.07131   0.72878   0.00000  Uiso   1.00
H1812  H     0.07720   0.09307   0.68966   0.00000  Uiso   1.00
H1813  H     0.05796   0.12397   0.76057   0.00000  Uiso   1.00
H1814  H     0.08406   0.17115   0.73242   0.00000  Uiso   1.00
H1815  H     0.07904   0.46502   0.78945   0.00000  Uiso   1.00
H1816  H     0.12643   0.49568   0.79220   0.00000  Uiso   1.00
H1817  H     0.09724   0.49534   0.74004   0.00000  Uiso   1.00
H1818  H     0.15718   0.44187   0.73601   0.00000  Uiso   1.00
H1819  H     0.10968   0.41676   0.72544   0.00000  Uiso   1.00
H1820  H     0.00135   0.33588   0.75264   0.00000  Uiso   1.00
H1821  H     0.34810   0.18659   0.94459   0.00000  Uiso   1.00
H1822  H     0.31950   0.20374   0.89434   0.00000  Uiso   1.00
H1823  H     0.29407   0.18652   0.94602   0.00000  Uiso   1.00
H1824  H     0.29033   0.12862   0.88820   0.00000  Uiso   1.00
H1825  H     0.32155   0.10617   0.93435   0.00000  Uiso   1.00
H1826  H     0.41974   0.03117   0.79501   0.00000  Uiso   1.00
H1827  H     0.37161   0.00188   0.79385   0.00000  Uiso   1.00
H1828  H     0.40422   0.00056   0.74433   0.00000  Uiso   1.00
H1829  H     0.34515   0.05579   0.73666   0.00000  Uiso   1.00
H1830  H     0.39396   0.07854   0.72785   0.00000  Uiso   1.00
H1831  H     0.03379   0.35207   0.70674   0.00000  Uiso   1.00
H1832  H     0.13034   0.36504   0.97596   0.00000  Uiso   1.00
H1833  H     0.14098   0.31863   0.93611   0.00000  Uiso   1.00
H1834  H     0.17924   0.33960   0.97417   0.00000  Uiso   1.00
H1835  H     0.19615   0.37173   0.90359   0.00000  Uiso   1.00
H1836  H     0.17036   0.41815   0.93399   0.00000  Uiso   1.00
H1837  H     0.41715   0.46791   0.87444   0.00000  Uiso   1.00
H1838  H     0.36894   0.49712   0.87744   0.00000  Uiso   1.00
H1839  H     0.40163   0.49588   0.92669   0.00000  Uiso   1.00
H1840  H     0.34230   0.44008   0.93162   0.00000  Uiso   1.00
H1841  H     0.39139   0.41804   0.94011   0.00000  Uiso   1.00
H1842  H     0.48141   0.36004   0.70311   0.00000  Uiso   1.00
H1843  H     0.15492   0.18556   0.72066   0.00000  Uiso   1.00
H1844  H     0.18116   0.20509   0.77196   0.00000  Uiso   1.00
H1845  H     0.20892   0.18707   0.72184   0.00000  Uiso   1.00
H1846  H     0.21199   0.13069   0.78032   0.00000  Uiso   1.00
H1847  H     0.18258   0.10656   0.73320   0.00000  Uiso   1.00
H1848  H     0.08124   0.03966   0.88740   0.00000  Uiso   1.00
H1849  H     0.12920   0.01037   0.88045   0.00000  Uiso   1.00
H1850  H     0.10497   0.01277   0.93596   0.00000  Uiso   1.00
H1851  H     0.16137   0.06720   0.93266   0.00000  Uiso   1.00
H1852  H     0.11385   0.09227   0.94384   0.00000  Uiso   1.00
N1853  N     0.00000   0.25000   0.95069   0.00000  Uiso   1.00
N1854  N    -0.00000   0.25000   0.71598   0.00000  Uiso   1.00
N1855  N     0.25000   0.00000   0.95069   0.00000  Uiso   1.00
N1856  N     0.25000   0.00000   0.71598   0.00000  Uiso   1.00
O1857  O     0.04508   0.20491   0.87291   0.00000  Uiso   1.00
O1858  O     0.20491   0.04509   0.79375   0.00000  Uiso   1.00
O1859  O     0.20491   0.04509   0.87291   0.00000  Uiso   1.00
O1860  O     0.29508   0.45491   0.79375   0.00000  Uiso   1.00
O1861  O     0.20491   0.45491   0.79375   0.00000  Uiso   1.00
O1862  O     0.29508   0.04509   0.87291   0.00000  Uiso   1.00
O1863  O     0.29508   0.04509   0.79375   0.00000  Uiso   1.00
O1864  O     0.20491   0.45491   0.87291   0.00000  Uiso   1.00
O1865  O     0.45491   0.29509   0.79375   0.00000  Uiso   1.00
O1866  O     0.45491   0.29509   0.87291   0.00000  Uiso   1.00
O1867  O     0.04508   0.20491   0.79375   0.00000  Uiso   1.00
O1868  O     0.45491   0.20491   0.79375   0.00000  Uiso   1.00
O1869  O     0.04508   0.29509   0.87291   0.00000  Uiso   1.00
O1870  O     0.04508   0.29509   0.79375   0.00000  Uiso   1.00
O1871  O     0.45491   0.20491   0.87291   0.00000  Uiso   1.00
O1872  O     0.29508   0.45491   0.87291   0.00000  Uiso   1.00
C1873  C     0.56015   0.19151   0.83328   0.00000  Uiso   1.00
C1874  C     0.99802   0.29018   0.97588   0.00000  Uiso   1.00
C1875  C     0.50041   0.29027   0.69166   0.00000  Uiso   1.00
C1876  C     0.50175   0.20972   0.97502   0.00000  Uiso   1.00
C1877  C     0.74793   0.45981   0.69082   0.00000  Uiso   1.00
C1878  C     0.74897   0.04019   0.97588   0.00000  Uiso   1.00
C1879  C     0.75231   0.04010   0.69151   0.00000  Uiso   1.00
C1880  C     0.75095   0.45973   0.97501   0.00000  Uiso   1.00
C1881  C     0.88919   0.14122   0.79086   0.00000  Uiso   1.00
C1882  C     0.60249   0.36836   0.87244   0.00000  Uiso   1.00
C1883  C     0.61237   0.35731   0.79097   0.00000  Uiso   1.00
C1884  C     0.94004   0.30885   0.83351   0.00000  Uiso   1.00
C1885  C     0.89004   0.13991   0.87418   0.00000  Uiso   1.00
C1886  C     0.61441   0.14767   0.87544   0.00000  Uiso   1.00
C1887  C     0.88769   0.35746   0.79267   0.00000  Uiso   1.00
C1888  C     0.88790   0.35706   0.87594   0.00000  Uiso   1.00
C1889  C     0.61219   0.14155   0.79242   0.00000  Uiso   1.00
C1890  C     0.63484   0.39809   0.79178   0.00000  Uiso   1.00
C1891  C     0.85204   0.11921   0.87151   0.00000  Uiso   1.00
C1892  C     0.86673   0.10046   0.79236   0.00000  Uiso   1.00
C1893  C     0.64051   0.38919   0.87424   0.00000  Uiso   1.00
C1894  C     0.86545   0.39787   0.87467   0.00000  Uiso   1.00
C1895  C     0.94047   0.19065   0.83319   0.00000  Uiso   1.00
C1896  C     0.65010   0.12059   0.79534   0.00000  Uiso   1.00
C1897  C     0.63688   0.10685   0.87560   0.00000  Uiso   1.00
C1898  C     0.84980   0.37842   0.79599   0.00000  Uiso   1.00
C1899  C     0.59191   0.34468   0.83197   0.00000  Uiso   1.00
C1900  C     0.90644   0.15731   0.83271   0.00000  Uiso   1.00
C1901  C     0.90508   0.34106   0.83401   0.00000  Uiso   1.00
C1902  C     0.59569   0.16026   0.83355   0.00000  Uiso   1.00
C1903  C     0.84320   0.09262   0.83228   0.00000  Uiso   1.00
C1904  C     0.65510   0.40941   0.83318   0.00000  Uiso   1.00
C1905  C     0.65874   0.09530   0.83508   0.00000  Uiso   1.00
C1906  C     0.55923   0.30968   0.83302   0.00000  Uiso   1.00
C1907  C     0.84208   0.40608   0.83473   0.00000  Uiso   1.00
C1908  C     0.99662   0.16376   0.71414   0.00000  Uiso   1.00
C1909  C     0.99166   0.33564   0.95297   0.00000  Uiso   1.00
C1910  C     0.50455   0.33616   0.71553   0.00000  Uiso   1.00
C1911  C     0.50733   0.16415   0.95083   0.00000  Uiso   1.00
C1912  C     0.74034   0.41468   0.71393   0.00000  Uiso   1.00
C1913  C     0.74222   0.08573   0.95330   0.00000  Uiso   1.00
C1914  C     0.76108   0.08495   0.71527   0.00000  Uiso   1.00
C1915  C     0.75703   0.41424   0.95097   0.00000  Uiso   1.00
C1916  C     0.88622   0.16981   0.74763   0.00000  Uiso   1.00
C1917  C     0.80932   0.44063   0.83358   0.00000  Uiso   1.00
C1918  C     0.86237   0.21350   0.75645   0.00000  Uiso   1.00
C1919  C     0.57110   0.37894   0.90843   0.00000  Uiso   1.00
C1920  C     0.57293   0.42725   0.92822   0.00000  Uiso   1.00
C1921  C     0.61571   0.32707   0.74861   0.00000  Uiso   1.00
C1922  C     0.63766   0.28278   0.75914   0.00000  Uiso   1.00
C1923  C     0.91487   0.13707   0.91788   0.00000  Uiso   1.00
C1924  C     0.90057   0.10339   0.95460   0.00000  Uiso   1.00
C1925  C     0.61939   0.18042   0.91587   0.00000  Uiso   1.00
C1926  C     0.64253   0.22306   0.90147   0.00000  Uiso   1.00
C1927  C     0.91190   0.36054   0.74857   0.00000  Uiso   1.00
C1928  C     0.69093   0.05981   0.83380   0.00000  Uiso   1.00
C1929  C     0.89662   0.39373   0.71190   0.00000  Uiso   1.00
C1930  C     0.88294   0.32708   0.91799   0.00000  Uiso   1.00
C1931  C     0.85640   0.28615   0.90716   0.00000  Uiso   1.00
C1932  C     0.58752   0.13728   0.74892   0.00000  Uiso   1.00
C1933  C     0.60246   0.10288   0.71262   0.00000  Uiso   1.00
C1934  C     0.62876   0.43194   0.75289   0.00000  Uiso   1.00
C1935  C     0.60659   0.47463   0.76992   0.00000  Uiso   1.00
C1936  C     0.81972   0.13088   0.90595   0.00000  Uiso   1.00
C1937  C     0.82079   0.17999   0.92382   0.00000  Uiso   1.00
C1938  C     0.87328   0.06500   0.75458   0.00000  Uiso   1.00
C1939  C     0.69010   0.44124   0.83330   0.00000  Uiso   1.00
C1940  C     0.89337   0.02205   0.77335   0.00000  Uiso   1.00
C1941  C     0.66675   0.38455   0.91660   0.00000  Uiso   1.00
C1942  C     0.65320   0.34979   0.95263   0.00000  Uiso   1.00
C1943  C     0.87086   0.43216   0.91364   0.00000  Uiso   1.00
C1944  C     0.89076   0.47595   0.89672   0.00000  Uiso   1.00
C1945  C     0.68303   0.13191   0.76151   0.00000  Uiso   1.00
C1946  C     0.68155   0.18046   0.74286   0.00000  Uiso   1.00
C1947  C     0.63243   0.07568   0.91668   0.00000  Uiso   1.00
C1948  C     0.61064   0.03188   0.90389   0.00000  Uiso   1.00
C1949  C     0.81654   0.36606   0.76304   0.00000  Uiso   1.00
C1950  C     0.80961   0.05904   0.83310   0.00000  Uiso   1.00
C1951  C     0.81773   0.31673   0.74569   0.00000  Uiso   1.00
C1952  C     0.99969   0.20969   0.69094   0.00000  Uiso   1.00
Cu1953 Cu    0.50000   0.25000   0.88022   0.00000  Uiso   1.00
Cu1954 Cu    0.50000   0.25000   0.78645   0.00000  Uiso   1.00
Cu1955 Cu    0.75000   0.00000   0.88022   0.00000  Uiso   1.00
Cu1956 Cu    0.75000   0.00000   0.78645   0.00000  Uiso   1.00
H1957  H     0.99914   0.16438   0.75131   0.00000  Uiso   1.00
H1958  H     0.50153   0.16452   0.91419   0.00000  Uiso   1.00
H1959  H     0.84413   0.31072   0.72307   0.00000  Uiso   1.00
H1960  H     0.81854   0.29307   0.77530   0.00000  Uiso   1.00
H1961  H     0.79010   0.30944   0.72544   0.00000  Uiso   1.00
H1962  H     0.78749   0.36872   0.78183   0.00000  Uiso   1.00
H1963  H     0.81739   0.39021   0.73412   0.00000  Uiso   1.00
H1964  H     0.53816   0.15084   0.95678   0.00000  Uiso   1.00
H1965  H     0.98623   0.13839   0.96432   0.00000  Uiso   1.00
H1966  H     0.74681   0.41561   0.75022   0.00000  Uiso   1.00
H1967  H     0.70885   0.40355   0.70808   0.00000  Uiso   1.00
H1968  H     0.75988   0.38727   0.70012   0.00000  Uiso   1.00
H1969  H     0.74565   0.08485   0.91645   0.00000  Uiso   1.00
H1970  H     0.71227   0.09959   0.96283   0.00000  Uiso   1.00
H1971  H     0.76391   0.11139   0.96556   0.00000  Uiso   1.00
H1972  H     0.75379   0.08428   0.75133   0.00000  Uiso   1.00
H1973  H     0.96799   0.14668   0.70503   0.00000  Uiso   1.00
H1974  H     0.79302   0.09468   0.71002   0.00000  Uiso   1.00
H1975  H     0.74259   0.11333   0.70217   0.00000  Uiso   1.00
H1976  H     0.75179   0.41460   0.91424   0.00000  Uiso   1.00
H1977  H     0.78787   0.40122   0.95766   0.00000  Uiso   1.00
H1978  H     0.73562   0.38849   0.96382   0.00000  Uiso   1.00
H1979  H     0.83205   0.20531   0.77060   0.00000  Uiso   1.00
H1980  H     0.87851   0.23638   0.78076   0.00000  Uiso   1.00
H1981  H     0.85849   0.23162   0.72342   0.00000  Uiso   1.00
H1982  H     0.91571   0.17854   0.73310   0.00000  Uiso   1.00
H1983  H     0.86987   0.15098   0.72021   0.00000  Uiso   1.00
H1984  H     0.52063   0.14096   0.70128   0.00000  Uiso   1.00
H1985  H     0.60092   0.43304   0.94801   0.00000  Uiso   1.00
H1986  H     0.57063   0.45198   0.89968   0.00000  Uiso   1.00
H1987  H     0.54700   0.43307   0.95176   0.00000  Uiso   1.00
H1988  H     0.54147   0.37814   0.89113   0.00000  Uiso   1.00
H1989  H     0.57267   0.35302   0.93585   0.00000  Uiso   1.00
H1990  H     0.66784   0.29015   0.77397   0.00000  Uiso   1.00
H1991  H     0.62012   0.26142   0.78338   0.00000  Uiso   1.00
H1992  H     0.64172   0.26356   0.72654   0.00000  Uiso   1.00
H1993  H     0.58634   0.31932   0.73317   0.00000  Uiso   1.00
H1994  H     0.63372   0.34420   0.72157   0.00000  Uiso   1.00
H1995  H     0.99603   0.33456   0.91627   0.00000  Uiso   1.00
H1996  H     0.87707   0.11911   0.97677   0.00000  Uiso   1.00
H1997  H     0.88902   0.07151   0.93881   0.00000  Uiso   1.00
H1998  H     0.92615   0.09426   0.97730   0.00000  Uiso   1.00
H1999  H     0.94458   0.12389   0.90643   0.00000  Uiso   1.00
H2000  H     0.91804   0.17127   0.93417   0.00000  Uiso   1.00
H2001  H     0.67040   0.21347   0.88233   0.00000  Uiso   1.00
H2002  H     0.62350   0.24529   0.87961   0.00000  Uiso   1.00
H2003  H     0.65153   0.24233   0.93267   0.00000  Uiso   1.00
H2004  H     0.59056   0.19033   0.93202   0.00000  Uiso   1.00
H2005  H     0.63746   0.16434   0.94350   0.00000  Uiso   1.00
H2006  H     0.96141   0.34943   0.96114   0.00000  Uiso   1.00
H2007  H     0.87282   0.37763   0.69067   0.00000  Uiso   1.00
H2008  H     0.88517   0.42584   0.72761   0.00000  Uiso   1.00
H2009  H     0.92168   0.40272   0.68828   0.00000  Uiso   1.00
H2010  H     0.94131   0.37459   0.75965   0.00000  Uiso   1.00
H2011  H     0.91560   0.32625   0.73254   0.00000  Uiso   1.00
H2012  H     0.82729   0.29741   0.89208   0.00000  Uiso   1.00
H2013  H     0.87200   0.26255   0.88287   0.00000  Uiso   1.00
H2014  H     0.85002   0.26786   0.93959   0.00000  Uiso   1.00
H2015  H     0.91153   0.31467   0.93202   0.00000  Uiso   1.00
H2016  H     0.86780   0.34604   0.94634   0.00000  Uiso   1.00
H2017  H     0.51294   0.36142   0.96602   0.00000  Uiso   1.00
H2018  H     0.62611   0.11826   0.69067   0.00000  Uiso   1.00
H2019  H     0.61404   0.07131   0.72878   0.00000  Uiso   1.00
H2020  H     0.57720   0.09307   0.68966   0.00000  Uiso   1.00
H2021  H     0.55796   0.12397   0.76057   0.00000  Uiso   1.00
H2022  H     0.58406   0.17115   0.73242   0.00000  Uiso   1.00
H2023  H     0.57904   0.46502   0.78945   0.00000  Uiso   1.00
H2024  H     0.62643   0.49568   0.79220   0.00000  Uiso   1.00
H2025  H     0.59724   0.49534   0.74004   0.00000  Uiso   1.00
H2026  H     0.65718   0.44187   0.73601   0.00000  Uiso   1.00
H2027  H     0.60968   0.41676   0.72544   0.00000  Uiso   1.00
H2028  H     0.50135   0.33588   0.75264   0.00000  Uiso   1.00
H2029  H     0.84810   0.18659   0.94459   0.00000  Uiso   1.00
H2030  H     0.81950   0.20374   0.89434   0.00000  Uiso   1.00
H2031  H     0.79407   0.18652   0.94602   0.00000  Uiso   1.00
H2032  H     0.79033   0.12862   0.88820   0.00000  Uiso   1.00
H2033  H     0.82155   0.10617   0.93435   0.00000  Uiso   1.00
H2034  H     0.91974   0.03117   0.79501   0.00000  Uiso   1.00
H2035  H     0.87161   0.00188   0.79385   0.00000  Uiso   1.00
H2036  H     0.90422   0.00056   0.74433   0.00000  Uiso   1.00
H2037  H     0.84515   0.05579   0.73666   0.00000  Uiso   1.00
H2038  H     0.89396   0.07854   0.72785   0.00000  Uiso   1.00
H2039  H     0.53379   0.35207   0.70674   0.00000  Uiso   1.00
H2040  H     0.63034   0.36504   0.97596   0.00000  Uiso   1.00
H2041  H     0.64098   0.31863   0.93611   0.00000  Uiso   1.00
H2042  H     0.67924   0.33960   0.97417   0.00000  Uiso   1.00
H2043  H     0.69615   0.37173   0.90359   0.00000  Uiso   1.00
H2044  H     0.67036   0.41815   0.93399   0.00000  Uiso   1.00
H2045  H     0.91715   0.46791   0.87444   0.00000  Uiso   1.00
H2046  H     0.86894   0.49712   0.87744   0.00000  Uiso   1.00
H2047  H     0.90163   0.49588   0.92669   0.00000  Uiso   1.00
H2048  H     0.84230   0.44008   0.93162   0.00000  Uiso   1.00
H2049  H     0.89139   0.41804   0.94011   0.00000  Uiso   1.00
H2050  H     0.98141   0.36004   0.70311   0.00000  Uiso   1.00
H2051  H     0.65492   0.18556   0.72066   0.00000  Uiso   1.00
H2052  H     0.68116   0.20509   0.77196   0.00000  Uiso   1.00
H2053  H     0.70892   0.18707   0.72184   0.00000  Uiso   1.00
H2054  H     0.71199   0.13069   0.78032   0.00000  Uiso   1.00
H2055  H     0.68258   0.10656   0.73320   0.00000  Uiso   1.00
H2056  H     0.58124   0.03966   0.88740   0.00000  Uiso   1.00
H2057  H     0.62920   0.01037   0.88045   0.00000  Uiso   1.00
H2058  H     0.60497   0.01277   0.93596   0.00000  Uiso   1.00
H2059  H     0.66137   0.06720   0.93266   0.00000  Uiso   1.00
H2060  H     0.61385   0.09227   0.94384   0.00000  Uiso   1.00
N2061  N     0.50000   0.25000   0.95069   0.00000  Uiso   1.00
N2062  N     0.50000   0.25000   0.71598   0.00000  Uiso   1.00
N2063  N     0.75000   0.00000   0.95069   0.00000  Uiso   1.00
N2064  N     0.75000   0.00000   0.71598   0.00000  Uiso   1.00
O2065  O     0.54508   0.20491   0.87291   0.00000  Uiso   1.00
O2066  O     0.70491   0.04509   0.79375   0.00000  Uiso   1.00
O2067  O     0.70491   0.04509   0.87291   0.00000  Uiso   1.00
O2068  O     0.79508   0.45491   0.79375   0.00000  Uiso   1.00
O2069  O     0.70491   0.45491   0.79375   0.00000  Uiso   1.00
O2070  O     0.79508   0.04509   0.87291   0.00000  Uiso   1.00
O2071  O     0.79508   0.04509   0.79375   0.00000  Uiso   1.00
O2072  O     0.70491   0.45491   0.87291   0.00000  Uiso   1.00
O2073  O     0.95491   0.29509   0.79375   0.00000  Uiso   1.00
O2074  O     0.95491   0.29509   0.87291   0.00000  Uiso   1.00
O2075  O     0.54508   0.20491   0.79375   0.00000  Uiso   1.00
O2076  O     0.95491   0.20491   0.79375   0.00000  Uiso   1.00
O2077  O     0.54508   0.29509   0.87291   0.00000  Uiso   1.00
O2078  O     0.54508   0.29509   0.79375   0.00000  Uiso   1.00
O2079  O     0.95491   0.20491   0.87291   0.00000  Uiso   1.00
O2080  O     0.79508   0.45491   0.87291   0.00000  Uiso   1.00
C2081  C     0.06015   0.69151   0.83328   0.00000  Uiso   1.00
C2082  C     0.49802   0.79018   0.97588   0.00000  Uiso   1.00
C2083  C     0.00041   0.79027   0.69166   0.00000  Uiso   1.00
C2084  C     0.00175   0.70972   0.97502   0.00000  Uiso   1.00
C2085  C     0.24793   0.95981   0.69082   0.00000  Uiso   1.00
C2086  C     0.24897   0.54019   0.97588   0.00000  Uiso   1.00
C2087  C     0.25231   0.54010   0.69151   0.00000  Uiso   1.00
C2088  C     0.25095   0.95973   0.97501   0.00000  Uiso   1.00
C2089  C     0.38919   0.64122   0.79086   0.00000  Uiso   1.00
C2090  C     0.10249   0.86836   0.87244   0.00000  Uiso   1.00
C2091  C     0.11237   0.85731   0.79097   0.00000  Uiso   1.00
C2092  C     0.44004   0.80885   0.83351   0.00000  Uiso   1.00
C2093  C     0.39004   0.63991   0.87418   0.00000  Uiso   1.00
C2094  C     0.11441   0.64767   0.87544   0.00000  Uiso   1.00
C2095  C     0.38769   0.85746   0.79267   0.00000  Uiso   1.00
C2096  C     0.38790   0.85706   0.87594   0.00000  Uiso   1.00
C2097  C     0.11219   0.64155   0.79242   0.00000  Uiso   1.00
C2098  C     0.13484   0.89809   0.79178   0.00000  Uiso   1.00
C2099  C     0.35204   0.61921   0.87151   0.00000  Uiso   1.00
C2100  C     0.36673   0.60046   0.79236   0.00000  Uiso   1.00
C2101  C     0.14051   0.88919   0.87424   0.00000  Uiso   1.00
C2102  C     0.36545   0.89787   0.87467   0.00000  Uiso   1.00
C2103  C     0.44047   0.69065   0.83319   0.00000  Uiso   1.00
C2104  C     0.15010   0.62059   0.79534   0.00000  Uiso   1.00
C2105  C     0.13688   0.60685   0.87560   0.00000  Uiso   1.00
C2106  C     0.34980   0.87842   0.79599   0.00000  Uiso   1.00
C2107  C     0.09191   0.84468   0.83197   0.00000  Uiso   1.00
C2108  C     0.40644   0.65731   0.83271   0.00000  Uiso   1.00
C2109  C     0.40508   0.84106   0.83401   0.00000  Uiso   1.00
C2110  C     0.09569   0.66026   0.83355   0.00000  Uiso   1.00
C2111  C     0.34320   0.59262   0.83228   0.00000  Uiso   1.00
C2112  C     0.15510   0.90941   0.83318   0.00000  Uiso   1.00
C2113  C     0.15874   0.59530   0.83508   0.00000  Uiso   1.00
C2114  C     0.05923   0.80968   0.83302   0.00000  Uiso   1.00
C2115  C     0.34208   0.90608   0.83473   0.00000  Uiso   1.00
C2116  C     0.49662   0.66376   0.71414   0.00000  Uiso   1.00
C2117  C     0.49166   0.83564   0.95297   0.00000  Uiso   1.00
C2118  C     0.00455   0.83616   0.71553   0.00000  Uiso   1.00
C2119  C     0.00733   0.66415   0.95083   0.00000  Uiso   1.00
C2120  C     0.24034   0.91468   0.71393   0.00000  Uiso   1.00
C2121  C     0.24222   0.58573   0.95330   0.00000  Uiso   1.00
C2122  C     0.26108   0.58495   0.71527   0.00000  Uiso   1.00
C2123  C     0.25703   0.91424   0.95097   0.00000  Uiso   1.00
C2124  C     0.38622   0.66981   0.74763   0.00000  Uiso   1.00
C2125  C     0.30932   0.94063   0.83358   0.00000  Uiso   1.00
C2126  C     0.36237   0.71350   0.75645   0.00000  Uiso   1.00
C2127  C     0.07110   0.87894   0.90843   0.00000  Uiso   1.00
C2128  C     0.07293   0.92725   0.92822   0.00000  Uiso   1.00
C2129  C     0.11571   0.82707   0.74861   0.00000  Uiso   1.00
C2130  C     0.13766   0.78278   0.75914   0.00000  Uiso   1.00
C2131  C     0.41487   0.63707   0.91788   0.00000  Uiso   1.00
C2132  C     0.40057   0.60339   0.95460   0.00000  Uiso   1.00
C2133  C     0.11939   0.68042   0.91587   0.00000  Uiso   1.00
C2134  C     0.14253   0.72306   0.90147   0.00000  Uiso   1.00
C2135  C     0.41190   0.86054   0.74857   0.00000  Uiso   1.00
C2136  C     0.19093   0.55981   0.83380   0.00000  Uiso   1.00
C2137  C     0.39662   0.89373   0.71190   0.00000  Uiso   1.00
C2138  C     0.38294   0.82708   0.91799   0.00000  Uiso   1.00
C2139  C     0.35640   0.78615   0.90716   0.00000  Uiso   1.00
C2140  C     0.08752   0.63728   0.74892   0.00000  Uiso   1.00
C2141  C     0.10246   0.60288   0.71262   0.00000  Uiso   1.00
C2142  C     0.12876   0.93194   0.75289   0.00000  Uiso   1.00
C2143  C     0.10659   0.97463   0.76992   0.00000  Uiso   1.00
C2144  C     0.31972   0.63088   0.90595   0.00000  Uiso   1.00
C2145  C     0.32079   0.67999   0.92382   0.00000  Uiso   1.00
C2146  C     0.37328   0.56500   0.75458   0.00000  Uiso   1.00
C2147  C     0.19010   0.94124   0.83330   0.00000  Uiso   1.00
C2148  C     0.39337   0.52205   0.77335   0.00000  Uiso   1.00
C2149  C     0.16675   0.88455   0.91660   0.00000  Uiso   1.00
C2150  C     0.15320   0.84979   0.95263   0.00000  Uiso   1.00
C2151  C     0.37086   0.93216   0.91364   0.00000  Uiso   1.00
C2152  C     0.39076   0.97595   0.89672   0.00000  Uiso   1.00
C2153  C     0.18303   0.63191   0.76151   0.00000  Uiso   1.00
C2154  C     0.18155   0.68046   0.74286   0.00000  Uiso   1.00
C2155  C     0.13243   0.57568   0.91668   0.00000  Uiso   1.00
C2156  C     0.11064   0.53188   0.90389   0.00000  Uiso   1.00
C2157  C     0.31654   0.86606   0.76304   0.00000  Uiso   1.00
C2158  C     0.30961   0.55904   0.83310   0.00000  Uiso   1.00
C2159  C     0.31773   0.81673   0.74569   0.00000  Uiso   1.00
C2160  C     0.49969   0.70969   0.69094   0.00000  Uiso   1.00
Cu2161 Cu    0.00000   0.75000   0.88022   0.00000  Uiso   1.00
Cu2162 Cu   -0.00000   0.75000   0.78645   0.00000  Uiso   1.00
Cu2163 Cu    0.25000   0.50000   0.88022   0.00000  Uiso   1.00
Cu2164 Cu    0.25000   0.50000   0.78645   0.00000  Uiso   1.00
H2165  H     0.49914   0.66438   0.75131   0.00000  Uiso   1.00
H2166  H     0.00153   0.66452   0.91419   0.00000  Uiso   1.00
H2167  H     0.34413   0.81072   0.72307   0.00000  Uiso   1.00
H2168  H     0.31854   0.79307   0.77530   0.00000  Uiso   1.00
H2169  H     0.29010   0.80944   0.72544   0.00000  Uiso   1.00
H2170  H     0.28749   0.86872   0.78183   0.00000  Uiso   1.00
H2171  H     0.31739   0.89021   0.73412   0.00000  Uiso   1.00
H2172  H     0.03816   0.65084   0.95678   0.00000  Uiso   1.00
H2173  H     0.48623   0.63839   0.96432   0.00000  Uiso   1.00
H2174  H     0.24681   0.91561   0.75022   0.00000  Uiso   1.00
H2175  H     0.20885   0.90355   0.70808   0.00000  Uiso   1.00
H2176  H     0.25988   0.88727   0.70012   0.00000  Uiso   1.00
H2177  H     0.24565   0.58485   0.91645   0.00000  Uiso   1.00
H2178  H     0.21227   0.59959   0.96283   0.00000  Uiso   1.00
H2179  H     0.26391   0.61139   0.96556   0.00000  Uiso   1.00
H2180  H     0.25379   0.58428   0.75133   0.00000  Uiso   1.00
H2181  H     0.46799   0.64668   0.70503   0.00000  Uiso   1.00
H2182  H     0.29302   0.59468   0.71002   0.00000  Uiso   1.00
H2183  H     0.24259   0.61333   0.70217   0.00000  Uiso   1.00
H2184  H     0.25179   0.91460   0.91424   0.00000  Uiso   1.00
H2185  H     0.28787   0.90122   0.95766   0.00000  Uiso   1.00
H2186  H     0.23562   0.88849   0.96382   0.00000  Uiso   1.00
H2187  H     0.33205   0.70531   0.77060   0.00000  Uiso   1.00
H2188  H     0.37851   0.73638   0.78076   0.00000  Uiso   1.00
H2189  H     0.35849   0.73162   0.72342   0.00000  Uiso   1.00
H2190  H     0.41571   0.67854   0.73310   0.00000  Uiso   1.00
H2191  H     0.36987   0.65098   0.72021   0.00000  Uiso   1.00
H2192  H     0.02063   0.64096   0.70128   0.00000  Uiso   1.00
H2193  H     0.10092   0.93304   0.94801   0.00000  Uiso   1.00
H2194  H     0.07063   0.95198   0.89968   0.00000  Uiso   1.00
H2195  H     0.04700   0.93307   0.95176   0.00000  Uiso   1.00
H2196  H     0.04147   0.87814   0.89113   0.00000  Uiso   1.00
H2197  H     0.07267   0.85302   0.93585   0.00000  Uiso   1.00
H2198  H     0.16784   0.79015   0.77397   0.00000  Uiso   1.00
H2199  H     0.12012   0.76142   0.78338   0.00000  Uiso   1.00
H2200  H     0.14172   0.76356   0.72654   0.00000  Uiso   1.00
H2201  H     0.08634   0.81932   0.73317   0.00000  Uiso   1.00
H2202  H     0.13372   0.84420   0.72157   0.00000  Uiso   1.00
H2203  H     0.49603   0.83456   0.91627   0.00000  Uiso   1.00
H2204  H     0.37707   0.61911   0.97677   0.00000  Uiso   1.00
H2205  H     0.38902   0.57151   0.93881   0.00000  Uiso   1.00
H2206  H     0.42615   0.59426   0.97730   0.00000  Uiso   1.00
H2207  H     0.44458   0.62389   0.90643   0.00000  Uiso   1.00
H2208  H     0.41804   0.67127   0.93417   0.00000  Uiso   1.00
H2209  H     0.17040   0.71347   0.88233   0.00000  Uiso   1.00
H2210  H     0.12350   0.74529   0.87961   0.00000  Uiso   1.00
H2211  H     0.15153   0.74233   0.93267   0.00000  Uiso   1.00
H2212  H     0.09056   0.69033   0.93202   0.00000  Uiso   1.00
H2213  H     0.13746   0.66434   0.94350   0.00000  Uiso   1.00
H2214  H     0.46141   0.84943   0.96114   0.00000  Uiso   1.00
H2215  H     0.37282   0.87763   0.69067   0.00000  Uiso   1.00
H2216  H     0.38517   0.92584   0.72761   0.00000  Uiso   1.00
H2217  H     0.42168   0.90272   0.68828   0.00000  Uiso   1.00
H2218  H     0.44131   0.87459   0.75965   0.00000  Uiso   1.00
H2219  H     0.41560   0.82625   0.73254   0.00000  Uiso   1.00
H2220  H     0.32729   0.79741   0.89208   0.00000  Uiso   1.00
H2221  H     0.37200   0.76255   0.88287   0.00000  Uiso   1.00
H2222  H     0.35002   0.76786   0.93959   0.00000  Uiso   1.00
H2223  H     0.41153   0.81467   0.93202   0.00000  Uiso   1.00
H2224  H     0.36780   0.84604   0.94634   0.00000  Uiso   1.00
H2225  H     0.01294   0.86142   0.96602   0.00000  Uiso   1.00
H2226  H     0.12611   0.61826   0.69067   0.00000  Uiso   1.00
H2227  H     0.11404   0.57131   0.72878   0.00000  Uiso   1.00
H2228  H     0.07720   0.59307   0.68966   0.00000  Uiso   1.00
H2229  H     0.05796   0.62397   0.76057   0.00000  Uiso   1.00
H2230  H     0.08406   0.67115   0.73242   0.00000  Uiso   1.00
H2231  H     0.07904   0.96502   0.78945   0.00000  Uiso   1.00
H2232  H     0.12643   0.99568   0.79220   0.00000  Uiso   1.00
H2233  H     0.09724   0.99534   0.74004   0.00000  Uiso   1.00
H2234  H     0.15718   0.94187   0.73601   0.00000  Uiso   1.00
H2235  H     0.10968   0.91676   0.72544   0.00000  Uiso   1.00
H2236  H     0.00135   0.83588   0.75264   0.00000  Uiso   1.00
H2237  H     0.34810   0.68659   0.94459   0.00000  Uiso   1.00
H2238  H     0.31950   0.70374   0.89434   0.00000  Uiso   1.00
H2239  H     0.29407   0.68652   0.94602   0.00000  Uiso   1.00
H2240  H     0.29033   0.62862   0.88820   0.00000  Uiso   1.00
H2241  H     0.32155   0.60617   0.93435   0.00000  Uiso   1.00
H2242  H     0.41974   0.53117   0.79501   0.00000  Uiso   1.00
H2243  H     0.37161   0.50188   0.79385   0.00000  Uiso   1.00
H2244  H     0.40422   0.50056   0.74433   0.00000  Uiso   1.00
H2245  H     0.34515   0.55579   0.73666   0.00000  Uiso   1.00
H2246  H     0.39396   0.57854   0.72785   0.00000  Uiso   1.00
H2247  H     0.03379   0.85207   0.70674   0.00000  Uiso   1.00
H2248  H     0.13034   0.86504   0.97596   0.00000  Uiso   1.00
H2249  H     0.14098   0.81863   0.93611   0.00000  Uiso   1.00
H2250  H     0.17924   0.83960   0.97417   0.00000  Uiso   1.00
H2251  H     0.19615   0.87173   0.90359   0.00000  Uiso   1.00
H2252  H     0.17036   0.91815   0.93399   0.00000  Uiso   1.00
H2253  H     0.41715   0.96791   0.87444   0.00000  Uiso   1.00
H2254  H     0.36894   0.99712   0.87744   0.00000  Uiso   1.00
H2255  H     0.40163   0.99588   0.92669   0.00000  Uiso   1.00
H2256  H     0.34230   0.94008   0.93162   0.00000  Uiso   1.00
H2257  H     0.39139   0.91804   0.94011   0.00000  Uiso   1.00
H2258  H     0.48141   0.86004   0.70311   0.00000  Uiso   1.00
H2259  H     0.15492   0.68556   0.72066   0.00000  Uiso   1.00
H2260  H     0.18116   0.70509   0.77196   0.00000  Uiso   1.00
H2261  H     0.20892   0.68707   0.72184   0.00000  Uiso   1.00
H2262  H     0.21199   0.63069   0.78032   0.00000  Uiso   1.00
H2263  H     0.18258   0.60656   0.73320   0.00000  Uiso   1.00
H2264  H     0.08124   0.53966   0.88740   0.00000  Uiso   1.00
H2265  H     0.12920   0.51037   0.88045   0.00000  Uiso   1.00
H2266  H     0.10497   0.51277   0.93596   0.00000  Uiso   1.00
H2267  H     0.16137   0.56720   0.93266   0.00000  Uiso   1.00
H2268  H     0.11385   0.59227   0.94384   0.00000  Uiso   1.00
N2269  N     0.00000   0.75000   0.95069   0.00000  Uiso   1.00
N2270  N    -0.00000   0.75000   0.71598   0.00000  Uiso   1.00
N2271  N     0.25000   0.50000   0.95069   0.00000  Uiso   1.00
N2272  N     0.25000   0.50000   0.71598   0.00000  Uiso   1.00
O2273  O     0.04508   0.70491   0.87291   0.00000  Uiso   1.00
O2274  O     0.20491   0.54509   0.79375   0.00000  Uiso   1.00
O2275  O     0.20491   0.54509   0.87291   0.00000  Uiso   1.00
O2276  O     0.29508   0.95491   0.79375   0.00000  Uiso   1.00
O2277  O     0.20491   0.95491   0.79375   0.00000  Uiso   1.00
O2278  O     0.29508   0.54509   0.87291   0.00000  Uiso   1.00
O2279  O     0.29508   0.54509   0.79375   0.00000  Uiso   1.00
O2280  O     0.20491   0.95491   0.87291   0.00000  Uiso   1.00
O2281  O     0.45491   0.79509   0.79375   0.00000  Uiso   1.00
O2282  O     0.45491   0.79509   0.87291   0.00000  Uiso   1.00
O2283  O     0.04508   0.70491   0.79375   0.00000  Uiso   1.00
O2284  O     0.45491   0.70491   0.79375   0.00000  Uiso   1.00
O2285  O     0.04508   0.79509   0.87291   0.00000  Uiso   1.00
O2286  O     0.04508   0.79509   0.79375   0.00000  Uiso   1.00
O2287  O     0.45491   0.70491   0.87291   0.00000  Uiso   1.00
O2288  O     0.29508   0.95491   0.87291   0.00000  Uiso   1.00
C2289  C     0.56015   0.69151   0.83328   0.00000  Uiso   1.00
C2290  C     0.99802   0.79018   0.97588   0.00000  Uiso   1.00
C2291  C     0.50041   0.79027   0.69166   0.00000  Uiso   1.00
C2292  C     0.50175   0.70972   0.97502   0.00000  Uiso   1.00
C2293  C     0.74793   0.95981   0.69082   0.00000  Uiso   1.00
C2294  C     0.74897   0.54019   0.97588   0.00000  Uiso   1.00
C2295  C     0.75231   0.54010   0.69151   0.00000  Uiso   1.00
C2296  C     0.75095   0.95973   0.97501   0.00000  Uiso   1.00
C2297  C     0.88919   0.64122   0.79086   0.00000  Uiso   1.00
C2298  C     0.60249   0.86836   0.87244   0.00000  Uiso   1.00
C2299  C     0.61237   0.85731   0.79097   0.00000  Uiso   1.00
C2300  C     0.94004   0.80885   0.83351   0.00000  Uiso   1.00
C2301  C     0.89004   0.63991   0.87418   0.00000  Uiso   1.00
C2302  C     0.61441   0.64767   0.87544   0.00000  Uiso   1.00
C2303  C     0.88769   0.85746   0.79267   0.00000  Uiso   1.00
C2304  C     0.88790   0.85706   0.87594   0.00000  Uiso   1.00
C2305  C     0.61219   0.64155   0.79242   0.00000  Uiso   1.00
C2306  C     0.63484   0.89809   0.79178   0.00000  Uiso   1.00
C2307  C     0.85204   0.61921   0.87151   0.00000  Uiso   1.00
C2308  C     0.86673   0.60046   0.79236   0.00000  Uiso   1.00
C2309  C     0.64051   0.88919   0.87424   0.00000  Uiso   1.00
C2310  C     0.86545   0.89787   0.87467   0.00000  Uiso   1.00
C2311  C     0.94047   0.69065   0.83319   0.00000  Uiso   1.00
C2312  C     0.65010   0.62059   0.79534   0.00000  Uiso   1.00
C2313  C     0.63688   0.60685   0.87560   0.00000  Uiso   1.00
C2314  C     0.84980   0.87842   0.79599   0.00000  Uiso   1.00
C2315  C     0.59191   0.84468   0.83197   0.00000  Uiso   1.00
C2316  C     0.90644   0.65731   0.83271   0.00000  Uiso   1.00
C2317  C     0.90508   0.84106   0.83401   0.00000  Uiso   1.00
C2318  C     0.59569   0.66026   0.83355   0.00000  Uiso   1.00
C2319  C     0.84320   0.59262   0.83228   0.00000  Uiso   1.00
C2320  C     0.65510   0.90941   0.83318   0.00000  Uiso   1.00
C2321  C     0.65874   0.59530   0.83508   0.00000  Uiso   1.00
C2322  C     0.55923   0.80968   0.83302   0.00000  Uiso   1.00
C2323  C     0.84208   0.90608   0.83473   0.00000  Uiso   1.00
C2324  C     0.99662   0.66376   0.71414   0.00000  Uiso   1.00
C2325  C     0.99166   0.83564   0.95297   0.00000  Uiso   1.00
C2326  C     0.50455   0.83616   0.71553   0.00000  Uiso   1.00
C2327  C     0.50733   0.66415   0.95083   0.00000  Uiso   1.00
C2328  C     0.74034   0.91468   0.71393   0.00000  Uiso   1.00
C2329  C     0.74222   0.58573   0.95330   0.00000  Uiso   1.00
C2330  C     0.76108   0.58495   0.71527   0.00000  Uiso   1.00
C2331  C     0.75703   0.91424   0.95097   0.00000  Uiso   1.00
C2332  C     0.88622   0.66981   0.74763   0.00000  Uiso   1.00
C2333  C     0.80932   0.94063   0.83358   0.00000  Uiso   1.00
C2334  C     0.86237   0.71350   0.75645   0.00000  Uiso   1.00
C2335  C     0.57110   0.87894   0.90843   0.00000  Uiso   1.00
C2336  C     0.57293   0.92725   0.92822   0.00000  Uiso   1.00
C2337  C     0.61571   0.82707   0.74861   0.00000  Uiso   1.00
C2338  C     0.63766   0.78278   0.75914   0.00000  Uiso   1.00
C2339  C     0.91487   0.63707   0.91788   0.00000  Uiso   1.00
C2340  C     0.90057   0.60339   0.95460   0.00000  Uiso   1.00
C2341  C     0.61939   0.68042   0.91587   0.00000  Uiso   1.00
C2342  C     0.64253   0.72306   0.90147   0.00000  Uiso   1.00
C2343  C     0.91190   0.86054   0.74857   0.00000  Uiso   1.00
C2344  C     0.69093   0.55981   0.83380   0.00000  Uiso   1.00
C2345  C     0.89662   0.89373   0.71190   0.00000  Uiso   1.00
C2346  C     0.88294   0.82708   0.91799   0.00000  Uiso   1.00
C2347  C     0.85640   0.78615   0.90716   0.00000  Uiso   1.00
C2348  C     0.58752   0.63728   0.74892   0.00000  Uiso   1.00
C2349  C     0.60246   0.60288   0.71262   0.00000  Uiso   1.00
C2350  C     0.62876   0.93194   0.75289   0.00000  Uiso   1.00
C2351  C     0.60659   0.97463   0.76992   0.00000  Uiso   1.00
C2352  C     0.81972   0.63088   0.90595   0.00000  Uiso   1.00
C2353  C     0.82079   0.67999   0.92382   0.00000  Uiso   1.00
C2354  C     0.87328   0.56500   0.75458   0.00000  Uiso   1.00
C2355  C     0.69010   0.94124   0.83330   0.00000  Uiso   1.00
C2356  C     0.89337   0.52205   0.77335   0.00000  Uiso   1.00
C2357  C     0.66675   0.88455   0.91660   0.00000  Uiso   1.00
C2358  C     0.65320   0.84979   0.95263   0.00000  Uiso   1.00
C2359  C     0.87086   0.93216   0.91364   0.00000  Uiso   1.00
C2360  C     0.89076   0.97595   0.89672   0.00000  Uiso   1.00
C2361  C     0.68303   0.63191   0.76151   0.00000  Uiso   1.00
C2362  C     0.68155   0.68046   0.74286   0.00000  Uiso   1.00
C2363  C     0.63243   0.57568   0.91668   0.00000  Uiso   1.00
C2364  C     0.61064   0.53188   0.90389   0.00000  Uiso   1.00
C2365  C     0.81654   0.86606   0.76304   0.00000  Uiso   1.00
C2366  C     0.80961   0.55904   0.83310   0.00000  Uiso   1.00
C2367  C     0.81773   0.81673   0.74569   0.00000  Uiso   1.00
C2368  C     0.99969   0.70969   0.69094   0.00000  Uiso   1.00
Cu2369 Cu    0.50000   0.75000   0.88022   0.00000  Uiso   1.00
Cu2370 Cu    0.50000   0.75000   0.78645   0.00000  Uiso   1.00
Cu2371 Cu    0.75000   0.50000   0.88022   0.00000  Uiso   1.00
Cu2372 Cu    0.75000   0.50000   0.78645   0.00000  Uiso   1.00
H2373  H     0.99914   0.66438   0.75131   0.00000  Uiso   1.00
H2374  H     0.50153   0.66452   0.91419   0.00000  Uiso   1.00
H2375  H     0.84413   0.81072   0.72307   0.00000  Uiso   1.00
H2376  H     0.81854   0.79307   0.77530   0.00000  Uiso   1.00
H2377  H     0.79010   0.80944   0.72544   0.00000  Uiso   1.00
H2378  H     0.78749   0.86872   0.78183   0.00000  Uiso   1.00
H2379  H     0.81739   0.89021   0.73412   0.00000  Uiso   1.00
H2380  H     0.53816   0.65084   0.95678   0.00000  Uiso   1.00
H2381  H     0.98623   0.63839   0.96432   0.00000  Uiso   1.00
H2382  H     0.74681   0.91561   0.75022   0.00000  Uiso   1.00
H2383  H     0.70885   0.90355   0.70808   0.00000  Uiso   1.00
H2384  H     0.75988   0.88727   0.70012   0.00000  Uiso   1.00
H2385  H     0.74565   0.58485   0.91645   0.00000  Uiso   1.00
H2386  H     0.71227   0.59959   0.96283   0.00000  Uiso   1.00
H2387  H     0.76391   0.61139   0.96556   0.00000  Uiso   1.00
H2388  H     0.75379   0.58428   0.75133   0.00000  Uiso   1.00
H2389  H     0.96799   0.64668   0.70503   0.00000  Uiso   1.00
H2390  H     0.79302   0.59468   0.71002   0.00000  Uiso   1.00
H2391  H     0.74259   0.61333   0.70217   0.00000  Uiso   1.00
H2392  H     0.75179   0.91460   0.91424   0.00000  Uiso   1.00
H2393  H     0.78787   0.90122   0.95766   0.00000  Uiso   1.00
H2394  H     0.73562   0.88849   0.96382   0.00000  Uiso   1.00
H2395  H     0.83205   0.70531   0.77060   0.00000  Uiso   1.00
H2396  H     0.87851   0.73638   0.78076   0.00000  Uiso   1.00
H2397  H     0.85849   0.73162   0.72342   0.00000  Uiso   1.00
H2398  H     0.91571   0.67854   0.73310   0.00000  Uiso   1.00
H2399  H     0.86987   0.65098   0.72021   0.00000  Uiso   1.00
H2400  H     0.52063   0.64096   0.70128   0.00000  Uiso   1.00
H2401  H     0.60092   0.93304   0.94801   0.00000  Uiso   1.00
H2402  H     0.57063   0.95198   0.89968   0.00000  Uiso   1.00
H2403  H     0.54700   0.93307   0.95176   0.00000  Uiso   1.00
H2404  H     0.54147   0.87814   0.89113   0.00000  Uiso   1.00
H2405  H     0.57267   0.85302   0.93585   0.00000  Uiso   1.00
H2406  H     0.66784   0.79015   0.77397   0.00000  Uiso   1.00
H2407  H     0.62012   0.76142   0.78338   0.00000  Uiso   1.00
H2408  H     0.64172   0.76356   0.72654   0.00000  Uiso   1.00
H2409  H     0.58634   0.81932   0.73317   0.00000  Uiso   1.00
H2410  H     0.63372   0.84420   0.72157   0.00000  Uiso   1.00
H2411  H     0.99603   0.83456   0.91627   0.00000  Uiso   1.00
H2412  H     0.87707   0.61911   0.97677   0.00000  Uiso   1.00
H2413  H     0.88902   0.57151   0.93881   0.00000  Uiso   1.00
H2414  H     0.92615   0.59426   0.97730   0.00000  Uiso   1.00
H2415  H     0.94458   0.62389   0.90643   0.00000  Uiso   1.00
H2416  H     0.91804   0.67127   0.93417   0.00000  Uiso   1.00
H2417  H     0.67040   0.71347   0.88233   0.00000  Uiso   1.00
H2418  H     0.62350   0.74529   0.87961   0.00000  Uiso   1.00
H2419  H     0.65153   0.74233   0.93267   0.00000  Uiso   1.00
H2420  H     0.59056   0.69033   0.93202   0.00000  Uiso   1.00
H2421  H     0.63746   0.66434   0.94350   0.00000  Uiso   1.00
H2422  H     0.96141   0.84943   0.96114   0.00000  Uiso   1.00
H2423  H     0.87282   0.87763   0.69067   0.00000  Uiso   1.00
H2424  H     0.88517   0.92584   0.72761   0.00000  Uiso   1.00
H2425  H     0.92168   0.90272   0.68828   0.00000  Uiso   1.00
H2426  H     0.94131   0.87459   0.75965   0.00000  Uiso   1.00
H2427  H     0.91560   0.82625   0.73254   0.00000  Uiso   1.00
H2428  H     0.82729   0.79741   0.89208   0.00000  Uiso   1.00
H2429  H     0.87200   0.76255   0.88287   0.00000  Uiso   1.00
H2430  H     0.85002   0.76786   0.93959   0.00000  Uiso   1.00
H2431  H     0.91153   0.81467   0.93202   0.00000  Uiso   1.00
H2432  H     0.86780   0.84604   0.94634   0.00000  Uiso   1.00
H2433  H     0.51294   0.86142   0.96602   0.00000  Uiso   1.00
H2434  H     0.62611   0.61826   0.69067   0.00000  Uiso   1.00
H2435  H     0.61404   0.57131   0.72878   0.00000  Uiso   1.00
H2436  H     0.57720   0.59307   0.68966   0.00000  Uiso   1.00
H2437  H     0.55796   0.62397   0.76057   0.00000  Uiso   1.00
H2438  H     0.58406   0.67115   0.73242   0.00000  Uiso   1.00
H2439  H     0.57904   0.96502   0.78945   0.00000  Uiso   1.00
H2440  H     0.62643   0.99568   0.79220   0.00000  Uiso   1.00
H2441  H     0.59724   0.99534   0.74004   0.00000  Uiso   1.00
H2442  H     0.65718   0.94187   0.73601   0.00000  Uiso   1.00
H2443  H     0.60968   0.91676   0.72544   0.00000  Uiso   1.00
H2444  H     0.50135   0.83588   0.75264   0.00000  Uiso   1.00
H2445  H     0.84810   0.68659   0.94459   0.00000  Uiso   1.00
H2446  H     0.81950   0.70374   0.89434   0.00000  Uiso   1.00
H2447  H     0.79407   0.68652   0.94602   0.00000  Uiso   1.00
H2448  H     0.79033   0.62862   0.88820   0.00000  Uiso   1.00
H2449  H     0.82155   0.60617   0.93435   0.00000  Uiso   1.00
H2450  H     0.91974   0.53117   0.79501   0.00000  Uiso   1.00
H2451  H     0.87161   0.50188   0.79385   0.00000  Uiso   1.00
H2452  H     0.90422   0.50056   0.74433   0.00000  Uiso   1.00
H2453  H     0.84515   0.55579   0.73666   0.00000  Uiso   1.00
H2454  H     0.89396   0.57854   0.72785   0.00000  Uiso   1.00
H2455  H     0.53379   0.85207   0.70674   0.00000  Uiso   1.00
H2456  H     0.63034   0.86504   0.97596   0.00000  Uiso   1.00
H2457  H     0.64098   0.81863   0.93611   0.00000  Uiso   1.00
H2458  H     0.67924   0.83960   0.97417   0.00000  Uiso   1.00
H2459  H     0.69615   0.87173   0.90359   0.00000  Uiso   1.00
H2460  H     0.67036   0.91815   0.93399   0.00000  Uiso   1.00
H2461  H     0.91715   0.96791   0.87444   0.00000  Uiso   1.00
H2462  H     0.86894   0.99712   0.87744   0.00000  Uiso   1.00
H2463  H     0.90163   0.99588   0.92669   0.00000  Uiso   1.00
H2464  H     0.84230   0.94008   0.93162   0.00000  Uiso   1.00
H2465  H     0.89139   0.91804   0.94011   0.00000  Uiso   1.00
H2466  H     0.98141   0.86004   0.70311   0.00000  Uiso   1.00
H2467  H     0.65492   0.68556   0.72066   0.00000  Uiso   1.00
H2468  H     0.68116   0.70509   0.77196   0.00000  Uiso   1.00
H2469  H     0.70892   0.68707   0.72184   0.00000  Uiso   1.00
H2470  H     0.71199   0.63069   0.78032   0.00000  Uiso   1.00
H2471  H     0.68258   0.60656   0.73320   0.00000  Uiso   1.00
H2472  H     0.58124   0.53966   0.88740   0.00000  Uiso   1.00
H2473  H     0.62920   0.51037   0.88045   0.00000  Uiso   1.00
H2474  H     0.60497   0.51277   0.93596   0.00000  Uiso   1.00
H2475  H     0.66137   0.56720   0.93266   0.00000  Uiso   1.00
H2476  H     0.61385   0.59227   0.94384   0.00000  Uiso   1.00
N2477  N     0.50000   0.75000   0.95069   0.00000  Uiso   1.00
N2478  N     0.50000   0.75000   0.71598   0.00000  Uiso   1.00
N2479  N     0.75000   0.50000   0.95069   0.00000  Uiso   1.00
N2480  N     0.75000   0.50000   0.71598   0.00000  Uiso   1.00
O2481  O     0.54508   0.70491   0.87291   0.00000  Uiso   1.00
O2482  O     0.70491   0.54509   0.79375   0.00000  Uiso   1.00
O2483  O     0.70491   0.54509   0.87291   0.00000  Uiso   1.00
O2484  O     0.79508   0.95491   0.79375   0.00000  Uiso   1.00
O2485  O     0.70491   0.95491   0.79375   0.00000  Uiso   1.00
O2486  O     0.79508   0.54509   0.87291   0.00000  Uiso   1.00
O2487  O     0.79508   0.54509   0.79375   0.00000  Uiso   1.00
O2488  O     0.70491   0.95491   0.87291   0.00000  Uiso   1.00
O2489  O     0.95491   0.79509   0.79375   0.00000  Uiso   1.00
O2490  O     0.95491   0.79509   0.87291   0.00000  Uiso   1.00
O2491  O     0.54508   0.70491   0.79375   0.00000  Uiso   1.00
O2492  O     0.95491   0.70491   0.79375   0.00000  Uiso   1.00
O2493  O     0.54508   0.79509   0.87291   0.00000  Uiso   1.00
O2494  O     0.54508   0.79509   0.79375   0.00000  Uiso   1.00
O2495  O     0.95491   0.70491   0.87291   0.00000  Uiso   1.00
O2496  O     0.79508   0.95491   0.87291   0.00000  Uiso   1.00
loop_
_geom_bond_atom_site_label_1
_geom_bond_atom_site_label_2
_geom_bond_distance
_geom_bond_site_symmetry_2
_ccdc_geom_bond_type
C1     O193    1.314   .     A
C1     C30     1.489   .     S
C1     O203    1.318   .     A
C2     C37     1.507   .     S
C2     C1043   1.433   .     S
C2     N397    1.383   .     S
C3     C38     1.514   .     S
C3     C1874   1.433   1_454 S
C3     N190    1.379   .     S
C4     C39     1.515   .     S
C4     N189    1.380   .     A
C4     C1120   1.436   1_455 S
C5     C40     1.507   .     S
C5     C1672   1.435   1_554 S
C5     N608    1.383   .     S
C6     C41     1.506   .     S
C6     C839    1.431   .     S
C6     N191    1.382   .     S
C7     C42     1.508   .     S
C7     N192    1.379   .     A
C7     C1670   1.431   1_554 S
C8     C43     1.512   .     S
C8     N607    1.379   .     A
C8     C837    1.435   .     S
C9     C20     1.407   .     A
C9     C44     1.520   .     S
C9     C28     1.426   .     A
C10    C27     1.409   .     A
C10    C21     1.401   .     A
C10    C47     1.505   .     S
C11    C18     1.407   .     A
C11    C49     1.517   .     S
C11    C27     1.423   .     A
C12    C29     1.492   .     S
C12    O201    1.318   .     A
C12    O202    1.316   .     A
C13    C51     1.520   .     S
C13    C28     1.421   .     A
C13    C19     1.400   .     A
C14    C30     1.421   .     A
C14    C25     1.406   .     A
C14    C53     1.523   .     S
C15    C29     1.422   .     A
C15    C26     1.399   .     A
C15    C55     1.516   .     S
C16    C58     1.520   .     S
C16    C29     1.422   .     A
C16    C22     1.406   .     A
C17    C30     1.421   .     A
C17    C24     1.400   .     A
C17    C60     1.515   .     S
C18    C62     1.523   .     S
C18    C32     1.420   .     A
C19    C31     1.410   .     A
C19    C64     1.502   .     S
C20    C66     1.522   .     S
C20    C31     1.418   .     A
C21    C32     1.422   .     A
C21    C69     1.518   .     S
C22    C35     1.421   .     A
C22    C71     1.521   .     S
C23    C28     1.492   .     S
C23    O207    1.319   .     A
C23    O204    1.314   .     A
C24    C73     1.506   .     S
C24    C33     1.408   .     A
C25    C75     1.516   .     S
C25    C33     1.421   .     A
C26    C77     1.506   .     S
C26    C35     1.407   .     A
C27    C34     1.491   .     S
C31    C78     1.486   .     S
C32    C67     1.488   .     S
C33    C56     1.487   .     S
C34    O206    1.307   .     A
C34    O205    1.325   .     A
C35    C45     1.482   .     S
C36    C80     1.511   .     S
C36    H85     1.087   .     S
C36    H101    1.105   .     S
C36    H320    1.100   .     S
C37    H134    1.104   .     S
C37    H123    1.079   .     S
C37    H353    1.100   .     S
C38    H156    1.086   .     S
C38    H167    1.105   .     S
C38    H386    1.100   1_455 S
C39    H92     1.107   .     S
C39    H86     1.085   .     S
C39    H301    1.102   1_455 S
C40    H96     1.103   .     S
C40    H95     1.106   .     S
C40    H94     1.080   .     S
C41    H99     1.099   .     S
C41    H97     1.079   .     S
C41    H98     1.105   .     S
C42    H103    1.102   .     S
C42    H102    1.107   .     S
C42    H100    1.077   .     S
C43    H105    1.108   .     S
C43    H104    1.085   .     S
C43    H106    1.102   .     S
C44    C46     1.521   .     S
C44    H110    1.095   .     S
C44    H111    1.110   .     S
C45    O196    1.324   .     A
C45    O208    1.304   .     A
C46    H108    1.110   .     S
C46    H109    1.109   .     S
C46    H107    1.111   .     S
C47    C48     1.524   .     S
C47    H116    1.105   .     S
C47    H117    1.106   .     S
C48    H115    1.110   .     S
C48    H114    1.109   .     S
C48    H113    1.106   .     S
C49    H121    1.096   .     S
C49    H122    1.110   .     S
C49    C50     1.518   .     S
C50    H120    1.108   .     S
C50    H119    1.110   .     S
C50    H118    1.111   .     S
C51    H128    1.110   .     S
C51    C52     1.534   .     S
C51    H127    1.106   .     S
C52    H126    1.110   .     S
C52    H125    1.106   .     S
C52    H124    1.107   .     S
C53    C54     1.525   .     S
C53    H133    1.111   .     S
C53    H132    1.101   .     S
C54    H131    1.108   .     S
C54    H130    1.110   .     S
C54    H129    1.111   .     S
C55    H138    1.106   .     S
C55    H139    1.110   .     S
C55    C57     1.535   .     S
C56    O195    1.307   .     A
C56    O194    1.323   .     A
C57    H136    1.108   .     S
C57    H137    1.110   .     S
C57    H135    1.107   .     S
C58    H144    1.110   .     S
C58    H143    1.095   .     S
C58    C59     1.518   .     S
C59    H142    1.109   .     S
C59    H140    1.111   .     S
C59    H141    1.111   .     S
C60    C61     1.535   .     S
C60    H150    1.110   .     S
C60    H149    1.107   .     S
C61    H146    1.108   .     S
C61    H148    1.110   .     S
C61    H147    1.108   .     S
C62    C63     1.527   .     S
C62    H155    1.111   .     S
C62    H154    1.101   .     S
C63    H151    1.111   .     S
C63    H152    1.110   .     S
C63    H153    1.109   .     S
C64    H160    1.106   .     S
C64    H161    1.104   .     S
C64    C65     1.525   .     S
C65    H159    1.110   .     S
C65    H157    1.106   .     S
C65    H158    1.109   .     S
C66    C68     1.526   .     S
C66    H166    1.111   .     S
C66    H165    1.102   .     S
C67    O200    1.316   .     A
C67    O197    1.316   .     A
C68    H164    1.109   .     S
C68    H163    1.108   .     S
C68    H162    1.111   .     S
C69    H171    1.108   .     S
C69    H172    1.110   .     S
C69    C70     1.533   .     S
C70    H169    1.106   .     S
C70    H168    1.107   .     S
C70    H170    1.110   .     S
C71    H176    1.104   .     S
C71    H177    1.111   .     S
C71    C72     1.525   .     S
C72    H175    1.108   .     S
C72    H174    1.108   .     S
C72    H173    1.111   .     S
C73    C74     1.525   .     S
C73    H183    1.106   .     S
C73    H182    1.107   .     S
C74    H181    1.110   .     S
C74    H179    1.106   .     S
C74    H180    1.109   .     S
C75    H188    1.110   .     S
C75    C76     1.516   .     S
C75    H187    1.096   .     S
C76    H186    1.108   .     S
C76    H184    1.111   .     S
C76    H185    1.109   .     S
C77    C79     1.526   .     S
C77    H90     1.108   .     S
C77    H91     1.104   .     S
C78    O199    1.308   .     A
C78    O198    1.322   .     A
C79    H87     1.106   .     S
C79    H88     1.110   .     S
C79    H89     1.110   .     S
C80    N398    1.383   .     A
C80    C1876   1.436   1_554 S
Cu81   N189    2.053   .     S
Cu81   O205    2.006   .     S
Cu81   O193    2.001   .     S
Cu81   Cu82    2.732   .     S
Cu81   O410    2.004   1_455 S
Cu81   O415    2.005   1_455 S
Cu82   N190    2.053   .     S
Cu82   O409    2.001   1_455 S
Cu82   O412    2.006   1_455 S
Cu82   O203    2.004   .     S
Cu82   O206    2.005   .     S
Cu83   O195    2.004   .     S
Cu83   O198    2.006   .     S
Cu83   Cu84    2.732   .     S
Cu83   N191    2.053   .     S
Cu83   O616    2.005   1_545 S
Cu83   O624    2.001   1_545 S
Cu84   O613    2.006   1_545 S
Cu84   O612    2.004   1_545 S
Cu84   N192    2.053   .     S
Cu84   O194    2.001   .     S
Cu84   O199    2.005   .     S
H93    C247    1.102   .     S
H112   C244    1.100   1_455 S
H145   C245    1.100   1_455 S
H178   C246    1.100   .     S
N189   C210    1.383   1_455 S
N190   C288    1.383   1_455 A
N191   C424    1.379   1_545 A
N192   C421    1.383   1_545 S
O196   Cu500   2.004   .     S
O197   Cu500   2.006   .     S
O200   Cu499   2.005   .     S
O201   Cu290   2.001   .     S
O202   Cu289   2.004   .     S
O204   Cu290   2.006   .     S
O207   Cu289   2.005   .     S
O208   Cu499   2.001   .     S
C209   O401    1.314   .     A
C209   C238    1.489   .     S
C209   O411    1.318   .     A
C210   C245    1.507   .     S
C210   C835    1.433   1_655 S
C210   N189    1.383   1_655 S
C211   C246    1.514   .     S
C211   C1666   1.433   1_554 S
C211   N398    1.379   .     S
C212   C247    1.515   .     S
C212   N397    1.380   .     A
C212   C912    1.436   .     S
C213   C248    1.507   .     S
C213   C1880   1.435   1_554 S
C213   N816    1.383   .     S
C214   C249    1.506   .     S
C214   C1047   1.431   .     S
C214   N399    1.382   .     S
C215   C250    1.508   .     S
C215   N400    1.379   .     A
C215   C1878   1.431   1_554 S
C216   C251    1.512   .     S
C216   N815    1.379   .     A
C216   C1045   1.435   .     S
C217   C228    1.407   .     A
C217   C252    1.520   .     S
C217   C236    1.426   .     A
C218   C235    1.409   .     A
C218   C229    1.401   .     A
C218   C255    1.505   .     S
C219   C226    1.407   .     A
C219   C257    1.517   .     S
C219   C235    1.423   .     A
C220   C237    1.492   .     S
C220   O409    1.318   .     A
C220   O410    1.316   .     A
C221   C259    1.520   .     S
C221   C236    1.421   .     A
C221   C227    1.400   .     A
C222   C238    1.421   .     A
C222   C233    1.406   .     A
C222   C261    1.523   .     S
C223   C237    1.422   .     A
C223   C234    1.399   .     A
C223   C263    1.516   .     S
C224   C266    1.520   .     S
C224   C237    1.422   .     A
C224   C230    1.406   .     A
C225   C238    1.421   .     A
C225   C232    1.400   .     A
C225   C268    1.515   .     S
C226   C270    1.523   .     S
C226   C240    1.420   .     A
C227   C239    1.410   .     A
C227   C272    1.502   .     S
C228   C274    1.522   .     S
C228   C239    1.418   .     A
C229   C240    1.422   .     A
C229   C277    1.518   .     S
C230   C243    1.421   .     A
C230   C279    1.521   .     S
C231   C236    1.492   .     S
C231   O415    1.319   .     A
C231   O412    1.314   .     A
C232   C281    1.506   .     S
C232   C241    1.408   .     A
C233   C283    1.516   .     S
C233   C241    1.421   .     A
C234   C285    1.506   .     S
C234   C243    1.407   .     A
C235   C242    1.491   .     S
C239   C286    1.486   .     S
C240   C275    1.488   .     S
C241   C264    1.487   .     S
C242   O414    1.307   .     A
C242   O413    1.325   .     A
C243   C253    1.482   .     S
C244   C288    1.511   .     S
C244   H293    1.087   .     S
C244   H309    1.105   .     S
C244   H112    1.100   1_655 S
C245   H342    1.104   .     S
C245   H331    1.079   .     S
C245   H145    1.100   1_655 S
C246   H364    1.086   .     S
C246   H375    1.105   .     S
C247   H300    1.107   .     S
C247   H294    1.085   .     S
C248   H304    1.103   .     S
C248   H303    1.106   .     S
C248   H302    1.080   .     S
C249   H307    1.099   .     S
C249   H305    1.079   .     S
C249   H306    1.105   .     S
C250   H311    1.102   .     S
C250   H310    1.107   .     S
C250   H308    1.077   .     S
C251   H313    1.108   .     S
C251   H312    1.085   .     S
C251   H314    1.102   .     S
C252   C254    1.521   .     S
C252   H318    1.095   .     S
C252   H319    1.110   .     S
C253   O404    1.324   .     A
C253   O416    1.304   .     A
C254   H316    1.110   .     S
C254   H317    1.109   .     S
C254   H315    1.111   .     S
C255   C256    1.524   .     S
C255   H324    1.105   .     S
C255   H325    1.106   .     S
C256   H323    1.110   .     S
C256   H322    1.109   .     S
C256   H321    1.106   .     S
C257   H329    1.096   .     S
C257   H330    1.110   .     S
C257   C258    1.518   .     S
C258   H328    1.108   .     S
C258   H327    1.110   .     S
C258   H326    1.111   .     S
C259   H336    1.110   .     S
C259   C260    1.534   .     S
C259   H335    1.106   .     S
C260   H334    1.110   .     S
C260   H333    1.106   .     S
C260   H332    1.107   .     S
C261   C262    1.525   .     S
C261   H341    1.111   .     S
C261   H340    1.101   .     S
C262   H339    1.108   .     S
C262   H338    1.110   .     S
C262   H337    1.111   .     S
C263   H346    1.106   .     S
C263   H347    1.110   .     S
C263   C265    1.535   .     S
C264   O403    1.307   .     A
C264   O402    1.323   .     A
C265   H344    1.108   .     S
C265   H345    1.110   .     S
C265   H343    1.107   .     S
C266   H352    1.110   .     S
C266   H351    1.095   .     S
C266   C267    1.518   .     S
C267   H350    1.109   .     S
C267   H348    1.111   .     S
C267   H349    1.111   .     S
C268   C269    1.535   .     S
C268   H358    1.110   .     S
C268   H357    1.107   .     S
C269   H354    1.108   .     S
C269   H356    1.110   .     S
C269   H355    1.108   .     S
C270   C271    1.527   .     S
C270   H363    1.111   .     S
C270   H362    1.101   .     S
C271   H359    1.111   .     S
C271   H360    1.110   .     S
C271   H361    1.109   .     S
C272   H368    1.106   .     S
C272   H369    1.104   .     S
C272   C273    1.525   .     S
C273   H367    1.110   .     S
C273   H365    1.106   .     S
C273   H366    1.109   .     S
C274   C276    1.526   .     S
C274   H374    1.111   .     S
C274   H373    1.102   .     S
C275   O408    1.316   .     A
C275   O405    1.316   .     A
C276   H372    1.109   .     S
C276   H371    1.108   .     S
C276   H370    1.111   .     S
C277   H379    1.108   .     S
C277   H380    1.110   .     S
C277   C278    1.533   .     S
C278   H377    1.106   .     S
C278   H376    1.107   .     S
C278   H378    1.110   .     S
C279   H384    1.104   .     S
C279   H385    1.111   .     S
C279   C280    1.525   .     S
C280   H383    1.108   .     S
C280   H382    1.108   .     S
C280   H381    1.111   .     S
C281   C282    1.525   .     S
C281   H391    1.106   .     S
C281   H390    1.107   .     S
C282   H389    1.110   .     S
C282   H387    1.106   .     S
C282   H388    1.109   .     S
C283   H396    1.110   .     S
C283   C284    1.516   .     S
C283   H395    1.096   .     S
C284   H394    1.108   .     S
C284   H392    1.111   .     S
C284   H393    1.109   .     S
C285   C287    1.526   .     S
C285   H298    1.108   .     S
C285   H299    1.104   .     S
C286   O407    1.308   .     A
C286   O406    1.322   .     A
C287   H295    1.106   .     S
C287   H296    1.110   .     S
C287   H297    1.110   .     S
C288   N190    1.383   1_655 A
C288   C1668   1.436   1_654 S
Cu289  N397    2.053   .     S
Cu289  O413    2.006   .     S
Cu289  O401    2.001   .     S
Cu289  Cu290   2.732   .     S
Cu290  N398    2.053   .     S
Cu290  O411    2.004   .     S
Cu290  O414    2.005   .     S
Cu291  O403    2.004   .     S
Cu291  O406    2.006   .     S
Cu291  Cu292   2.732   .     S
Cu291  N399    2.053   .     S
Cu291  O824    2.005   1_545 S
Cu291  O832    2.001   1_545 S
Cu292  O821    2.006   1_545 S
Cu292  O820    2.004   1_545 S
Cu292  N400    2.053   .     S
Cu292  O402    2.001   .     S
Cu292  O407    2.005   .     S
H301   C39     1.102   1_655 S
H386   C38     1.100   1_655 S
N399   C632    1.379   1_545 A
N400   C629    1.383   1_545 S
O404   Cu708   2.004   .     S
O405   Cu708   2.006   .     S
O408   Cu707   2.005   .     S
O409   Cu82    2.001   1_655 S
O410   Cu81    2.004   1_655 S
O412   Cu82    2.006   1_655 S
O415   Cu81    2.005   1_655 S
O416   Cu707   2.001   .     S
C417   O609    1.314   .     A
C417   C446    1.489   .     S
C417   O619    1.318   .     A
C418   C453    1.507   .     S
C418   C1459   1.433   .     S
C418   N813    1.383   .     S
C419   C454    1.514   .     S
C419   C2290   1.433   1_454 S
C419   N606    1.379   .     S
C420   C455    1.515   .     S
C420   N605    1.380   .     A
C420   C1536   1.436   1_455 S
C421   C456    1.507   .     S
C421   C2088   1.435   1_554 S
C421   N192    1.383   1_565 S
C422   C457    1.506   .     S
C422   C1255   1.431   .     S
C422   N607    1.382   .     S
C423   C458    1.508   .     S
C423   N608    1.379   .     A
C423   C2086   1.431   1_554 S
C424   C459    1.512   .     S
C424   N191    1.379   1_565 A
C424   C1253   1.435   .     S
C425   C436    1.407   .     A
C425   C460    1.520   .     S
C425   C444    1.426   .     A
C426   C443    1.409   .     A
C426   C437    1.401   .     A
C426   C463    1.505   .     S
C427   C434    1.407   .     A
C427   C465    1.517   .     S
C427   C443    1.423   .     A
C428   C445    1.492   .     S
C428   O617    1.318   .     A
C428   O618    1.316   .     A
C429   C467    1.520   .     S
C429   C444    1.421   .     A
C429   C435    1.400   .     A
C430   C446    1.421   .     A
C430   C441    1.406   .     A
C430   C469    1.523   .     S
C431   C445    1.422   .     A
C431   C442    1.399   .     A
C431   C471    1.516   .     S
C432   C474    1.520   .     S
C432   C445    1.422   .     A
C432   C438    1.406   .     A
C433   C446    1.421   .     A
C433   C440    1.400   .     A
C433   C476    1.515   .     S
C434   C478    1.523   .     S
C434   C448    1.420   .     A
C435   C447    1.410   .     A
C435   C480    1.502   .     S
C436   C482    1.522   .     S
C436   C447    1.418   .     A
C437   C448    1.422   .     A
C437   C485    1.518   .     S
C438   C451    1.421   .     A
C438   C487    1.521   .     S
C439   C444    1.492   .     S
C439   O623    1.319   .     A
C439   O620    1.314   .     A
C440   C489    1.506   .     S
C440   C449    1.408   .     A
C441   C491    1.516   .     S
C441   C449    1.421   .     A
C442   C493    1.506   .     S
C442   C451    1.407   .     A
C443   C450    1.491   .     S
C447   C494    1.486   .     S
C448   C483    1.488   .     S
C449   C472    1.487   .     S
C450   O622    1.307   .     A
C450   O621    1.325   .     A
C451   C461    1.482   .     S
C452   C496    1.511   .     S
C452   H501    1.087   .     S
C452   H517    1.105   .     S
C452   H736    1.100   .     S
C453   H550    1.104   .     S
C453   H539    1.079   .     S
C453   H769    1.100   .     S
C454   H572    1.086   .     S
C454   H583    1.105   .     S
C454   H802    1.100   1_455 S
C455   H508    1.107   .     S
C455   H502    1.085   .     S
C455   H717    1.102   1_455 S
C456   H512    1.103   .     S
C456   H511    1.106   .     S
C456   H510    1.080   .     S
C457   H515    1.099   .     S
C457   H513    1.079   .     S
C457   H514    1.105   .     S
C458   H519    1.102   .     S
C458   H518    1.107   .     S
C458   H516    1.077   .     S
C459   H521    1.108   .     S
C459   H520    1.085   .     S
C459   H522    1.102   .     S
C460   C462    1.521   .     S
C460   H526    1.095   .     S
C460   H527    1.110   .     S
C461   O612    1.324   .     A
C461   O624    1.304   .     A
C462   H524    1.110   .     S
C462   H525    1.109   .     S
C462   H523    1.111   .     S
C463   C464    1.524   .     S
C463   H532    1.105   .     S
C463   H533    1.106   .     S
C464   H531    1.110   .     S
C464   H530    1.109   .     S
C464   H529    1.106   .     S
C465   H537    1.096   .     S
C465   H538    1.110   .     S
C465   C466    1.518   .     S
C466   H536    1.108   .     S
C466   H535    1.110   .     S
C466   H534    1.111   .     S
C467   H544    1.110   .     S
C467   C468    1.534   .     S
C467   H543    1.106   .     S
C468   H542    1.110   .     S
C468   H541    1.106   .     S
C468   H540    1.107   .     S
C469   C470    1.525   .     S
C469   H549    1.111   .     S
C469   H548    1.101   .     S
C470   H547    1.108   .     S
C470   H546    1.110   .     S
C470   H545    1.111   .     S
C471   H554    1.106   .     S
C471   H555    1.110   .     S
C471   C473    1.535   .     S
C472   O611    1.307   .     A
C472   O610    1.323   .     A
C473   H552    1.108   .     S
C473   H553    1.110   .     S
C473   H551    1.107   .     S
C474   H560    1.110   .     S
C474   H559    1.095   .     S
C474   C475    1.518   .     S
C475   H558    1.109   .     S
C475   H556    1.111   .     S
C475   H557    1.111   .     S
C476   C477    1.535   .     S
C476   H566    1.110   .     S
C476   H565    1.107   .     S
C477   H562    1.108   .     S
C477   H564    1.110   .     S
C477   H563    1.108   .     S
C478   C479    1.527   .     S
C478   H571    1.111   .     S
C478   H570    1.101   .     S
C479   H567    1.111   .     S
C479   H568    1.110   .     S
C479   H569    1.109   .     S
C480   H576    1.106   .     S
C480   H577    1.104   .     S
C480   C481    1.525   .     S
C481   H575    1.110   .     S
C481   H573    1.106   .     S
C481   H574    1.109   .     S
C482   C484    1.526   .     S
C482   H582    1.111   .     S
C482   H581    1.102   .     S
C483   O616    1.316   .     A
C483   O613    1.316   .     A
C484   H580    1.109   .     S
C484   H579    1.108   .     S
C484   H578    1.111   .     S
C485   H587    1.108   .     S
C485   H588    1.110   .     S
C485   C486    1.533   .     S
C486   H585    1.106   .     S
C486   H584    1.107   .     S
C486   H586    1.110   .     S
C487   H592    1.104   .     S
C487   H593    1.111   .     S
C487   C488    1.525   .     S
C488   H591    1.108   .     S
C488   H590    1.108   .     S
C488   H589    1.111   .     S
C489   C490    1.525   .     S
C489   H599    1.106   .     S
C489   H598    1.107   .     S
C490   H597    1.110   .     S
C490   H595    1.106   .     S
C490   H596    1.109   .     S
C491   H604    1.110   .     S
C491   C492    1.516   .     S
C491   H603    1.096   .     S
C492   H602    1.108   .     S
C492   H600    1.111   .     S
C492   H601    1.109   .     S
C493   C495    1.526   .     S
C493   H506    1.108   .     S
C493   H507    1.104   .     S
C494   O615    1.308   .     A
C494   O614    1.322   .     A
C495   H503    1.106   .     S
C495   H504    1.110   .     S
C495   H505    1.110   .     S
C496   N814    1.383   .     A
C496   C2292   1.436   1_554 S
Cu497  N605    2.053   .     S
Cu497  O621    2.006   .     S
Cu497  O609    2.001   .     S
Cu497  Cu498   2.732   .     S
Cu497  O826    2.004   1_455 S
Cu497  O831    2.005   1_455 S
Cu498  N606    2.053   .     S
Cu498  O825    2.001   1_455 S
Cu498  O828    2.006   1_455 S
Cu498  O619    2.004   .     S
Cu498  O622    2.005   .     S
Cu499  O611    2.004   .     S
Cu499  O614    2.006   .     S
Cu499  Cu500   2.732   .     S
Cu499  N607    2.053   .     S
Cu500  N608    2.053   .     S
Cu500  O610    2.001   .     S
Cu500  O615    2.005   .     S
H509   C663    1.102   .     S
H528   C660    1.100   1_455 S
H561   C661    1.100   1_455 S
H594   C662    1.100   .     S
N605   C626    1.383   1_455 S
N606   C704    1.383   1_455 A
O612   Cu84    2.004   1_565 S
O613   Cu84    2.006   1_565 S
O616   Cu83    2.005   1_565 S
O617   Cu706   2.001   .     S
O618   Cu705   2.004   .     S
O620   Cu706   2.006   .     S
O623   Cu705   2.005   .     S
O624   Cu83    2.001   1_565 S
C625   O817    1.314   .     A
C625   C654    1.489   .     S
C625   O827    1.318   .     A
C626   C661    1.507   .     S
C626   C1251   1.433   1_655 S
C626   N605    1.383   1_655 S
C627   C662    1.514   .     S
C627   C2082   1.433   1_554 S
C627   N814    1.379   .     S
C628   C663    1.515   .     S
C628   N813    1.380   .     A
C628   C1328   1.436   .     S
C629   C664    1.507   .     S
C629   C2296   1.435   1_554 S
C629   N400    1.383   1_565 S
C630   C665    1.506   .     S
C630   C1463   1.431   .     S
C630   N815    1.382   .     S
C631   C666    1.508   .     S
C631   N816    1.379   .     A
C631   C2294   1.431   1_554 S
C632   C667    1.512   .     S
C632   N399    1.379   1_565 A
C632   C1461   1.435   .     S
C633   C644    1.407   .     A
C633   C668    1.520   .     S
C633   C652    1.426   .     A
C634   C651    1.409   .     A
C634   C645    1.401   .     A
C634   C671    1.505   .     S
C635   C642    1.407   .     A
C635   C673    1.517   .     S
C635   C651    1.423   .     A
C636   C653    1.492   .     S
C636   O825    1.318   .     A
C636   O826    1.316   .     A
C637   C675    1.520   .     S
C637   C652    1.421   .     A
C637   C643    1.400   .     A
C638   C654    1.421   .     A
C638   C649    1.406   .     A
C638   C677    1.523   .     S
C639   C653    1.422   .     A
C639   C650    1.399   .     A
C639   C679    1.516   .     S
C640   C682    1.520   .     S
C640   C653    1.422   .     A
C640   C646    1.406   .     A
C641   C654    1.421   .     A
C641   C648    1.400   .     A
C641   C684    1.515   .     S
C642   C686    1.523   .     S
C642   C656    1.420   .     A
C643   C655    1.410   .     A
C643   C688    1.502   .     S
C644   C690    1.522   .     S
C644   C655    1.418   .     A
C645   C656    1.422   .     A
C645   C693    1.518   .     S
C646   C659    1.421   .     A
C646   C695    1.521   .     S
C647   C652    1.492   .     S
C647   O831    1.319   .     A
C647   O828    1.314   .     A
C648   C697    1.506   .     S
C648   C657    1.408   .     A
C649   C699    1.516   .     S
C649   C657    1.421   .     A
C650   C701    1.506   .     S
C650   C659    1.407   .     A
C651   C658    1.491   .     S
C655   C702    1.486   .     S
C656   C691    1.488   .     S
C657   C680    1.487   .     S
C658   O830    1.307   .     A
C658   O829    1.325   .     A
C659   C669    1.482   .     S
C660   C704    1.511   .     S
C660   H709    1.087   .     S
C660   H725    1.105   .     S
C660   H528    1.100   1_655 S
C661   H758    1.104   .     S
C661   H747    1.079   .     S
C661   H561    1.100   1_655 S
C662   H780    1.086   .     S
C662   H791    1.105   .     S
C663   H716    1.107   .     S
C663   H710    1.085   .     S
C664   H720    1.103   .     S
C664   H719    1.106   .     S
C664   H718    1.080   .     S
C665   H723    1.099   .     S
C665   H721    1.079   .     S
C665   H722    1.105   .     S
C666   H727    1.102   .     S
C666   H726    1.107   .     S
C666   H724    1.077   .     S
C667   H729    1.108   .     S
C667   H728    1.085   .     S
C667   H730    1.102   .     S
C668   C670    1.521   .     S
C668   H734    1.095   .     S
C668   H735    1.110   .     S
C669   O820    1.324   .     A
C669   O832    1.304   .     A
C670   H732    1.110   .     S
C670   H733    1.109   .     S
C670   H731    1.111   .     S
C671   C672    1.524   .     S
C671   H740    1.105   .     S
C671   H741    1.106   .     S
C672   H739    1.110   .     S
C672   H738    1.109   .     S
C672   H737    1.106   .     S
C673   H745    1.096   .     S
C673   H746    1.110   .     S
C673   C674    1.518   .     S
C674   H744    1.108   .     S
C674   H743    1.110   .     S
C674   H742    1.111   .     S
C675   H752    1.110   .     S
C675   C676    1.534   .     S
C675   H751    1.106   .     S
C676   H750    1.110   .     S
C676   H749    1.106   .     S
C676   H748    1.107   .     S
C677   C678    1.525   .     S
C677   H757    1.111   .     S
C677   H756    1.101   .     S
C678   H755    1.108   .     S
C678   H754    1.110   .     S
C678   H753    1.111   .     S
C679   H762    1.106   .     S
C679   H763    1.110   .     S
C679   C681    1.535   .     S
C680   O819    1.307   .     A
C680   O818    1.323   .     A
C681   H760    1.108   .     S
C681   H761    1.110   .     S
C681   H759    1.107   .     S
C682   H768    1.110   .     S
C682   H767    1.095   .     S
C682   C683    1.518   .     S
C683   H766    1.109   .     S
C683   H764    1.111   .     S
C683   H765    1.111   .     S
C684   C685    1.535   .     S
C684   H774    1.110   .     S
C684   H773    1.107   .     S
C685   H770    1.108   .     S
C685   H772    1.110   .     S
C685   H771    1.108   .     S
C686   C687    1.527   .     S
C686   H779    1.111   .     S
C686   H778    1.101   .     S
C687   H775    1.111   .     S
C687   H776    1.110   .     S
C687   H777    1.109   .     S
C688   H784    1.106   .     S
C688   H785    1.104   .     S
C688   C689    1.525   .     S
C689   H783    1.110   .     S
C689   H781    1.106   .     S
C689   H782    1.109   .     S
C690   C692    1.526   .     S
C690   H790    1.111   .     S
C690   H789    1.102   .     S
C691   O824    1.316   .     A
C691   O821    1.316   .     A
C692   H788    1.109   .     S
C692   H787    1.108   .     S
C692   H786    1.111   .     S
C693   H795    1.108   .     S
C693   H796    1.110   .     S
C693   C694    1.533   .     S
C694   H793    1.106   .     S
C694   H792    1.107   .     S
C694   H794    1.110   .     S
C695   H800    1.104   .     S
C695   H801    1.111   .     S
C695   C696    1.525   .     S
C696   H799    1.108   .     S
C696   H798    1.108   .     S
C696   H797    1.111   .     S
C697   C698    1.525   .     S
C697   H807    1.106   .     S
C697   H806    1.107   .     S
C698   H805    1.110   .     S
C698   H803    1.106   .     S
C698   H804    1.109   .     S
C699   H812    1.110   .     S
C699   C700    1.516   .     S
C699   H811    1.096   .     S
C700   H810    1.108   .     S
C700   H808    1.111   .     S
C700   H809    1.109   .     S
C701   C703    1.526   .     S
C701   H714    1.108   .     S
C701   H715    1.104   .     S
C702   O823    1.308   .     A
C702   O822    1.322   .     A
C703   H711    1.106   .     S
C703   H712    1.110   .     S
C703   H713    1.110   .     S
C704   N606    1.383   1_655 A
C704   C2084   1.436   1_654 S
Cu705  N813    2.053   .     S
Cu705  O829    2.006   .     S
Cu705  O817    2.001   .     S
Cu705  Cu706   2.732   .     S
Cu706  N814    2.053   .     S
Cu706  O827    2.004   .     S
Cu706  O830    2.005   .     S
Cu707  O819    2.004   .     S
Cu707  O822    2.006   .     S
Cu707  Cu708   2.732   .     S
Cu707  N815    2.053   .     S
Cu708  N816    2.053   .     S
Cu708  O818    2.001   .     S
Cu708  O823    2.005   .     S
H717   C455    1.102   1_655 S
H802   C454    1.100   1_655 S
O820   Cu292   2.004   1_565 S
O821   Cu292   2.006   1_565 S
O824   Cu291   2.005   1_565 S
O825   Cu498   2.001   1_655 S
O826   Cu497   2.004   1_655 S
O828   Cu498   2.006   1_655 S
O831   Cu497   2.005   1_655 S
O832   Cu291   2.001   1_565 S
C833   O1025   1.314   .     A
C833   C862    1.489   .     S
C833   O1035   1.318   .     A
C834   C869    1.507   .     S
C834   C1875   1.433   .     S
C834   N1229   1.383   .     S
C835   C870    1.514   .     S
C835   C210    1.433   1_455 S
C835   N1022   1.379   .     S
C836   C871    1.515   .     S
C836   N1021   1.380   .     A
C836   C1952   1.436   1_455 S
C837   C872    1.507   .     S
C837   N1440   1.383   .     S
C838   C873    1.506   .     S
C838   C1671   1.431   .     S
C838   N1023   1.382   .     S
C839   C874    1.508   .     S
C839   N1024   1.379   .     A
C840   C875    1.512   .     S
C840   N1439   1.379   .     A
C840   C1669   1.435   .     S
C841   C852    1.407   .     A
C841   C876    1.520   .     S
C841   C860    1.426   .     A
C842   C859    1.409   .     A
C842   C853    1.401   .     A
C842   C879    1.505   .     S
C843   C850    1.407   .     A
C843   C881    1.517   .     S
C843   C859    1.423   .     A
C844   C861    1.492   .     S
C844   O1033   1.318   .     A
C844   O1034   1.316   .     A
C845   C883    1.520   .     S
C845   C860    1.421   .     A
C845   C851    1.400   .     A
C846   C862    1.421   .     A
C846   C857    1.406   .     A
C846   C885    1.523   .     S
C847   C861    1.422   .     A
C847   C858    1.399   .     A
C847   C887    1.516   .     S
C848   C890    1.520   .     S
C848   C861    1.422   .     A
C848   C854    1.406   .     A
C849   C862    1.421   .     A
C849   C856    1.400   .     A
C849   C892    1.515   .     S
C850   C894    1.523   .     S
C850   C864    1.420   .     A
C851   C863    1.410   .     A
C851   C896    1.502   .     S
C852   C898    1.522   .     S
C852   C863    1.418   .     A
C853   C864    1.422   .     A
C853   C901    1.518   .     S
C854   C867    1.421   .     A
C854   C903    1.521   .     S
C855   C860    1.492   .     S
C855   O1039   1.319   .     A
C855   O1036   1.314   .     A
C856   C905    1.506   .     S
C856   C865    1.408   .     A
C857   C907    1.516   .     S
C857   C865    1.421   .     A
C858   C909    1.506   .     S
C858   C867    1.407   .     A
C859   C866    1.491   .     S
C863   C910    1.486   .     S
C864   C899    1.488   .     S
C865   C888    1.487   .     S
C866   O1038   1.307   .     A
C866   O1037   1.325   .     A
C867   C877    1.482   .     S
C868   C912    1.511   .     S
C868   H917    1.087   .     S
C868   H933    1.105   .     S
C868   H1152   1.100   .     S
C869   H966    1.104   .     S
C869   H955    1.079   .     S
C869   H1185   1.100   .     S
C870   H988    1.086   .     S
C870   H999    1.105   .     S
C870   H1218   1.100   1_455 S
C871   H924    1.107   .     S
C871   H918    1.085   .     S
C871   H1133   1.102   1_455 S
C872   H928    1.103   .     S
C872   H927    1.106   .     S
C872   H926    1.080   .     S
C873   H931    1.099   .     S
C873   H929    1.079   .     S
C873   H930    1.105   .     S
C874   H935    1.102   .     S
C874   H934    1.107   .     S
C874   H932    1.077   .     S
C875   H937    1.108   .     S
C875   H936    1.085   .     S
C875   H938    1.102   .     S
C876   C878    1.521   .     S
C876   H942    1.095   .     S
C876   H943    1.110   .     S
C877   O1028   1.324   .     A
C877   O1040   1.304   .     A
C878   H940    1.110   .     S
C878   H941    1.109   .     S
C878   H939    1.111   .     S
C879   C880    1.524   .     S
C879   H948    1.105   .     S
C879   H949    1.106   .     S
C880   H947    1.110   .     S
C880   H946    1.109   .     S
C880   H945    1.106   .     S
C881   H953    1.096   .     S
C881   H954    1.110   .     S
C881   C882    1.518   .     S
C882   H952    1.108   .     S
C882   H951    1.110   .     S
C882   H950    1.111   .     S
C883   H960    1.110   .     S
C883   C884    1.534   .     S
C883   H959    1.106   .     S
C884   H958    1.110   .     S
C884   H957    1.106   .     S
C884   H956    1.107   .     S
C885   C886    1.525   .     S
C885   H965    1.111   .     S
C885   H964    1.101   .     S
C886   H963    1.108   .     S
C886   H962    1.110   .     S
C886   H961    1.111   .     S
C887   H970    1.106   .     S
C887   H971    1.110   .     S
C887   C889    1.535   .     S
C888   O1027   1.307   .     A
C888   O1026   1.323   .     A
C889   H968    1.108   .     S
C889   H969    1.110   .     S
C889   H967    1.107   .     S
C890   H976    1.110   .     S
C890   H975    1.095   .     S
C890   C891    1.518   .     S
C891   H974    1.109   .     S
C891   H972    1.111   .     S
C891   H973    1.111   .     S
C892   C893    1.535   .     S
C892   H982    1.110   .     S
C892   H981    1.107   .     S
C893   H978    1.108   .     S
C893   H980    1.110   .     S
C893   H979    1.108   .     S
C894   C895    1.527   .     S
C894   H987    1.111   .     S
C894   H986    1.101   .     S
C895   H983    1.111   .     S
C895   H984    1.110   .     S
C895   H985    1.109   .     S
C896   H992    1.106   .     S
C896   H993    1.104   .     S
C896   C897    1.525   .     S
C897   H991    1.110   .     S
C897   H989    1.106   .     S
C897   H990    1.109   .     S
C898   C900    1.526   .     S
C898   H998    1.111   .     S
C898   H997    1.102   .     S
C899   O1032   1.316   .     A
C899   O1029   1.316   .     A
C900   H996    1.109   .     S
C900   H995    1.108   .     S
C900   H994    1.111   .     S
C901   H1003   1.108   .     S
C901   H1004   1.110   .     S
C901   C902    1.533   .     S
C902   H1001   1.106   .     S
C902   H1000   1.107   .     S
C902   H1002   1.110   .     S
C903   H1008   1.104   .     S
C903   H1009   1.111   .     S
C903   C904    1.525   .     S
C904   H1007   1.108   .     S
C904   H1006   1.108   .     S
C904   H1005   1.111   .     S
C905   C906    1.525   .     S
C905   H1015   1.106   .     S
C905   H1014   1.107   .     S
C906   H1013   1.110   .     S
C906   H1011   1.106   .     S
C906   H1012   1.109   .     S
C907   H1020   1.110   .     S
C907   C908    1.516   .     S
C907   H1019   1.096   .     S
C908   H1018   1.108   .     S
C908   H1016   1.111   .     S
C908   H1017   1.109   .     S
C909   C911    1.526   .     S
C909   H922    1.108   .     S
C909   H923    1.104   .     S
C910   O1031   1.308   .     A
C910   O1030   1.322   .     A
C911   H919    1.106   .     S
C911   H920    1.110   .     S
C911   H921    1.110   .     S
C912   N1230   1.383   .     A
Cu913  N1021   2.053   .     S
Cu913  O1037   2.006   .     S
Cu913  O1025   2.001   .     S
Cu913  Cu914   2.732   .     S
Cu913  O1242   2.004   1_455 S
Cu913  O1247   2.005   1_455 S
Cu914  N1022   2.053   .     S
Cu914  O1241   2.001   1_455 S
Cu914  O1244   2.006   1_455 S
Cu914  O1035   2.004   .     S
Cu914  O1038   2.005   .     S
Cu915  O1027   2.004   .     S
Cu915  O1030   2.006   .     S
Cu915  Cu916   2.732   .     S
Cu915  N1023   2.053   .     S
Cu915  O1448   2.005   1_545 S
Cu915  O1456   2.001   1_545 S
Cu916  O1445   2.006   1_545 S
Cu916  O1444   2.004   1_545 S
Cu916  N1024   2.053   .     S
Cu916  O1026   2.001   .     S
Cu916  O1031   2.005   .     S
H925   C1079   1.102   .     S
H944   C1076   1.100   1_455 S
H977   C1077   1.100   1_455 S
H1010  C1078   1.100   .     S
N1021  C1042   1.383   1_455 S
N1022  C1120   1.383   1_455 A
N1023  C1256   1.379   1_545 A
N1024  C1253   1.383   1_545 S
O1028  Cu1332  2.004   .     S
O1029  Cu1332  2.006   .     S
O1032  Cu1331  2.005   .     S
O1033  Cu1122  2.001   .     S
O1034  Cu1121  2.004   .     S
O1036  Cu1122  2.006   .     S
O1039  Cu1121  2.005   .     S
O1040  Cu1331  2.001   .     S
C1041  O1233   1.314   .     A
C1041  C1070   1.489   .     S
C1041  O1243   1.318   .     A
C1042  C1077   1.507   .     S
C1042  C1667   1.433   1_655 S
C1042  N1021   1.383   1_655 S
C1043  C1078   1.514   .     S
C1043  N1230   1.379   .     S
C1044  C1079   1.515   .     S
C1044  N1229   1.380   .     A
C1044  C1744   1.436   .     S
C1045  C1080   1.507   .     S
C1045  N1648   1.383   .     S
C1046  C1081   1.506   .     S
C1046  C1879   1.431   .     S
C1046  N1231   1.382   .     S
C1047  C1082   1.508   .     S
C1047  N1232   1.379   .     A
C1048  C1083   1.512   .     S
C1048  N1647   1.379   .     A
C1048  C1877   1.435   .     S
C1049  C1060   1.407   .     A
C1049  C1084   1.520   .     S
C1049  C1068   1.426   .     A
C1050  C1067   1.409   .     A
C1050  C1061   1.401   .     A
C1050  C1087   1.505   .     S
C1051  C1058   1.407   .     A
C1051  C1089   1.517   .     S
C1051  C1067   1.423   .     A
C1052  C1069   1.492   .     S
C1052  O1241   1.318   .     A
C1052  O1242   1.316   .     A
C1053  C1091   1.520   .     S
C1053  C1068   1.421   .     A
C1053  C1059   1.400   .     A
C1054  C1070   1.421   .     A
C1054  C1065   1.406   .     A
C1054  C1093   1.523   .     S
C1055  C1069   1.422   .     A
C1055  C1066   1.399   .     A
C1055  C1095   1.516   .     S
C1056  C1098   1.520   .     S
C1056  C1069   1.422   .     A
C1056  C1062   1.406   .     A
C1057  C1070   1.421   .     A
C1057  C1064   1.400   .     A
C1057  C1100   1.515   .     S
C1058  C1102   1.523   .     S
C1058  C1072   1.420   .     A
C1059  C1071   1.410   .     A
C1059  C1104   1.502   .     S
C1060  C1106   1.522   .     S
C1060  C1071   1.418   .     A
C1061  C1072   1.422   .     A
C1061  C1109   1.518   .     S
C1062  C1075   1.421   .     A
C1062  C1111   1.521   .     S
C1063  C1068   1.492   .     S
C1063  O1247   1.319   .     A
C1063  O1244   1.314   .     A
C1064  C1113   1.506   .     S
C1064  C1073   1.408   .     A
C1065  C1115   1.516   .     S
C1065  C1073   1.421   .     A
C1066  C1117   1.506   .     S
C1066  C1075   1.407   .     A
C1067  C1074   1.491   .     S
C1071  C1118   1.486   .     S
C1072  C1107   1.488   .     S
C1073  C1096   1.487   .     S
C1074  O1246   1.307   .     A
C1074  O1245   1.325   .     A
C1075  C1085   1.482   .     S
C1076  C1120   1.511   .     S
C1076  H1125   1.087   .     S
C1076  H1141   1.105   .     S
C1076  H944    1.100   1_655 S
C1077  H1174   1.104   .     S
C1077  H1163   1.079   .     S
C1077  H977    1.100   1_655 S
C1078  H1196   1.086   .     S
C1078  H1207   1.105   .     S
C1079  H1132   1.107   .     S
C1079  H1126   1.085   .     S
C1080  H1136   1.103   .     S
C1080  H1135   1.106   .     S
C1080  H1134   1.080   .     S
C1081  H1139   1.099   .     S
C1081  H1137   1.079   .     S
C1081  H1138   1.105   .     S
C1082  H1143   1.102   .     S
C1082  H1142   1.107   .     S
C1082  H1140   1.077   .     S
C1083  H1145   1.108   .     S
C1083  H1144   1.085   .     S
C1083  H1146   1.102   .     S
C1084  C1086   1.521   .     S
C1084  H1150   1.095   .     S
C1084  H1151   1.110   .     S
C1085  O1236   1.324   .     A
C1085  O1248   1.304   .     A
C1086  H1148   1.110   .     S
C1086  H1149   1.109   .     S
C1086  H1147   1.111   .     S
C1087  C1088   1.524   .     S
C1087  H1156   1.105   .     S
C1087  H1157   1.106   .     S
C1088  H1155   1.110   .     S
C1088  H1154   1.109   .     S
C1088  H1153   1.106   .     S
C1089  H1161   1.096   .     S
C1089  H1162   1.110   .     S
C1089  C1090   1.518   .     S
C1090  H1160   1.108   .     S
C1090  H1159   1.110   .     S
C1090  H1158   1.111   .     S
C1091  H1168   1.110   .     S
C1091  C1092   1.534   .     S
C1091  H1167   1.106   .     S
C1092  H1166   1.110   .     S
C1092  H1165   1.106   .     S
C1092  H1164   1.107   .     S
C1093  C1094   1.525   .     S
C1093  H1173   1.111   .     S
C1093  H1172   1.101   .     S
C1094  H1171   1.108   .     S
C1094  H1170   1.110   .     S
C1094  H1169   1.111   .     S
C1095  H1178   1.106   .     S
C1095  H1179   1.110   .     S
C1095  C1097   1.535   .     S
C1096  O1235   1.307   .     A
C1096  O1234   1.323   .     A
C1097  H1176   1.108   .     S
C1097  H1177   1.110   .     S
C1097  H1175   1.107   .     S
C1098  H1184   1.110   .     S
C1098  H1183   1.095   .     S
C1098  C1099   1.518   .     S
C1099  H1182   1.109   .     S
C1099  H1180   1.111   .     S
C1099  H1181   1.111   .     S
C1100  C1101   1.535   .     S
C1100  H1190   1.110   .     S
C1100  H1189   1.107   .     S
C1101  H1186   1.108   .     S
C1101  H1188   1.110   .     S
C1101  H1187   1.108   .     S
C1102  C1103   1.527   .     S
C1102  H1195   1.111   .     S
C1102  H1194   1.101   .     S
C1103  H1191   1.111   .     S
C1103  H1192   1.110   .     S
C1103  H1193   1.109   .     S
C1104  H1200   1.106   .     S
C1104  H1201   1.104   .     S
C1104  C1105   1.525   .     S
C1105  H1199   1.110   .     S
C1105  H1197   1.106   .     S
C1105  H1198   1.109   .     S
C1106  C1108   1.526   .     S
C1106  H1206   1.111   .     S
C1106  H1205   1.102   .     S
C1107  O1240   1.316   .     A
C1107  O1237   1.316   .     A
C1108  H1204   1.109   .     S
C1108  H1203   1.108   .     S
C1108  H1202   1.111   .     S
C1109  H1211   1.108   .     S
C1109  H1212   1.110   .     S
C1109  C1110   1.533   .     S
C1110  H1209   1.106   .     S
C1110  H1208   1.107   .     S
C1110  H1210   1.110   .     S
C1111  H1216   1.104   .     S
C1111  H1217   1.111   .     S
C1111  C1112   1.525   .     S
C1112  H1215   1.108   .     S
C1112  H1214   1.108   .     S
C1112  H1213   1.111   .     S
C1113  C1114   1.525   .     S
C1113  H1223   1.106   .     S
C1113  H1222   1.107   .     S
C1114  H1221   1.110   .     S
C1114  H1219   1.106   .     S
C1114  H1220   1.109   .     S
C1115  H1228   1.110   .     S
C1115  C1116   1.516   .     S
C1115  H1227   1.096   .     S
C1116  H1226   1.108   .     S
C1116  H1224   1.111   .     S
C1116  H1225   1.109   .     S
C1117  C1119   1.526   .     S
C1117  H1130   1.108   .     S
C1117  H1131   1.104   .     S
C1118  O1239   1.308   .     A
C1118  O1238   1.322   .     A
C1119  H1127   1.106   .     S
C1119  H1128   1.110   .     S
C1119  H1129   1.110   .     S
C1120  N1022   1.383   1_655 A
C1120  C4      1.436   1_655 S
Cu1121 N1229   2.053   .     S
Cu1121 O1245   2.006   .     S
Cu1121 O1233   2.001   .     S
Cu1121 Cu1122  2.732   .     S
Cu1122 N1230   2.053   .     S
Cu1122 O1243   2.004   .     S
Cu1122 O1246   2.005   .     S
Cu1123 O1235   2.004   .     S
Cu1123 O1238   2.006   .     S
Cu1123 Cu1124  2.732   .     S
Cu1123 N1231   2.053   .     S
Cu1123 O1656   2.005   1_545 S
Cu1123 O1664   2.001   1_545 S
Cu1124 O1653   2.006   1_545 S
Cu1124 O1652   2.004   1_545 S
Cu1124 N1232   2.053   .     S
Cu1124 O1234   2.001   .     S
Cu1124 O1239   2.005   .     S
H1133  C871    1.102   1_655 S
H1218  C870    1.100   1_655 S
N1231  C1464   1.379   1_545 A
N1232  C1461   1.383   1_545 S
O1236  Cu1540  2.004   .     S
O1237  Cu1540  2.006   .     S
O1240  Cu1539  2.005   .     S
O1241  Cu914   2.001   1_655 S
O1242  Cu913   2.004   1_655 S
O1244  Cu914   2.006   1_655 S
O1247  Cu913   2.005   1_655 S
O1248  Cu1539  2.001   .     S
C1249  O1441   1.314   .     A
C1249  C1278   1.489   .     S
C1249  O1451   1.318   .     A
C1250  C1285   1.507   .     S
C1250  C2291   1.433   .     S
C1250  N1645   1.383   .     S
C1251  C1286   1.514   .     S
C1251  C626    1.433   1_455 S
C1251  N1438   1.379   .     S
C1252  C1287   1.515   .     S
C1252  N1437   1.380   .     A
C1252  C2368   1.436   1_455 S
C1253  C1288   1.507   .     S
C1253  N1024   1.383   1_565 S
C1254  C1289   1.506   .     S
C1254  C2087   1.431   .     S
C1254  N1439   1.382   .     S
C1255  C1290   1.508   .     S
C1255  N1440   1.379   .     A
C1256  C1291   1.512   .     S
C1256  N1023   1.379   1_565 A
C1256  C2085   1.435   .     S
C1257  C1268   1.407   .     A
C1257  C1292   1.520   .     S
C1257  C1276   1.426   .     A
C1258  C1275   1.409   .     A
C1258  C1269   1.401   .     A
C1258  C1295   1.505   .     S
C1259  C1266   1.407   .     A
C1259  C1297   1.517   .     S
C1259  C1275   1.423   .     A
C1260  C1277   1.492   .     S
C1260  O1449   1.318   .     A
C1260  O1450   1.316   .     A
C1261  C1299   1.520   .     S
C1261  C1276   1.421   .     A
C1261  C1267   1.400   .     A
C1262  C1278   1.421   .     A
C1262  C1273   1.406   .     A
C1262  C1301   1.523   .     S
C1263  C1277   1.422   .     A
C1263  C1274   1.399   .     A
C1263  C1303   1.516   .     S
C1264  C1306   1.520   .     S
C1264  C1277   1.422   .     A
C1264  C1270   1.406   .     A
C1265  C1278   1.421   .     A
C1265  C1272   1.400   .     A
C1265  C1308   1.515   .     S
C1266  C1310   1.523   .     S
C1266  C1280   1.420   .     A
C1267  C1279   1.410   .     A
C1267  C1312   1.502   .     S
C1268  C1314   1.522   .     S
C1268  C1279   1.418   .     A
C1269  C1280   1.422   .     A
C1269  C1317   1.518   .     S
C1270  C1283   1.421   .     A
C1270  C1319   1.521   .     S
C1271  C1276   1.492   .     S
C1271  O1455   1.319   .     A
C1271  O1452   1.314   .     A
C1272  C1321   1.506   .     S
C1272  C1281   1.408   .     A
C1273  C1323   1.516   .     S
C1273  C1281   1.421   .     A
C1274  C1325   1.506   .     S
C1274  C1283   1.407   .     A
C1275  C1282   1.491   .     S
C1279  C1326   1.486   .     S
C1280  C1315   1.488   .     S
C1281  C1304   1.487   .     S
C1282  O1454   1.307   .     A
C1282  O1453   1.325   .     A
C1283  C1293   1.482   .     S
C1284  C1328   1.511   .     S
C1284  H1333   1.087   .     S
C1284  H1349   1.105   .     S
C1284  H1568   1.100   .     S
C1285  H1382   1.104   .     S
C1285  H1371   1.079   .     S
C1285  H1601   1.100   .     S
C1286  H1404   1.086   .     S
C1286  H1415   1.105   .     S
C1286  H1634   1.100   1_455 S
C1287  H1340   1.107   .     S
C1287  H1334   1.085   .     S
C1287  H1549   1.102   1_455 S
C1288  H1344   1.103   .     S
C1288  H1343   1.106   .     S
C1288  H1342   1.080   .     S
C1289  H1347   1.099   .     S
C1289  H1345   1.079   .     S
C1289  H1346   1.105   .     S
C1290  H1351   1.102   .     S
C1290  H1350   1.107   .     S
C1290  H1348   1.077   .     S
C1291  H1353   1.108   .     S
C1291  H1352   1.085   .     S
C1291  H1354   1.102   .     S
C1292  C1294   1.521   .     S
C1292  H1358   1.095   .     S
C1292  H1359   1.110   .     S
C1293  O1444   1.324   .     A
C1293  O1456   1.304   .     A
C1294  H1356   1.110   .     S
C1294  H1357   1.109   .     S
C1294  H1355   1.111   .     S
C1295  C1296   1.524   .     S
C1295  H1364   1.105   .     S
C1295  H1365   1.106   .     S
C1296  H1363   1.110   .     S
C1296  H1362   1.109   .     S
C1296  H1361   1.106   .     S
C1297  H1369   1.096   .     S
C1297  H1370   1.110   .     S
C1297  C1298   1.518   .     S
C1298  H1368   1.108   .     S
C1298  H1367   1.110   .     S
C1298  H1366   1.111   .     S
C1299  H1376   1.110   .     S
C1299  C1300   1.534   .     S
C1299  H1375   1.106   .     S
C1300  H1374   1.110   .     S
C1300  H1373   1.106   .     S
C1300  H1372   1.107   .     S
C1301  C1302   1.525   .     S
C1301  H1381   1.111   .     S
C1301  H1380   1.101   .     S
C1302  H1379   1.108   .     S
C1302  H1378   1.110   .     S
C1302  H1377   1.111   .     S
C1303  H1386   1.106   .     S
C1303  H1387   1.110   .     S
C1303  C1305   1.535   .     S
C1304  O1443   1.307   .     A
C1304  O1442   1.323   .     A
C1305  H1384   1.108   .     S
C1305  H1385   1.110   .     S
C1305  H1383   1.107   .     S
C1306  H1392   1.110   .     S
C1306  H1391   1.095   .     S
C1306  C1307   1.518   .     S
C1307  H1390   1.109   .     S
C1307  H1388   1.111   .     S
C1307  H1389   1.111   .     S
C1308  C1309   1.535   .     S
C1308  H1398   1.110   .     S
C1308  H1397   1.107   .     S
C1309  H1394   1.108   .     S
C1309  H1396   1.110   .     S
C1309  H1395   1.108   .     S
C1310  C1311   1.527   .     S
C1310  H1403   1.111   .     S
C1310  H1402   1.101   .     S
C1311  H1399   1.111   .     S
C1311  H1400   1.110   .     S
C1311  H1401   1.109   .     S
C1312  H1408   1.106   .     S
C1312  H1409   1.104   .     S
C1312  C1313   1.525   .     S
C1313  H1407   1.110   .     S
C1313  H1405   1.106   .     S
C1313  H1406   1.109   .     S
C1314  C1316   1.526   .     S
C1314  H1414   1.111   .     S
C1314  H1413   1.102   .     S
C1315  O1448   1.316   .     A
C1315  O1445   1.316   .     A
C1316  H1412   1.109   .     S
C1316  H1411   1.108   .     S
C1316  H1410   1.111   .     S
C1317  H1419   1.108   .     S
C1317  H1420   1.110   .     S
C1317  C1318   1.533   .     S
C1318  H1417   1.106   .     S
C1318  H1416   1.107   .     S
C1318  H1418   1.110   .     S
C1319  H1424   1.104   .     S
C1319  H1425   1.111   .     S
C1319  C1320   1.525   .     S
C1320  H1423   1.108   .     S
C1320  H1422   1.108   .     S
C1320  H1421   1.111   .     S
C1321  C1322   1.525   .     S
C1321  H1431   1.106   .     S
C1321  H1430   1.107   .     S
C1322  H1429   1.110   .     S
C1322  H1427   1.106   .     S
C1322  H1428   1.109   .     S
C1323  H1436   1.110   .     S
C1323  C1324   1.516   .     S
C1323  H1435   1.096   .     S
C1324  H1434   1.108   .     S
C1324  H1432   1.111   .     S
C1324  H1433   1.109   .     S
C1325  C1327   1.526   .     S
C1325  H1338   1.108   .     S
C1325  H1339   1.104   .     S
C1326  O1447   1.308   .     A
C1326  O1446   1.322   .     A
C1327  H1335   1.106   .     S
C1327  H1336   1.110   .     S
C1327  H1337   1.110   .     S
C1328  N1646   1.383   .     A
Cu1329 N1437   2.053   .     S
Cu1329 O1453   2.006   .     S
Cu1329 O1441   2.001   .     S
Cu1329 Cu1330  2.732   .     S
Cu1329 O1658   2.004   1_455 S
Cu1329 O1663   2.005   1_455 S
Cu1330 N1438   2.053   .     S
Cu1330 O1657   2.001   1_455 S
Cu1330 O1660   2.006   1_455 S
Cu1330 O1451   2.004   .     S
Cu1330 O1454   2.005   .     S
Cu1331 O1443   2.004   .     S
Cu1331 O1446   2.006   .     S
Cu1331 Cu1332  2.732   .     S
Cu1331 N1439   2.053   .     S
Cu1332 N1440   2.053   .     S
Cu1332 O1442   2.001   .     S
Cu1332 O1447   2.005   .     S
H1341  C1495   1.102   .     S
H1360  C1492   1.100   1_455 S
H1393  C1493   1.100   1_455 S
H1426  C1494   1.100   .     S
N1437  C1458   1.383   1_455 S
N1438  C1536   1.383   1_455 A
O1444  Cu916   2.004   1_565 S
O1445  Cu916   2.006   1_565 S
O1448  Cu915   2.005   1_565 S
O1449  Cu1538  2.001   .     S
O1450  Cu1537  2.004   .     S
O1452  Cu1538  2.006   .     S
O1455  Cu1537  2.005   .     S
O1456  Cu915   2.001   1_565 S
C1457  O1649   1.314   .     A
C1457  C1486   1.489   .     S
C1457  O1659   1.318   .     A
C1458  C1493   1.507   .     S
C1458  C2083   1.433   1_655 S
C1458  N1437   1.383   1_655 S
C1459  C1494   1.514   .     S
C1459  N1646   1.379   .     S
C1460  C1495   1.515   .     S
C1460  N1645   1.380   .     A
C1460  C2160   1.436   .     S
C1461  C1496   1.507   .     S
C1461  N1232   1.383   1_565 S
C1462  C1497   1.506   .     S
C1462  C2295   1.431   .     S
C1462  N1647   1.382   .     S
C1463  C1498   1.508   .     S
C1463  N1648   1.379   .     A
C1464  C1499   1.512   .     S
C1464  N1231   1.379   1_565 A
C1464  C2293   1.435   .     S
C1465  C1476   1.407   .     A
C1465  C1500   1.520   .     S
C1465  C1484   1.426   .     A
C1466  C1483   1.409   .     A
C1466  C1477   1.401   .     A
C1466  C1503   1.505   .     S
C1467  C1474   1.407   .     A
C1467  C1505   1.517   .     S
C1467  C1483   1.423   .     A
C1468  C1485   1.492   .     S
C1468  O1657   1.318   .     A
C1468  O1658   1.316   .     A
C1469  C1507   1.520   .     S
C1469  C1484   1.421   .     A
C1469  C1475   1.400   .     A
C1470  C1486   1.421   .     A
C1470  C1481   1.406   .     A
C1470  C1509   1.523   .     S
C1471  C1485   1.422   .     A
C1471  C1482   1.399   .     A
C1471  C1511   1.516   .     S
C1472  C1514   1.520   .     S
C1472  C1485   1.422   .     A
C1472  C1478   1.406   .     A
C1473  C1486   1.421   .     A
C1473  C1480   1.400   .     A
C1473  C1516   1.515   .     S
C1474  C1518   1.523   .     S
C1474  C1488   1.420   .     A
C1475  C1487   1.410   .     A
C1475  C1520   1.502   .     S
C1476  C1522   1.522   .     S
C1476  C1487   1.418   .     A
C1477  C1488   1.422   .     A
C1477  C1525   1.518   .     S
C1478  C1491   1.421   .     A
C1478  C1527   1.521   .     S
C1479  C1484   1.492   .     S
C1479  O1663   1.319   .     A
C1479  O1660   1.314   .     A
C1480  C1529   1.506   .     S
C1480  C1489   1.408   .     A
C1481  C1531   1.516   .     S
C1481  C1489   1.421   .     A
C1482  C1533   1.506   .     S
C1482  C1491   1.407   .     A
C1483  C1490   1.491   .     S
C1487  C1534   1.486   .     S
C1488  C1523   1.488   .     S
C1489  C1512   1.487   .     S
C1490  O1662   1.307   .     A
C1490  O1661   1.325   .     A
C1491  C1501   1.482   .     S
C1492  C1536   1.511   .     S
C1492  H1541   1.087   .     S
C1492  H1557   1.105   .     S
C1492  H1360   1.100   1_655 S
C1493  H1590   1.104   .     S
C1493  H1579   1.079   .     S
C1493  H1393   1.100   1_655 S
C1494  H1612   1.086   .     S
C1494  H1623   1.105   .     S
C1495  H1548   1.107   .     S
C1495  H1542   1.085   .     S
C1496  H1552   1.103   .     S
C1496  H1551   1.106   .     S
C1496  H1550   1.080   .     S
C1497  H1555   1.099   .     S
C1497  H1553   1.079   .     S
C1497  H1554   1.105   .     S
C1498  H1559   1.102   .     S
C1498  H1558   1.107   .     S
C1498  H1556   1.077   .     S
C1499  H1561   1.108   .     S
C1499  H1560   1.085   .     S
C1499  H1562   1.102   .     S
C1500  C1502   1.521   .     S
C1500  H1566   1.095   .     S
C1500  H1567   1.110   .     S
C1501  O1652   1.324   .     A
C1501  O1664   1.304   .     A
C1502  H1564   1.110   .     S
C1502  H1565   1.109   .     S
C1502  H1563   1.111   .     S
C1503  C1504   1.524   .     S
C1503  H1572   1.105   .     S
C1503  H1573   1.106   .     S
C1504  H1571   1.110   .     S
C1504  H1570   1.109   .     S
C1504  H1569   1.106   .     S
C1505  H1577   1.096   .     S
C1505  H1578   1.110   .     S
C1505  C1506   1.518   .     S
C1506  H1576   1.108   .     S
C1506  H1575   1.110   .     S
C1506  H1574   1.111   .     S
C1507  H1584   1.110   .     S
C1507  C1508   1.534   .     S
C1507  H1583   1.106   .     S
C1508  H1582   1.110   .     S
C1508  H1581   1.106   .     S
C1508  H1580   1.107   .     S
C1509  C1510   1.525   .     S
C1509  H1589   1.111   .     S
C1509  H1588   1.101   .     S
C1510  H1587   1.108   .     S
C1510  H1586   1.110   .     S
C1510  H1585   1.111   .     S
C1511  H1594   1.106   .     S
C1511  H1595   1.110   .     S
C1511  C1513   1.535   .     S
C1512  O1651   1.307   .     A
C1512  O1650   1.323   .     A
C1513  H1592   1.108   .     S
C1513  H1593   1.110   .     S
C1513  H1591   1.107   .     S
C1514  H1600   1.110   .     S
C1514  H1599   1.095   .     S
C1514  C1515   1.518   .     S
C1515  H1598   1.109   .     S
C1515  H1596   1.111   .     S
C1515  H1597   1.111   .     S
C1516  C1517   1.535   .     S
C1516  H1606   1.110   .     S
C1516  H1605   1.107   .     S
C1517  H1602   1.108   .     S
C1517  H1604   1.110   .     S
C1517  H1603   1.108   .     S
C1518  C1519   1.527   .     S
C1518  H1611   1.111   .     S
C1518  H1610   1.101   .     S
C1519  H1607   1.111   .     S
C1519  H1608   1.110   .     S
C1519  H1609   1.109   .     S
C1520  H1616   1.106   .     S
C1520  H1617   1.104   .     S
C1520  C1521   1.525   .     S
C1521  H1615   1.110   .     S
C1521  H1613   1.106   .     S
C1521  H1614   1.109   .     S
C1522  C1524   1.526   .     S
C1522  H1622   1.111   .     S
C1522  H1621   1.102   .     S
C1523  O1656   1.316   .     A
C1523  O1653   1.316   .     A
C1524  H1620   1.109   .     S
C1524  H1619   1.108   .     S
C1524  H1618   1.111   .     S
C1525  H1627   1.108   .     S
C1525  H1628   1.110   .     S
C1525  C1526   1.533   .     S
C1526  H1625   1.106   .     S
C1526  H1624   1.107   .     S
C1526  H1626   1.110   .     S
C1527  H1632   1.104   .     S
C1527  H1633   1.111   .     S
C1527  C1528   1.525   .     S
C1528  H1631   1.108   .     S
C1528  H1630   1.108   .     S
C1528  H1629   1.111   .     S
C1529  C1530   1.525   .     S
C1529  H1639   1.106   .     S
C1529  H1638   1.107   .     S
C1530  H1637   1.110   .     S
C1530  H1635   1.106   .     S
C1530  H1636   1.109   .     S
C1531  H1644   1.110   .     S
C1531  C1532   1.516   .     S
C1531  H1643   1.096   .     S
C1532  H1642   1.108   .     S
C1532  H1640   1.111   .     S
C1532  H1641   1.109   .     S
C1533  C1535   1.526   .     S
C1533  H1546   1.108   .     S
C1533  H1547   1.104   .     S
C1534  O1655   1.308   .     A
C1534  O1654   1.322   .     A
C1535  H1543   1.106   .     S
C1535  H1544   1.110   .     S
C1535  H1545   1.110   .     S
C1536  N1438   1.383   1_655 A
C1536  C420    1.436   1_655 S
Cu1537 N1645   2.053   .     S
Cu1537 O1661   2.006   .     S
Cu1537 O1649   2.001   .     S
Cu1537 Cu1538  2.732   .     S
Cu1538 N1646   2.053   .     S
Cu1538 O1659   2.004   .     S
Cu1538 O1662   2.005   .     S
Cu1539 O1651   2.004   .     S
Cu1539 O1654   2.006   .     S
Cu1539 Cu1540  2.732   .     S
Cu1539 N1647   2.053   .     S
Cu1540 N1648   2.053   .     S
Cu1540 O1650   2.001   .     S
Cu1540 O1655   2.005   .     S
H1549  C1287   1.102   1_655 S
H1634  C1286   1.100   1_655 S
O1652  Cu1124  2.004   1_565 S
O1653  Cu1124  2.006   1_565 S
O1656  Cu1123  2.005   1_565 S
O1657  Cu1330  2.001   1_655 S
O1658  Cu1329  2.004   1_655 S
O1660  Cu1330  2.006   1_655 S
O1663  Cu1329  2.005   1_655 S
O1664  Cu1123  2.001   1_565 S
C1665  O1857   1.314   .     A
C1665  C1694   1.489   .     S
C1665  O1867   1.318   .     A
C1666  C1701   1.507   .     S
C1666  C211    1.433   1_556 S
C1666  N2061   1.383   .     S
C1667  C1702   1.514   .     S
C1667  C1042   1.433   1_455 S
C1667  N1854   1.379   .     S
C1668  C1703   1.515   .     S
C1668  N1853   1.380   .     A
C1668  C288    1.436   1_456 S
C1669  C1704   1.507   .     S
C1669  N2272   1.383   .     S
C1670  C1705   1.506   .     S
C1670  C7      1.431   1_556 S
C1670  N1855   1.382   .     S
C1671  C1706   1.508   .     S
C1671  N1856   1.379   .     A
C1672  C1707   1.512   .     S
C1672  N2271   1.379   .     A
C1672  C5      1.435   1_556 S
C1673  C1684   1.407   .     A
C1673  C1708   1.520   .     S
C1673  C1692   1.426   .     A
C1674  C1691   1.409   .     A
C1674  C1685   1.401   .     A
C1674  C1711   1.505   .     S
C1675  C1682   1.407   .     A
C1675  C1713   1.517   .     S
C1675  C1691   1.423   .     A
C1676  C1693   1.492   .     S
C1676  O1865   1.318   .     A
C1676  O1866   1.316   .     A
C1677  C1715   1.520   .     S
C1677  C1692   1.421   .     A
C1677  C1683   1.400   .     A
C1678  C1694   1.421   .     A
C1678  C1689   1.406   .     A
C1678  C1717   1.523   .     S
C1679  C1693   1.422   .     A
C1679  C1690   1.399   .     A
C1679  C1719   1.516   .     S
C1680  C1722   1.520   .     S
C1680  C1693   1.422   .     A
C1680  C1686   1.406   .     A
C1681  C1694   1.421   .     A
C1681  C1688   1.400   .     A
C1681  C1724   1.515   .     S
C1682  C1726   1.523   .     S
C1682  C1696   1.420   .     A
C1683  C1695   1.410   .     A
C1683  C1728   1.502   .     S
C1684  C1730   1.522   .     S
C1684  C1695   1.418   .     A
C1685  C1696   1.422   .     A
C1685  C1733   1.518   .     S
C1686  C1699   1.421   .     A
C1686  C1735   1.521   .     S
C1687  C1692   1.492   .     S
C1687  O1871   1.319   .     A
C1687  O1868   1.314   .     A
C1688  C1737   1.506   .     S
C1688  C1697   1.408   .     A
C1689  C1739   1.516   .     S
C1689  C1697   1.421   .     A
C1690  C1741   1.506   .     S
C1690  C1699   1.407   .     A
C1691  C1698   1.491   .     S
C1695  C1742   1.486   .     S
C1696  C1731   1.488   .     S
C1697  C1720   1.487   .     S
C1698  O1870   1.307   .     A
C1698  O1869   1.325   .     A
C1699  C1709   1.482   .     S
C1700  C1744   1.511   .     S
C1700  H1749   1.087   .     S
C1700  H1765   1.105   .     S
C1700  H1984   1.100   .     S
C1701  H1798   1.104   .     S
C1701  H1787   1.079   .     S
C1701  H2017   1.100   .     S
C1702  H1820   1.086   .     S
C1702  H1831   1.105   .     S
C1702  H2050   1.100   1_455 S
C1703  H1756   1.107   .     S
C1703  H1750   1.085   .     S
C1703  H1965   1.102   1_455 S
C1704  H1760   1.103   .     S
C1704  H1759   1.106   .     S
C1704  H1758   1.080   .     S
C1705  H1763   1.099   .     S
C1705  H1761   1.079   .     S
C1705  H1762   1.105   .     S
C1706  H1767   1.102   .     S
C1706  H1766   1.107   .     S
C1706  H1764   1.077   .     S
C1707  H1769   1.108   .     S
C1707  H1768   1.085   .     S
C1707  H1770   1.102   .     S
C1708  C1710   1.521   .     S
C1708  H1774   1.095   .     S
C1708  H1775   1.110   .     S
C1709  O1860   1.324   .     A
C1709  O1872   1.304   .     A
C1710  H1772   1.110   .     S
C1710  H1773   1.109   .     S
C1710  H1771   1.111   .     S
C1711  C1712   1.524   .     S
C1711  H1780   1.105   .     S
C1711  H1781   1.106   .     S
C1712  H1779   1.110   .     S
C1712  H1778   1.109   .     S
C1712  H1777   1.106   .     S
C1713  H1785   1.096   .     S
C1713  H1786   1.110   .     S
C1713  C1714   1.518   .     S
C1714  H1784   1.108   .     S
C1714  H1783   1.110   .     S
C1714  H1782   1.111   .     S
C1715  H1792   1.110   .     S
C1715  C1716   1.534   .     S
C1715  H1791   1.106   .     S
C1716  H1790   1.110   .     S
C1716  H1789   1.106   .     S
C1716  H1788   1.107   .     S
C1717  C1718   1.525   .     S
C1717  H1797   1.111   .     S
C1717  H1796   1.101   .     S
C1718  H1795   1.108   .     S
C1718  H1794   1.110   .     S
C1718  H1793   1.111   .     S
C1719  H1802   1.106   .     S
C1719  H1803   1.110   .     S
C1719  C1721   1.535   .     S
C1720  O1859   1.307   .     A
C1720  O1858   1.323   .     A
C1721  H1800   1.108   .     S
C1721  H1801   1.110   .     S
C1721  H1799   1.107   .     S
C1722  H1808   1.110   .     S
C1722  H1807   1.095   .     S
C1722  C1723   1.518   .     S
C1723  H1806   1.109   .     S
C1723  H1804   1.111   .     S
C1723  H1805   1.111   .     S
C1724  C1725   1.535   .     S
C1724  H1814   1.110   .     S
C1724  H1813   1.107   .     S
C1725  H1810   1.108   .     S
C1725  H1812   1.110   .     S
C1725  H1811   1.108   .     S
C1726  C1727   1.527   .     S
C1726  H1819   1.111   .     S
C1726  H1818   1.101   .     S
C1727  H1815   1.111   .     S
C1727  H1816   1.110   .     S
C1727  H1817   1.109   .     S
C1728  H1824   1.106   .     S
C1728  H1825   1.104   .     S
C1728  C1729   1.525   .     S
C1729  H1823   1.110   .     S
C1729  H1821   1.106   .     S
C1729  H1822   1.109   .     S
C1730  C1732   1.526   .     S
C1730  H1830   1.111   .     S
C1730  H1829   1.102   .     S
C1731  O1864   1.316   .     A
C1731  O1861   1.316   .     A
C1732  H1828   1.109   .     S
C1732  H1827   1.108   .     S
C1732  H1826   1.111   .     S
C1733  H1835   1.108   .     S
C1733  H1836   1.110   .     S
C1733  C1734   1.533   .     S
C1734  H1833   1.106   .     S
C1734  H1832   1.107   .     S
C1734  H1834   1.110   .     S
C1735  H1840   1.104   .     S
C1735  H1841   1.111   .     S
C1735  C1736   1.525   .     S
C1736  H1839   1.108   .     S
C1736  H1838   1.108   .     S
C1736  H1837   1.111   .     S
C1737  C1738   1.525   .     S
C1737  H1847   1.106   .     S
C1737  H1846   1.107   .     S
C1738  H1845   1.110   .     S
C1738  H1843   1.106   .     S
C1738  H1844   1.109   .     S
C1739  H1852   1.110   .     S
C1739  C1740   1.516   .     S
C1739  H1851   1.096   .     S
C1740  H1850   1.108   .     S
C1740  H1848   1.111   .     S
C1740  H1849   1.109   .     S
C1741  C1743   1.526   .     S
C1741  H1754   1.108   .     S
C1741  H1755   1.104   .     S
C1742  O1863   1.308   .     A
C1742  O1862   1.322   .     A
C1743  H1751   1.106   .     S
C1743  H1752   1.110   .     S
C1743  H1753   1.110   .     S
C1744  N2062   1.383   .     A
Cu1745 N1853   2.053   .     S
Cu1745 O1869   2.006   .     S
Cu1745 O1857   2.001   .     S
Cu1745 Cu1746  2.732   .     S
Cu1745 O2074   2.004   1_455 S
Cu1745 O2079   2.005   1_455 S
Cu1746 N1854   2.053   .     S
Cu1746 O2073   2.001   1_455 S
Cu1746 O2076   2.006   1_455 S
Cu1746 O1867   2.004   .     S
Cu1746 O1870   2.005   .     S
Cu1747 O1859   2.004   .     S
Cu1747 O1862   2.006   .     S
Cu1747 Cu1748  2.732   .     S
Cu1747 N1855   2.053   .     S
Cu1747 O2280   2.005   1_545 S
Cu1747 O2288   2.001   1_545 S
Cu1748 O2277   2.006   1_545 S
Cu1748 O2276   2.004   1_545 S
Cu1748 N1856   2.053   .     S
Cu1748 O1858   2.001   .     S
Cu1748 O1863   2.005   .     S
H1757  C1911   1.102   .     S
H1776  C1908   1.100   1_455 S
H1809  C1909   1.100   1_455 S
H1842  C1910   1.100   .     S
N1853  C1874   1.383   1_455 S
N1854  C1952   1.383   1_455 A
N1855  C2088   1.379   1_545 A
N1856  C2085   1.383   1_545 S
O1860  Cu2164  2.004   .     S
O1861  Cu2164  2.006   .     S
O1864  Cu2163  2.005   .     S
O1865  Cu1954  2.001   .     S
O1866  Cu1953  2.004   .     S
O1868  Cu1954  2.006   .     S
O1871  Cu1953  2.005   .     S
O1872  Cu2163  2.001   .     S
C1873  O2065   1.314   .     A
C1873  C1902   1.489   .     S
C1873  O2075   1.318   .     A
C1874  C1909   1.507   .     S
C1874  C3      1.433   1_656 S
C1874  N1853   1.383   1_655 S
C1875  C1910   1.514   .     S
C1875  N2062   1.379   .     S
C1876  C1911   1.515   .     S
C1876  N2061   1.380   .     A
C1876  C80     1.436   1_556 S
C1877  C1912   1.507   .     S
C1877  N2480   1.383   .     S
C1878  C1913   1.506   .     S
C1878  C215    1.431   1_556 S
C1878  N2063   1.382   .     S
C1879  C1914   1.508   .     S
C1879  N2064   1.379   .     A
C1880  C1915   1.512   .     S
C1880  N2479   1.379   .     A
C1880  C213    1.435   1_556 S
C1881  C1892   1.407   .     A
C1881  C1916   1.520   .     S
C1881  C1900   1.426   .     A
C1882  C1899   1.409   .     A
C1882  C1893   1.401   .     A
C1882  C1919   1.505   .     S
C1883  C1890   1.407   .     A
C1883  C1921   1.517   .     S
C1883  C1899   1.423   .     A
C1884  C1901   1.492   .     S
C1884  O2073   1.318   .     A
C1884  O2074   1.316   .     A
C1885  C1923   1.520   .     S
C1885  C1900   1.421   .     A
C1885  C1891   1.400   .     A
C1886  C1902   1.421   .     A
C1886  C1897   1.406   .     A
C1886  C1925   1.523   .     S
C1887  C1901   1.422   .     A
C1887  C1898   1.399   .     A
C1887  C1927   1.516   .     S
C1888  C1930   1.520   .     S
C1888  C1901   1.422   .     A
C1888  C1894   1.406   .     A
C1889  C1902   1.421   .     A
C1889  C1896   1.400   .     A
C1889  C1932   1.515   .     S
C1890  C1934   1.523   .     S
C1890  C1904   1.420   .     A
C1891  C1903   1.410   .     A
C1891  C1936   1.502   .     S
C1892  C1938   1.522   .     S
C1892  C1903   1.418   .     A
C1893  C1904   1.422   .     A
C1893  C1941   1.518   .     S
C1894  C1907   1.421   .     A
C1894  C1943   1.521   .     S
C1895  C1900   1.492   .     S
C1895  O2079   1.319   .     A
C1895  O2076   1.314   .     A
C1896  C1945   1.506   .     S
C1896  C1905   1.408   .     A
C1897  C1947   1.516   .     S
C1897  C1905   1.421   .     A
C1898  C1949   1.506   .     S
C1898  C1907   1.407   .     A
C1899  C1906   1.491   .     S
C1903  C1950   1.486   .     S
C1904  C1939   1.488   .     S
C1905  C1928   1.487   .     S
C1906  O2078   1.307   .     A
C1906  O2077   1.325   .     A
C1907  C1917   1.482   .     S
C1908  C1952   1.511   .     S
C1908  H1957   1.087   .     S
C1908  H1973   1.105   .     S
C1908  H1776   1.100   1_655 S
C1909  H2006   1.104   .     S
C1909  H1995   1.079   .     S
C1909  H1809   1.100   1_655 S
C1910  H2028   1.086   .     S
C1910  H2039   1.105   .     S
C1911  H1964   1.107   .     S
C1911  H1958   1.085   .     S
C1912  H1968   1.103   .     S
C1912  H1967   1.106   .     S
C1912  H1966   1.080   .     S
C1913  H1971   1.099   .     S
C1913  H1969   1.079   .     S
C1913  H1970   1.105   .     S
C1914  H1975   1.102   .     S
C1914  H1974   1.107   .     S
C1914  H1972   1.077   .     S
C1915  H1977   1.108   .     S
C1915  H1976   1.085   .     S
C1915  H1978   1.102   .     S
C1916  C1918   1.521   .     S
C1916  H1982   1.095   .     S
C1916  H1983   1.110   .     S
C1917  O2068   1.324   .     A
C1917  O2080   1.304   .     A
C1918  H1980   1.110   .     S
C1918  H1981   1.109   .     S
C1918  H1979   1.111   .     S
C1919  C1920   1.524   .     S
C1919  H1988   1.105   .     S
C1919  H1989   1.106   .     S
C1920  H1987   1.110   .     S
C1920  H1986   1.109   .     S
C1920  H1985   1.106   .     S
C1921  H1993   1.096   .     S
C1921  H1994   1.110   .     S
C1921  C1922   1.518   .     S
C1922  H1992   1.108   .     S
C1922  H1991   1.110   .     S
C1922  H1990   1.111   .     S
C1923  H2000   1.110   .     S
C1923  C1924   1.534   .     S
C1923  H1999   1.106   .     S
C1924  H1998   1.110   .     S
C1924  H1997   1.106   .     S
C1924  H1996   1.107   .     S
C1925  C1926   1.525   .     S
C1925  H2005   1.111   .     S
C1925  H2004   1.101   .     S
C1926  H2003   1.108   .     S
C1926  H2002   1.110   .     S
C1926  H2001   1.111   .     S
C1927  H2010   1.106   .     S
C1927  H2011   1.110   .     S
C1927  C1929   1.535   .     S
C1928  O2067   1.307   .     A
C1928  O2066   1.323   .     A
C1929  H2008   1.108   .     S
C1929  H2009   1.110   .     S
C1929  H2007   1.107   .     S
C1930  H2016   1.110   .     S
C1930  H2015   1.095   .     S
C1930  C1931   1.518   .     S
C1931  H2014   1.109   .     S
C1931  H2012   1.111   .     S
C1931  H2013   1.111   .     S
C1932  C1933   1.535   .     S
C1932  H2022   1.110   .     S
C1932  H2021   1.107   .     S
C1933  H2018   1.108   .     S
C1933  H2020   1.110   .     S
C1933  H2019   1.108   .     S
C1934  C1935   1.527   .     S
C1934  H2027   1.111   .     S
C1934  H2026   1.101   .     S
C1935  H2023   1.111   .     S
C1935  H2024   1.110   .     S
C1935  H2025   1.109   .     S
C1936  H2032   1.106   .     S
C1936  H2033   1.104   .     S
C1936  C1937   1.525   .     S
C1937  H2031   1.110   .     S
C1937  H2029   1.106   .     S
C1937  H2030   1.109   .     S
C1938  C1940   1.526   .     S
C1938  H2038   1.111   .     S
C1938  H2037   1.102   .     S
C1939  O2072   1.316   .     A
C1939  O2069   1.316   .     A
C1940  H2036   1.109   .     S
C1940  H2035   1.108   .     S
C1940  H2034   1.111   .     S
C1941  H2043   1.108   .     S
C1941  H2044   1.110   .     S
C1941  C1942   1.533   .     S
C1942  H2041   1.106   .     S
C1942  H2040   1.107   .     S
C1942  H2042   1.110   .     S
C1943  H2048   1.104   .     S
C1943  H2049   1.111   .     S
C1943  C1944   1.525   .     S
C1944  H2047   1.108   .     S
C1944  H2046   1.108   .     S
C1944  H2045   1.111   .     S
C1945  C1946   1.525   .     S
C1945  H2055   1.106   .     S
C1945  H2054   1.107   .     S
C1946  H2053   1.110   .     S
C1946  H2051   1.106   .     S
C1946  H2052   1.109   .     S
C1947  H2060   1.110   .     S
C1947  C1948   1.516   .     S
C1947  H2059   1.096   .     S
C1948  H2058   1.108   .     S
C1948  H2056   1.111   .     S
C1948  H2057   1.109   .     S
C1949  C1951   1.526   .     S
C1949  H1962   1.108   .     S
C1949  H1963   1.104   .     S
C1950  O2071   1.308   .     A
C1950  O2070   1.322   .     A
C1951  H1959   1.106   .     S
C1951  H1960   1.110   .     S
C1951  H1961   1.110   .     S
C1952  N1854   1.383   1_655 A
C1952  C836    1.436   1_655 S
Cu1953 N2061   2.053   .     S
Cu1953 O2077   2.006   .     S
Cu1953 O2065   2.001   .     S
Cu1953 Cu1954  2.732   .     S
Cu1954 N2062   2.053   .     S
Cu1954 O2075   2.004   .     S
Cu1954 O2078   2.005   .     S
Cu1955 O2067   2.004   .     S
Cu1955 O2070   2.006   .     S
Cu1955 Cu1956  2.732   .     S
Cu1955 N2063   2.053   .     S
Cu1955 O2488   2.005   1_545 S
Cu1955 O2496   2.001   1_545 S
Cu1956 O2485   2.006   1_545 S
Cu1956 O2484   2.004   1_545 S
Cu1956 N2064   2.053   .     S
Cu1956 O2066   2.001   .     S
Cu1956 O2071   2.005   .     S
H1965  C1703   1.102   1_655 S
H2050  C1702   1.100   1_655 S
N2063  C2296   1.379   1_545 A
N2064  C2293   1.383   1_545 S
O2068  Cu2372  2.004   .     S
O2069  Cu2372  2.006   .     S
O2072  Cu2371  2.005   .     S
O2073  Cu1746  2.001   1_655 S
O2074  Cu1745  2.004   1_655 S
O2076  Cu1746  2.006   1_655 S
O2079  Cu1745  2.005   1_655 S
O2080  Cu2371  2.001   .     S
C2081  O2273   1.314   .     A
C2081  C2110   1.489   .     S
C2081  O2283   1.318   .     A
C2082  C2117   1.507   .     S
C2082  C627    1.433   1_556 S
C2082  N2477   1.383   .     S
C2083  C2118   1.514   .     S
C2083  C1458   1.433   1_455 S
C2083  N2270   1.379   .     S
C2084  C2119   1.515   .     S
C2084  N2269   1.380   .     A
C2084  C704    1.436   1_456 S
C2085  C2120   1.507   .     S
C2085  N1856   1.383   1_565 S
C2086  C2121   1.506   .     S
C2086  C423    1.431   1_556 S
C2086  N2271   1.382   .     S
C2087  C2122   1.508   .     S
C2087  N2272   1.379   .     A
C2088  C2123   1.512   .     S
C2088  N1855   1.379   1_565 A
C2088  C421    1.435   1_556 S
C2089  C2100   1.407   .     A
C2089  C2124   1.520   .     S
C2089  C2108   1.426   .     A
C2090  C2107   1.409   .     A
C2090  C2101   1.401   .     A
C2090  C2127   1.505   .     S
C2091  C2098   1.407   .     A
C2091  C2129   1.517   .     S
C2091  C2107   1.423   .     A
C2092  C2109   1.492   .     S
C2092  O2281   1.318   .     A
C2092  O2282   1.316   .     A
C2093  C2131   1.520   .     S
C2093  C2108   1.421   .     A
C2093  C2099   1.400   .     A
C2094  C2110   1.421   .     A
C2094  C2105   1.406   .     A
C2094  C2133   1.523   .     S
C2095  C2109   1.422   .     A
C2095  C2106   1.399   .     A
C2095  C2135   1.516   .     S
C2096  C2138   1.520   .     S
C2096  C2109   1.422   .     A
C2096  C2102   1.406   .     A
C2097  C2110   1.421   .     A
C2097  C2104   1.400   .     A
C2097  C2140   1.515   .     S
C2098  C2142   1.523   .     S
C2098  C2112   1.420   .     A
C2099  C2111   1.410   .     A
C2099  C2144   1.502   .     S
C2100  C2146   1.522   .     S
C2100  C2111   1.418   .     A
C2101  C2112   1.422   .     A
C2101  C2149   1.518   .     S
C2102  C2115   1.421   .     A
C2102  C2151   1.521   .     S
C2103  C2108   1.492   .     S
C2103  O2287   1.319   .     A
C2103  O2284   1.314   .     A
C2104  C2153   1.506   .     S
C2104  C2113   1.408   .     A
C2105  C2155   1.516   .     S
C2105  C2113   1.421   .     A
C2106  C2157   1.506   .     S
C2106  C2115   1.407   .     A
C2107  C2114   1.491   .     S
C2111  C2158   1.486   .     S
C2112  C2147   1.488   .     S
C2113  C2136   1.487   .     S
C2114  O2286   1.307   .     A
C2114  O2285   1.325   .     A
C2115  C2125   1.482   .     S
C2116  C2160   1.511   .     S
C2116  H2165   1.087   .     S
C2116  H2181   1.105   .     S
C2116  H2400   1.100   .     S
C2117  H2214   1.104   .     S
C2117  H2203   1.079   .     S
C2117  H2433   1.100   .     S
C2118  H2236   1.086   .     S
C2118  H2247   1.105   .     S
C2118  H2466   1.100   1_455 S
C2119  H2172   1.107   .     S
C2119  H2166   1.085   .     S
C2119  H2381   1.102   1_455 S
C2120  H2176   1.103   .     S
C2120  H2175   1.106   .     S
C2120  H2174   1.080   .     S
C2121  H2179   1.099   .     S
C2121  H2177   1.079   .     S
C2121  H2178   1.105   .     S
C2122  H2183   1.102   .     S
C2122  H2182   1.107   .     S
C2122  H2180   1.077   .     S
C2123  H2185   1.108   .     S
C2123  H2184   1.085   .     S
C2123  H2186   1.102   .     S
C2124  C2126   1.521   .     S
C2124  H2190   1.095   .     S
C2124  H2191   1.110   .     S
C2125  O2276   1.324   .     A
C2125  O2288   1.304   .     A
C2126  H2188   1.110   .     S
C2126  H2189   1.109   .     S
C2126  H2187   1.111   .     S
C2127  C2128   1.524   .     S
C2127  H2196   1.105   .     S
C2127  H2197   1.106   .     S
C2128  H2195   1.110   .     S
C2128  H2194   1.109   .     S
C2128  H2193   1.106   .     S
C2129  H2201   1.096   .     S
C2129  H2202   1.110   .     S
C2129  C2130   1.518   .     S
C2130  H2200   1.108   .     S
C2130  H2199   1.110   .     S
C2130  H2198   1.111   .     S
C2131  H2208   1.110   .     S
C2131  C2132   1.534   .     S
C2131  H2207   1.106   .     S
C2132  H2206   1.110   .     S
C2132  H2205   1.106   .     S
C2132  H2204   1.107   .     S
C2133  C2134   1.525   .     S
C2133  H2213   1.111   .     S
C2133  H2212   1.101   .     S
C2134  H2211   1.108   .     S
C2134  H2210   1.110   .     S
C2134  H2209   1.111   .     S
C2135  H2218   1.106   .     S
C2135  H2219   1.110   .     S
C2135  C2137   1.535   .     S
C2136  O2275   1.307   .     A
C2136  O2274   1.323   .     A
C2137  H2216   1.108   .     S
C2137  H2217   1.110   .     S
C2137  H2215   1.107   .     S
C2138  H2224   1.110   .     S
C2138  H2223   1.095   .     S
C2138  C2139   1.518   .     S
C2139  H2222   1.109   .     S
C2139  H2220   1.111   .     S
C2139  H2221   1.111   .     S
C2140  C2141   1.535   .     S
C2140  H2230   1.110   .     S
C2140  H2229   1.107   .     S
C2141  H2226   1.108   .     S
C2141  H2228   1.110   .     S
C2141  H2227   1.108   .     S
C2142  C2143   1.527   .     S
C2142  H2235   1.111   .     S
C2142  H2234   1.101   .     S
C2143  H2231   1.111   .     S
C2143  H2232   1.110   .     S
C2143  H2233   1.109   .     S
C2144  H2240   1.106   .     S
C2144  H2241   1.104   .     S
C2144  C2145   1.525   .     S
C2145  H2239   1.110   .     S
C2145  H2237   1.106   .     S
C2145  H2238   1.109   .     S
C2146  C2148   1.526   .     S
C2146  H2246   1.111   .     S
C2146  H2245   1.102   .     S
C2147  O2280   1.316   .     A
C2147  O2277   1.316   .     A
C2148  H2244   1.109   .     S
C2148  H2243   1.108   .     S
C2148  H2242   1.111   .     S
C2149  H2251   1.108   .     S
C2149  H2252   1.110   .     S
C2149  C2150   1.533   .     S
C2150  H2249   1.106   .     S
C2150  H2248   1.107   .     S
C2150  H2250   1.110   .     S
C2151  H2256   1.104   .     S
C2151  H2257   1.111   .     S
C2151  C2152   1.525   .     S
C2152  H2255   1.108   .     S
C2152  H2254   1.108   .     S
C2152  H2253   1.111   .     S
C2153  C2154   1.525   .     S
C2153  H2263   1.106   .     S
C2153  H2262   1.107   .     S
C2154  H2261   1.110   .     S
C2154  H2259   1.106   .     S
C2154  H2260   1.109   .     S
C2155  H2268   1.110   .     S
C2155  C2156   1.516   .     S
C2155  H2267   1.096   .     S
C2156  H2266   1.108   .     S
C2156  H2264   1.111   .     S
C2156  H2265   1.109   .     S
C2157  C2159   1.526   .     S
C2157  H2170   1.108   .     S
C2157  H2171   1.104   .     S
C2158  O2279   1.308   .     A
C2158  O2278   1.322   .     A
C2159  H2167   1.106   .     S
C2159  H2168   1.110   .     S
C2159  H2169   1.110   .     S
C2160  N2478   1.383   .     A
Cu2161 N2269   2.053   .     S
Cu2161 O2285   2.006   .     S
Cu2161 O2273   2.001   .     S
Cu2161 Cu2162  2.732   .     S
Cu2161 O2490   2.004   1_455 S
Cu2161 O2495   2.005   1_455 S
Cu2162 N2270   2.053   .     S
Cu2162 O2489   2.001   1_455 S
Cu2162 O2492   2.006   1_455 S
Cu2162 O2283   2.004   .     S
Cu2162 O2286   2.005   .     S
Cu2163 O2275   2.004   .     S
Cu2163 O2278   2.006   .     S
Cu2163 Cu2164  2.732   .     S
Cu2163 N2271   2.053   .     S
Cu2164 N2272   2.053   .     S
Cu2164 O2274   2.001   .     S
Cu2164 O2279   2.005   .     S
H2173  C2327   1.102   .     S
H2192  C2324   1.100   1_455 S
H2225  C2325   1.100   1_455 S
H2258  C2326   1.100   .     S
N2269  C2290   1.383   1_455 S
N2270  C2368   1.383   1_455 A
O2276  Cu1748  2.004   1_565 S
O2277  Cu1748  2.006   1_565 S
O2280  Cu1747  2.005   1_565 S
O2281  Cu2370  2.001   .     S
O2282  Cu2369  2.004   .     S
O2284  Cu2370  2.006   .     S
O2287  Cu2369  2.005   .     S
O2288  Cu1747  2.001   1_565 S
C2289  O2481   1.314   .     A
C2289  C2318   1.489   .     S
C2289  O2491   1.318   .     A
C2290  C2325   1.507   .     S
C2290  C419    1.433   1_656 S
C2290  N2269   1.383   1_655 S
C2291  C2326   1.514   .     S
C2291  N2478   1.379   .     S
C2292  C2327   1.515   .     S
C2292  N2477   1.380   .     A
C2292  C496    1.436   1_556 S
C2293  C2328   1.507   .     S
C2293  N2064   1.383   1_565 S
C2294  C2329   1.506   .     S
C2294  C631    1.431   1_556 S
C2294  N2479   1.382   .     S
C2295  C2330   1.508   .     S
C2295  N2480   1.379   .     A
C2296  C2331   1.512   .     S
C2296  N2063   1.379   1_565 A
C2296  C629    1.435   1_556 S
C2297  C2308   1.407   .     A
C2297  C2332   1.520   .     S
C2297  C2316   1.426   .     A
C2298  C2315   1.409   .     A
C2298  C2309   1.401   .     A
C2298  C2335   1.505   .     S
C2299  C2306   1.407   .     A
C2299  C2337   1.517   .     S
C2299  C2315   1.423   .     A
C2300  C2317   1.492   .     S
C2300  O2489   1.318   .     A
C2300  O2490   1.316   .     A
C2301  C2339   1.520   .     S
C2301  C2316   1.421   .     A
C2301  C2307   1.400   .     A
C2302  C2318   1.421   .     A
C2302  C2313   1.406   .     A
C2302  C2341   1.523   .     S
C2303  C2317   1.422   .     A
C2303  C2314   1.399   .     A
C2303  C2343   1.516   .     S
C2304  C2346   1.520   .     S
C2304  C2317   1.422   .     A
C2304  C2310   1.406   .     A
C2305  C2318   1.421   .     A
C2305  C2312   1.400   .     A
C2305  C2348   1.515   .     S
C2306  C2350   1.523   .     S
C2306  C2320   1.420   .     A
C2307  C2319   1.410   .     A
C2307  C2352   1.502   .     S
C2308  C2354   1.522   .     S
C2308  C2319   1.418   .     A
C2309  C2320   1.422   .     A
C2309  C2357   1.518   .     S
C2310  C2323   1.421   .     A
C2310  C2359   1.521   .     S
C2311  C2316   1.492   .     S
C2311  O2495   1.319   .     A
C2311  O2492   1.314   .     A
C2312  C2361   1.506   .     S
C2312  C2321   1.408   .     A
C2313  C2363   1.516   .     S
C2313  C2321   1.421   .     A
C2314  C2365   1.506   .     S
C2314  C2323   1.407   .     A
C2315  C2322   1.491   .     S
C2319  C2366   1.486   .     S
C2320  C2355   1.488   .     S
C2321  C2344   1.487   .     S
C2322  O2494   1.307   .     A
C2322  O2493   1.325   .     A
C2323  C2333   1.482   .     S
C2324  C2368   1.511   .     S
C2324  H2373   1.087   .     S
C2324  H2389   1.105   .     S
C2324  H2192   1.100   1_655 S
C2325  H2422   1.104   .     S
C2325  H2411   1.079   .     S
C2325  H2225   1.100   1_655 S
C2326  H2444   1.086   .     S
C2326  H2455   1.105   .     S
C2327  H2380   1.107   .     S
C2327  H2374   1.085   .     S
C2328  H2384   1.103   .     S
C2328  H2383   1.106   .     S
C2328  H2382   1.080   .     S
C2329  H2387   1.099   .     S
C2329  H2385   1.079   .     S
C2329  H2386   1.105   .     S
C2330  H2391   1.102   .     S
C2330  H2390   1.107   .     S
C2330  H2388   1.077   .     S
C2331  H2393   1.108   .     S
C2331  H2392   1.085   .     S
C2331  H2394   1.102   .     S
C2332  C2334   1.521   .     S
C2332  H2398   1.095   .     S
C2332  H2399   1.110   .     S
C2333  O2484   1.324   .     A
C2333  O2496   1.304   .     A
C2334  H2396   1.110   .     S
C2334  H2397   1.109   .     S
C2334  H2395   1.111   .     S
C2335  C2336   1.524   .     S
C2335  H2404   1.105   .     S
C2335  H2405   1.106   .     S
C2336  H2403   1.110   .     S
C2336  H2402   1.109   .     S
C2336  H2401   1.106   .     S
C2337  H2409   1.096   .     S
C2337  H2410   1.110   .     S
C2337  C2338   1.518   .     S
C2338  H2408   1.108   .     S
C2338  H2407   1.110   .     S
C2338  H2406   1.111   .     S
C2339  H2416   1.110   .     S
C2339  C2340   1.534   .     S
C2339  H2415   1.106   .     S
C2340  H2414   1.110   .     S
C2340  H2413   1.106   .     S
C2340  H2412   1.107   .     S
C2341  C2342   1.525   .     S
C2341  H2421   1.111   .     S
C2341  H2420   1.101   .     S
C2342  H2419   1.108   .     S
C2342  H2418   1.110   .     S
C2342  H2417   1.111   .     S
C2343  H2426   1.106   .     S
C2343  H2427   1.110   .     S
C2343  C2345   1.535   .     S
C2344  O2483   1.307   .     A
C2344  O2482   1.323   .     A
C2345  H2424   1.108   .     S
C2345  H2425   1.110   .     S
C2345  H2423   1.107   .     S
C2346  H2432   1.110   .     S
C2346  H2431   1.095   .     S
C2346  C2347   1.518   .     S
C2347  H2430   1.109   .     S
C2347  H2428   1.111   .     S
C2347  H2429   1.111   .     S
C2348  C2349   1.535   .     S
C2348  H2438   1.110   .     S
C2348  H2437   1.107   .     S
C2349  H2434   1.108   .     S
C2349  H2436   1.110   .     S
C2349  H2435   1.108   .     S
C2350  C2351   1.527   .     S
C2350  H2443   1.111   .     S
C2350  H2442   1.101   .     S
C2351  H2439   1.111   .     S
C2351  H2440   1.110   .     S
C2351  H2441   1.109   .     S
C2352  H2448   1.106   .     S
C2352  H2449   1.104   .     S
C2352  C2353   1.525   .     S
C2353  H2447   1.110   .     S
C2353  H2445   1.106   .     S
C2353  H2446   1.109   .     S
C2354  C2356   1.526   .     S
C2354  H2454   1.111   .     S
C2354  H2453   1.102   .     S
C2355  O2488   1.316   .     A
C2355  O2485   1.316   .     A
C2356  H2452   1.109   .     S
C2356  H2451   1.108   .     S
C2356  H2450   1.111   .     S
C2357  H2459   1.108   .     S
C2357  H2460   1.110   .     S
C2357  C2358   1.533   .     S
C2358  H2457   1.106   .     S
C2358  H2456   1.107   .     S
C2358  H2458   1.110   .     S
C2359  H2464   1.104   .     S
C2359  H2465   1.111   .     S
C2359  C2360   1.525   .     S
C2360  H2463   1.108   .     S
C2360  H2462   1.108   .     S
C2360  H2461   1.111   .     S
C2361  C2362   1.525   .     S
C2361  H2471   1.106   .     S
C2361  H2470   1.107   .     S
C2362  H2469   1.110   .     S
C2362  H2467   1.106   .     S
C2362  H2468   1.109   .     S
C2363  H2476   1.110   .     S
C2363  C2364   1.516   .     S
C2363  H2475   1.096   .     S
C2364  H2474   1.108   .     S
C2364  H2472   1.111   .     S
C2364  H2473   1.109   .     S
C2365  C2367   1.526   .     S
C2365  H2378   1.108   .     S
C2365  H2379   1.104   .     S
C2366  O2487   1.308   .     A
C2366  O2486   1.322   .     A
C2367  H2375   1.106   .     S
C2367  H2376   1.110   .     S
C2367  H2377   1.110   .     S
C2368  N2270   1.383   1_655 A
C2368  C1252   1.436   1_655 S
Cu2369 N2477   2.053   .     S
Cu2369 O2493   2.006   .     S
Cu2369 O2481   2.001   .     S
Cu2369 Cu2370  2.732   .     S
Cu2370 N2478   2.053   .     S
Cu2370 O2491   2.004   .     S
Cu2370 O2494   2.005   .     S
Cu2371 O2483   2.004   .     S
Cu2371 O2486   2.006   .     S
Cu2371 Cu2372  2.732   .     S
Cu2371 N2479   2.053   .     S
Cu2372 N2480   2.053   .     S
Cu2372 O2482   2.001   .     S
Cu2372 O2487   2.005   .     S
H2381  C2119   1.102   1_655 S
H2466  C2118   1.100   1_655 S
O2484  Cu1956  2.004   1_565 S
O2485  Cu1956  2.006   1_565 S
O2488  Cu1955  2.005   1_565 S
O2489  Cu2162  2.001   1_655 S
O2490  Cu2161  2.004   1_655 S
O2492  Cu2162  2.006   1_655 S
O2495  Cu2161  2.005   1_655 S
O2496  Cu1955  2.001   1_565 S
