data_str_m3_o1_o10_pcu_sym.115
_audit_creation_date              2020-01-03
_audit_creation_method            'Materials Studio'
_symmetry_space_group_name_H-M    'P1'
_symmetry_Int_Tables_number       1
_symmetry_cell_setting            triclinic
loop_
_symmetry_equiv_pos_as_xyz
  x,y,z
_cell_length_a                    25.9578
_cell_length_b                    32.4328
_cell_length_c                    29.7192
_cell_angle_alpha                 88.7074
_cell_angle_beta                  97.5573
_cell_angle_gamma                 92.8702
loop_
_atom_site_label
_atom_site_type_symbol
_atom_site_fract_x
_atom_site_fract_y
_atom_site_fract_z
_atom_site_U_iso_or_equiv
_atom_site_adp_type
_atom_site_occupancy
C1     C     0.17080   0.08682   0.16757   0.00000  Uiso   1.00
C2     C     0.16687   0.24673   0.16609   0.00000  Uiso   1.00
C3     C     0.06727   0.16239   0.15533   0.00000  Uiso   1.00
C4     C     0.26562   0.16294   0.17842   0.00000  Uiso   1.00
C5     C     0.01253   0.15237   0.14979   0.00000  Uiso   1.00
C6     C     0.31927   0.15271   0.18571   0.00000  Uiso   1.00
C7     C     0.18989   0.02328   0.12985   0.00000  Uiso   1.00
C8     C     0.15673   0.31108   0.20328   0.00000  Uiso   1.00
C9     C     0.19023   0.31380   0.12981   0.00000  Uiso   1.00
C10    C     0.17290   0.01931   0.20867   0.00000  Uiso   1.00
C11    C     0.17022   0.29123   0.16540   0.00000  Uiso   1.00
C12    C     0.17816   0.04270   0.16893   0.00000  Uiso   1.00
C13    C     0.20513   0.18854   0.02855   0.00000  Uiso   1.00
C14    C     0.13005   0.14416   0.30523   0.00000  Uiso   1.00
C15    C     0.20401   0.18941   0.31306   0.00000  Uiso   1.00
C16    C     0.12805   0.14583   0.01938   0.00000  Uiso   1.00
N17    N     0.16665   0.16666   0.28573   0.00000  Uiso   1.00
N18    N     0.16668   0.16668   0.04760   0.00000  Uiso   1.00
O19    O     0.16666   0.10558   0.20487   0.00000  Uiso   1.00
O20    O     0.16667   0.22775   0.12846   0.00000  Uiso   1.00
O21    O     0.16666   0.10559   0.12843   0.00000  Uiso   1.00
O22    O     0.16667   0.22774   0.20490   0.00000  Uiso   1.00
O23    O     0.09058   0.16666   0.19595   0.00000  Uiso   1.00
O24    O     0.24275   0.16667   0.13739   0.00000  Uiso   1.00
O25    O     0.09058   0.16667   0.11950   0.00000  Uiso   1.00
O26    O     0.24275   0.16666   0.21383   0.00000  Uiso   1.00
Zn27   Zn    0.16667   0.16666   0.21771   0.00000  Uiso   1.00
Zn28   Zn    0.16667   0.16667   0.11563   0.00000  Uiso   1.00
O29    O     0.32209   0.14227   0.10673   0.00000  Uiso   1.00
C30    C     0.31182   0.09918   0.10563   0.00000  Uiso   1.00
H31    H     0.01469   0.08211   0.11404   0.00000  Uiso   1.00
H32    H     0.29414   0.09069   0.07085   0.00000  Uiso   1.00
H33    H     0.28421   0.08931   0.12975   0.00000  Uiso   1.00
O34    O     0.00909   0.14299   0.22936   0.00000  Uiso   1.00
C35    C     0.31385   0.10956   0.24778   0.00000  Uiso   1.00
H36    H     0.00634   0.09091   0.27147   0.00000  Uiso   1.00
H37    H     0.29443   0.08780   0.22156   0.00000  Uiso   1.00
H38    H     0.28548   0.12120   0.26869   0.00000  Uiso   1.00
O39    O     0.21011   0.04652   0.09595   0.00000  Uiso   1.00
C40    C     0.17726   0.04353   0.05427   0.00000  Uiso   1.00
H41    H     0.17601   0.07466   0.03851   0.00000  Uiso   1.00
H42    H     0.13658   0.03211   0.05727   0.00000  Uiso   1.00
H43    H     0.19456   0.02379   0.03085   0.00000  Uiso   1.00
O44    O     0.11482   0.29329   0.22308   0.00000  Uiso   1.00
C45    C     0.11957   0.29807   0.27040   0.00000  Uiso   1.00
H46    H     0.15425   0.28312   0.28775   0.00000  Uiso   1.00
H47    H     0.08529   0.28210   0.28291   0.00000  Uiso   1.00
H48    H     0.11925   0.33072   0.27985   0.00000  Uiso   1.00
C49    C     0.21123   0.29403   0.09235   0.00000  Uiso   1.00
H50    H     0.25284   0.29094   0.09387   0.00000  Uiso   1.00
O51    O     0.18196   0.28238   0.05900   0.00000  Uiso   1.00
C52    C     0.20633   0.03199   0.25117   0.00000  Uiso   1.00
H53    H     0.21955   0.06379   0.25658   0.00000  Uiso   1.00
O54    O     0.22242   0.00663   0.27990   0.00000  Uiso   1.00
O55    O     0.23903   0.21357   0.05759   0.00000  Uiso   1.00
C56    C     0.29148   0.21338   0.04979   0.00000  Uiso   1.00
H57    H     0.30131   0.24080   0.02904   0.00000  Uiso   1.00
H58    H     0.30150   0.18437   0.03431   0.00000  Uiso   1.00
H59    H     0.31647   0.21720   0.08279   0.00000  Uiso   1.00
O60    O     0.09464   0.12018   0.27758   0.00000  Uiso   1.00
C61    C     0.10568   0.07827   0.28455   0.00000  Uiso   1.00
H62    H     0.08371   0.06417   0.31106   0.00000  Uiso   1.00
H63    H     0.14763   0.07332   0.29411   0.00000  Uiso   1.00
H64    H     0.09252   0.06192   0.25240   0.00000  Uiso   1.00
C65    C     0.24269   0.21453   0.29124   0.00000  Uiso   1.00
H66    H     0.27820   0.20100   0.28450   0.00000  Uiso   1.00
O67    O     0.23668   0.25102   0.28272   0.00000  Uiso   1.00
C68    C     0.08216   0.12599   0.03660   0.00000  Uiso   1.00
H69    H     0.04355   0.13245   0.02000   0.00000  Uiso   1.00
O70    O     0.08673   0.09995   0.06675   0.00000  Uiso   1.00
C71    C     0.50413   0.08682   0.16757   0.00000  Uiso   1.00
C72    C     0.50020   0.24673   0.16609   0.00000  Uiso   1.00
C73    C     0.40060   0.16239   0.15533   0.00000  Uiso   1.00
C74    C     0.59895   0.16294   0.17842   0.00000  Uiso   1.00
C75    C     0.34586   0.15237   0.14979   0.00000  Uiso   1.00
C76    C     0.65260   0.15271   0.18571   0.00000  Uiso   1.00
C77    C     0.52322   0.02328   0.12985   0.00000  Uiso   1.00
C78    C     0.49006   0.31108   0.20328   0.00000  Uiso   1.00
C79    C     0.52356   0.31380   0.12981   0.00000  Uiso   1.00
C80    C     0.50624   0.01931   0.20867   0.00000  Uiso   1.00
C81    C     0.50355   0.29123   0.16540   0.00000  Uiso   1.00
C82    C     0.51149   0.04270   0.16893   0.00000  Uiso   1.00
C83    C     0.53846   0.18854   0.02855   0.00000  Uiso   1.00
C84    C     0.46338   0.14416   0.30523   0.00000  Uiso   1.00
C85    C     0.53734   0.18941   0.31306   0.00000  Uiso   1.00
C86    C     0.46139   0.14583   0.01938   0.00000  Uiso   1.00
N87    N     0.49999   0.16666   0.28573   0.00000  Uiso   1.00
N88    N     0.50001   0.16668   0.04760   0.00000  Uiso   1.00
O89    O     0.50000   0.10558   0.20487   0.00000  Uiso   1.00
O90    O     0.50000   0.22775   0.12846   0.00000  Uiso   1.00
O91    O     0.50000   0.10559   0.12843   0.00000  Uiso   1.00
O92    O     0.50000   0.22774   0.20490   0.00000  Uiso   1.00
O93    O     0.42392   0.16666   0.19595   0.00000  Uiso   1.00
O94    O     0.57608   0.16667   0.13739   0.00000  Uiso   1.00
O95    O     0.42392   0.16667   0.11950   0.00000  Uiso   1.00
O96    O     0.57608   0.16666   0.21383   0.00000  Uiso   1.00
Zn97   Zn    0.50000   0.16666   0.21771   0.00000  Uiso   1.00
Zn98   Zn    0.50000   0.16667   0.11563   0.00000  Uiso   1.00
O99    O     0.65543   0.14227   0.10673   0.00000  Uiso   1.00
C100   C     0.64515   0.09918   0.10563   0.00000  Uiso   1.00
H101   H     0.34802   0.08211   0.11404   0.00000  Uiso   1.00
H102   H     0.62747   0.09069   0.07085   0.00000  Uiso   1.00
H103   H     0.61754   0.08931   0.12975   0.00000  Uiso   1.00
O104   O     0.34242   0.14299   0.22936   0.00000  Uiso   1.00
C105   C     0.64718   0.10956   0.24778   0.00000  Uiso   1.00
H106   H     0.33968   0.09091   0.27147   0.00000  Uiso   1.00
H107   H     0.62776   0.08780   0.22156   0.00000  Uiso   1.00
H108   H     0.61881   0.12120   0.26869   0.00000  Uiso   1.00
O109   O     0.54344   0.04652   0.09595   0.00000  Uiso   1.00
C110   C     0.51059   0.04353   0.05427   0.00000  Uiso   1.00
H111   H     0.50934   0.07466   0.03851   0.00000  Uiso   1.00
H112   H     0.46991   0.03211   0.05727   0.00000  Uiso   1.00
H113   H     0.52789   0.02379   0.03085   0.00000  Uiso   1.00
O114   O     0.44816   0.29329   0.22308   0.00000  Uiso   1.00
C115   C     0.45290   0.29807   0.27040   0.00000  Uiso   1.00
H116   H     0.48759   0.28312   0.28775   0.00000  Uiso   1.00
H117   H     0.41862   0.28210   0.28291   0.00000  Uiso   1.00
H118   H     0.45259   0.33072   0.27985   0.00000  Uiso   1.00
C119   C     0.54456   0.29403   0.09235   0.00000  Uiso   1.00
H120   H     0.58618   0.29094   0.09387   0.00000  Uiso   1.00
O121   O     0.51530   0.28238   0.05900   0.00000  Uiso   1.00
C122   C     0.53966   0.03199   0.25117   0.00000  Uiso   1.00
H123   H     0.55288   0.06379   0.25658   0.00000  Uiso   1.00
O124   O     0.55575   0.00663   0.27990   0.00000  Uiso   1.00
O125   O     0.57237   0.21357   0.05759   0.00000  Uiso   1.00
C126   C     0.62481   0.21338   0.04979   0.00000  Uiso   1.00
H127   H     0.63465   0.24080   0.02904   0.00000  Uiso   1.00
H128   H     0.63483   0.18437   0.03431   0.00000  Uiso   1.00
H129   H     0.64980   0.21720   0.08279   0.00000  Uiso   1.00
O130   O     0.42798   0.12018   0.27758   0.00000  Uiso   1.00
C131   C     0.43901   0.07827   0.28455   0.00000  Uiso   1.00
H132   H     0.41705   0.06417   0.31106   0.00000  Uiso   1.00
H133   H     0.48096   0.07332   0.29411   0.00000  Uiso   1.00
H134   H     0.42585   0.06192   0.25240   0.00000  Uiso   1.00
C135   C     0.57603   0.21453   0.29124   0.00000  Uiso   1.00
H136   H     0.61153   0.20100   0.28450   0.00000  Uiso   1.00
O137   O     0.57001   0.25102   0.28272   0.00000  Uiso   1.00
C138   C     0.41550   0.12599   0.03660   0.00000  Uiso   1.00
H139   H     0.37689   0.13245   0.02000   0.00000  Uiso   1.00
O140   O     0.42006   0.09995   0.06675   0.00000  Uiso   1.00
C141   C     0.83746   0.08682   0.16757   0.00000  Uiso   1.00
C142   C     0.83353   0.24673   0.16609   0.00000  Uiso   1.00
C143   C     0.73394   0.16239   0.15533   0.00000  Uiso   1.00
C144   C     0.93229   0.16294   0.17842   0.00000  Uiso   1.00
C145   C     0.67920   0.15237   0.14979   0.00000  Uiso   1.00
C146   C     0.98594   0.15271   0.18571   0.00000  Uiso   1.00
C147   C     0.85655   0.02328   0.12985   0.00000  Uiso   1.00
C148   C     0.82339   0.31108   0.20328   0.00000  Uiso   1.00
C149   C     0.85690   0.31380   0.12981   0.00000  Uiso   1.00
C150   C     0.83957   0.01931   0.20867   0.00000  Uiso   1.00
C151   C     0.83689   0.29123   0.16540   0.00000  Uiso   1.00
C152   C     0.84482   0.04270   0.16893   0.00000  Uiso   1.00
C153   C     0.87180   0.18854   0.02855   0.00000  Uiso   1.00
C154   C     0.79672   0.14416   0.30523   0.00000  Uiso   1.00
C155   C     0.87067   0.18941   0.31306   0.00000  Uiso   1.00
C156   C     0.79472   0.14583   0.01938   0.00000  Uiso   1.00
N157   N     0.83332   0.16666   0.28573   0.00000  Uiso   1.00
N158   N     0.83335   0.16668   0.04760   0.00000  Uiso   1.00
O159   O     0.83333   0.10558   0.20487   0.00000  Uiso   1.00
O160   O     0.83334   0.22775   0.12846   0.00000  Uiso   1.00
O161   O     0.83333   0.10559   0.12843   0.00000  Uiso   1.00
O162   O     0.83334   0.22774   0.20490   0.00000  Uiso   1.00
O163   O     0.75725   0.16666   0.19595   0.00000  Uiso   1.00
O164   O     0.90942   0.16667   0.13739   0.00000  Uiso   1.00
O165   O     0.75725   0.16667   0.11950   0.00000  Uiso   1.00
O166   O     0.90942   0.16666   0.21383   0.00000  Uiso   1.00
Zn167  Zn    0.83333   0.16666   0.21771   0.00000  Uiso   1.00
Zn168  Zn    0.83333   0.16667   0.11563   0.00000  Uiso   1.00
O169   O     0.98876   0.14227   0.10673   0.00000  Uiso   1.00
C170   C     0.97849   0.09918   0.10563   0.00000  Uiso   1.00
H171   H     0.68136   0.08211   0.11404   0.00000  Uiso   1.00
H172   H     0.96080   0.09069   0.07085   0.00000  Uiso   1.00
H173   H     0.95088   0.08931   0.12975   0.00000  Uiso   1.00
O174   O     0.67575   0.14299   0.22936   0.00000  Uiso   1.00
C175   C     0.98051   0.10956   0.24778   0.00000  Uiso   1.00
H176   H     0.67301   0.09091   0.27147   0.00000  Uiso   1.00
H177   H     0.96110   0.08780   0.22156   0.00000  Uiso   1.00
H178   H     0.95214   0.12120   0.26869   0.00000  Uiso   1.00
O179   O     0.87678   0.04652   0.09595   0.00000  Uiso   1.00
C180   C     0.84392   0.04353   0.05427   0.00000  Uiso   1.00
H181   H     0.84267   0.07466   0.03851   0.00000  Uiso   1.00
H182   H     0.80325   0.03211   0.05727   0.00000  Uiso   1.00
H183   H     0.86122   0.02379   0.03085   0.00000  Uiso   1.00
O184   O     0.78149   0.29329   0.22308   0.00000  Uiso   1.00
C185   C     0.78623   0.29807   0.27040   0.00000  Uiso   1.00
H186   H     0.82092   0.28312   0.28775   0.00000  Uiso   1.00
H187   H     0.75196   0.28210   0.28291   0.00000  Uiso   1.00
H188   H     0.78592   0.33072   0.27985   0.00000  Uiso   1.00
C189   C     0.87790   0.29403   0.09235   0.00000  Uiso   1.00
H190   H     0.91951   0.29094   0.09387   0.00000  Uiso   1.00
O191   O     0.84863   0.28238   0.05900   0.00000  Uiso   1.00
C192   C     0.87300   0.03199   0.25117   0.00000  Uiso   1.00
H193   H     0.88621   0.06379   0.25658   0.00000  Uiso   1.00
O194   O     0.88908   0.00663   0.27990   0.00000  Uiso   1.00
O195   O     0.90570   0.21357   0.05759   0.00000  Uiso   1.00
C196   C     0.95815   0.21338   0.04979   0.00000  Uiso   1.00
H197   H     0.96798   0.24080   0.02904   0.00000  Uiso   1.00
H198   H     0.96816   0.18437   0.03431   0.00000  Uiso   1.00
H199   H     0.98313   0.21720   0.08279   0.00000  Uiso   1.00
O200   O     0.76131   0.12018   0.27758   0.00000  Uiso   1.00
C201   C     0.77235   0.07827   0.28455   0.00000  Uiso   1.00
H202   H     0.75038   0.06417   0.31106   0.00000  Uiso   1.00
H203   H     0.81430   0.07332   0.29411   0.00000  Uiso   1.00
H204   H     0.75919   0.06192   0.25240   0.00000  Uiso   1.00
C205   C     0.90936   0.21453   0.29124   0.00000  Uiso   1.00
H206   H     0.94486   0.20100   0.28450   0.00000  Uiso   1.00
O207   O     0.90335   0.25102   0.28272   0.00000  Uiso   1.00
C208   C     0.74883   0.12599   0.03660   0.00000  Uiso   1.00
H209   H     0.71022   0.13245   0.02000   0.00000  Uiso   1.00
O210   O     0.75340   0.09995   0.06675   0.00000  Uiso   1.00
C211   C     0.17080   0.42016   0.16757   0.00000  Uiso   1.00
C212   C     0.16687   0.58007   0.16609   0.00000  Uiso   1.00
C213   C     0.06727   0.49572   0.15533   0.00000  Uiso   1.00
C214   C     0.26562   0.49628   0.17842   0.00000  Uiso   1.00
C215   C     0.01253   0.48570   0.14979   0.00000  Uiso   1.00
C216   C     0.31927   0.48604   0.18571   0.00000  Uiso   1.00
C217   C     0.18989   0.35662   0.12985   0.00000  Uiso   1.00
C218   C     0.15673   0.64441   0.20328   0.00000  Uiso   1.00
C219   C     0.19023   0.64713   0.12981   0.00000  Uiso   1.00
C220   C     0.17290   0.35265   0.20867   0.00000  Uiso   1.00
C221   C     0.17022   0.62456   0.16540   0.00000  Uiso   1.00
C222   C     0.17816   0.37603   0.16893   0.00000  Uiso   1.00
C223   C     0.20513   0.52188   0.02855   0.00000  Uiso   1.00
C224   C     0.13005   0.47749   0.30523   0.00000  Uiso   1.00
C225   C     0.20401   0.52274   0.31306   0.00000  Uiso   1.00
C226   C     0.12805   0.47916   0.01938   0.00000  Uiso   1.00
N227   N     0.16665   0.49999   0.28573   0.00000  Uiso   1.00
N228   N     0.16668   0.50001   0.04760   0.00000  Uiso   1.00
O229   O     0.16666   0.43892   0.20487   0.00000  Uiso   1.00
O230   O     0.16667   0.56108   0.12846   0.00000  Uiso   1.00
O231   O     0.16666   0.43893   0.12843   0.00000  Uiso   1.00
O232   O     0.16667   0.56107   0.20490   0.00000  Uiso   1.00
O233   O     0.09058   0.50000   0.19595   0.00000  Uiso   1.00
O234   O     0.24275   0.50000   0.13739   0.00000  Uiso   1.00
O235   O     0.09058   0.50000   0.11950   0.00000  Uiso   1.00
O236   O     0.24275   0.50000   0.21383   0.00000  Uiso   1.00
Zn237  Zn    0.16667   0.49999   0.21771   0.00000  Uiso   1.00
Zn238  Zn    0.16667   0.50001   0.11563   0.00000  Uiso   1.00
O239   O     0.32209   0.47560   0.10673   0.00000  Uiso   1.00
C240   C     0.31182   0.43251   0.10563   0.00000  Uiso   1.00
H241   H     0.01469   0.41544   0.11404   0.00000  Uiso   1.00
H242   H     0.29414   0.42402   0.07085   0.00000  Uiso   1.00
H243   H     0.28421   0.42264   0.12975   0.00000  Uiso   1.00
O244   O     0.00909   0.47633   0.22936   0.00000  Uiso   1.00
C245   C     0.31385   0.44289   0.24778   0.00000  Uiso   1.00
H246   H     0.00634   0.42424   0.27147   0.00000  Uiso   1.00
H247   H     0.29443   0.42113   0.22156   0.00000  Uiso   1.00
H248   H     0.28548   0.45453   0.26869   0.00000  Uiso   1.00
O249   O     0.21011   0.37986   0.09595   0.00000  Uiso   1.00
C250   C     0.17726   0.37687   0.05427   0.00000  Uiso   1.00
H251   H     0.17601   0.40799   0.03851   0.00000  Uiso   1.00
H252   H     0.13658   0.36544   0.05727   0.00000  Uiso   1.00
H253   H     0.19456   0.35713   0.03085   0.00000  Uiso   1.00
O254   O     0.11482   0.62663   0.22308   0.00000  Uiso   1.00
C255   C     0.11957   0.63140   0.27040   0.00000  Uiso   1.00
H256   H     0.15425   0.61646   0.28775   0.00000  Uiso   1.00
H257   H     0.08529   0.61543   0.28291   0.00000  Uiso   1.00
H258   H     0.11925   0.66406   0.27985   0.00000  Uiso   1.00
C259   C     0.21123   0.62736   0.09235   0.00000  Uiso   1.00
H260   H     0.25284   0.62427   0.09387   0.00000  Uiso   1.00
O261   O     0.18196   0.61571   0.05900   0.00000  Uiso   1.00
C262   C     0.20633   0.36532   0.25117   0.00000  Uiso   1.00
H263   H     0.21955   0.39713   0.25658   0.00000  Uiso   1.00
O264   O     0.22242   0.33996   0.27990   0.00000  Uiso   1.00
O265   O     0.23903   0.54690   0.05759   0.00000  Uiso   1.00
C266   C     0.29148   0.54672   0.04979   0.00000  Uiso   1.00
H267   H     0.30131   0.57413   0.02904   0.00000  Uiso   1.00
H268   H     0.30150   0.51770   0.03431   0.00000  Uiso   1.00
H269   H     0.31647   0.55054   0.08279   0.00000  Uiso   1.00
O270   O     0.09464   0.45351   0.27758   0.00000  Uiso   1.00
C271   C     0.10568   0.41161   0.28455   0.00000  Uiso   1.00
H272   H     0.08371   0.39750   0.31106   0.00000  Uiso   1.00
H273   H     0.14763   0.40665   0.29411   0.00000  Uiso   1.00
H274   H     0.09252   0.39525   0.25240   0.00000  Uiso   1.00
C275   C     0.24269   0.54787   0.29124   0.00000  Uiso   1.00
H276   H     0.27820   0.53434   0.28450   0.00000  Uiso   1.00
O277   O     0.23668   0.58435   0.28272   0.00000  Uiso   1.00
C278   C     0.08216   0.45933   0.03660   0.00000  Uiso   1.00
H279   H     0.04355   0.46578   0.02000   0.00000  Uiso   1.00
O280   O     0.08673   0.43328   0.06675   0.00000  Uiso   1.00
C281   C     0.50413   0.42016   0.16757   0.00000  Uiso   1.00
C282   C     0.50020   0.58007   0.16609   0.00000  Uiso   1.00
C283   C     0.40060   0.49572   0.15533   0.00000  Uiso   1.00
C284   C     0.59895   0.49628   0.17842   0.00000  Uiso   1.00
C285   C     0.34586   0.48570   0.14979   0.00000  Uiso   1.00
C286   C     0.65260   0.48604   0.18571   0.00000  Uiso   1.00
C287   C     0.52322   0.35662   0.12985   0.00000  Uiso   1.00
C288   C     0.49006   0.64441   0.20328   0.00000  Uiso   1.00
C289   C     0.52356   0.64713   0.12981   0.00000  Uiso   1.00
C290   C     0.50624   0.35265   0.20867   0.00000  Uiso   1.00
C291   C     0.50355   0.62456   0.16540   0.00000  Uiso   1.00
C292   C     0.51149   0.37603   0.16893   0.00000  Uiso   1.00
C293   C     0.53846   0.52188   0.02855   0.00000  Uiso   1.00
C294   C     0.46338   0.47749   0.30523   0.00000  Uiso   1.00
C295   C     0.53734   0.52274   0.31306   0.00000  Uiso   1.00
C296   C     0.46139   0.47916   0.01938   0.00000  Uiso   1.00
N297   N     0.49999   0.49999   0.28573   0.00000  Uiso   1.00
N298   N     0.50001   0.50001   0.04760   0.00000  Uiso   1.00
O299   O     0.50000   0.43892   0.20487   0.00000  Uiso   1.00
O300   O     0.50000   0.56108   0.12846   0.00000  Uiso   1.00
O301   O     0.50000   0.43893   0.12843   0.00000  Uiso   1.00
O302   O     0.50000   0.56107   0.20490   0.00000  Uiso   1.00
O303   O     0.42392   0.50000   0.19595   0.00000  Uiso   1.00
O304   O     0.57608   0.50000   0.13739   0.00000  Uiso   1.00
O305   O     0.42392   0.50000   0.11950   0.00000  Uiso   1.00
O306   O     0.57608   0.50000   0.21383   0.00000  Uiso   1.00
Zn307  Zn    0.50000   0.49999   0.21771   0.00000  Uiso   1.00
Zn308  Zn    0.50000   0.50001   0.11563   0.00000  Uiso   1.00
O309   O     0.65543   0.47560   0.10673   0.00000  Uiso   1.00
C310   C     0.64515   0.43251   0.10563   0.00000  Uiso   1.00
H311   H     0.34802   0.41544   0.11404   0.00000  Uiso   1.00
H312   H     0.62747   0.42402   0.07085   0.00000  Uiso   1.00
H313   H     0.61754   0.42264   0.12975   0.00000  Uiso   1.00
O314   O     0.34242   0.47633   0.22936   0.00000  Uiso   1.00
C315   C     0.64718   0.44289   0.24778   0.00000  Uiso   1.00
H316   H     0.33968   0.42424   0.27147   0.00000  Uiso   1.00
H317   H     0.62776   0.42113   0.22156   0.00000  Uiso   1.00
H318   H     0.61881   0.45453   0.26869   0.00000  Uiso   1.00
O319   O     0.54344   0.37986   0.09595   0.00000  Uiso   1.00
C320   C     0.51059   0.37687   0.05427   0.00000  Uiso   1.00
H321   H     0.50934   0.40799   0.03851   0.00000  Uiso   1.00
H322   H     0.46991   0.36544   0.05727   0.00000  Uiso   1.00
H323   H     0.52789   0.35713   0.03085   0.00000  Uiso   1.00
O324   O     0.44816   0.62663   0.22308   0.00000  Uiso   1.00
C325   C     0.45290   0.63140   0.27040   0.00000  Uiso   1.00
H326   H     0.48759   0.61646   0.28775   0.00000  Uiso   1.00
H327   H     0.41862   0.61543   0.28291   0.00000  Uiso   1.00
H328   H     0.45259   0.66406   0.27985   0.00000  Uiso   1.00
C329   C     0.54456   0.62736   0.09235   0.00000  Uiso   1.00
H330   H     0.58618   0.62427   0.09387   0.00000  Uiso   1.00
O331   O     0.51530   0.61571   0.05900   0.00000  Uiso   1.00
C332   C     0.53966   0.36532   0.25117   0.00000  Uiso   1.00
H333   H     0.55288   0.39713   0.25658   0.00000  Uiso   1.00
O334   O     0.55575   0.33996   0.27990   0.00000  Uiso   1.00
O335   O     0.57237   0.54690   0.05759   0.00000  Uiso   1.00
C336   C     0.62481   0.54672   0.04979   0.00000  Uiso   1.00
H337   H     0.63465   0.57413   0.02904   0.00000  Uiso   1.00
H338   H     0.63483   0.51770   0.03431   0.00000  Uiso   1.00
H339   H     0.64980   0.55054   0.08279   0.00000  Uiso   1.00
O340   O     0.42798   0.45351   0.27758   0.00000  Uiso   1.00
C341   C     0.43901   0.41161   0.28455   0.00000  Uiso   1.00
H342   H     0.41705   0.39750   0.31106   0.00000  Uiso   1.00
H343   H     0.48096   0.40665   0.29411   0.00000  Uiso   1.00
H344   H     0.42585   0.39525   0.25240   0.00000  Uiso   1.00
C345   C     0.57603   0.54787   0.29124   0.00000  Uiso   1.00
H346   H     0.61153   0.53434   0.28450   0.00000  Uiso   1.00
O347   O     0.57001   0.58435   0.28272   0.00000  Uiso   1.00
C348   C     0.41550   0.45933   0.03660   0.00000  Uiso   1.00
H349   H     0.37689   0.46578   0.02000   0.00000  Uiso   1.00
O350   O     0.42006   0.43328   0.06675   0.00000  Uiso   1.00
C351   C     0.83746   0.42016   0.16757   0.00000  Uiso   1.00
C352   C     0.83353   0.58007   0.16609   0.00000  Uiso   1.00
C353   C     0.73394   0.49572   0.15533   0.00000  Uiso   1.00
C354   C     0.93229   0.49628   0.17842   0.00000  Uiso   1.00
C355   C     0.67920   0.48570   0.14979   0.00000  Uiso   1.00
C356   C     0.98594   0.48604   0.18571   0.00000  Uiso   1.00
C357   C     0.85655   0.35662   0.12985   0.00000  Uiso   1.00
C358   C     0.82339   0.64441   0.20328   0.00000  Uiso   1.00
C359   C     0.85690   0.64713   0.12981   0.00000  Uiso   1.00
C360   C     0.83957   0.35265   0.20867   0.00000  Uiso   1.00
C361   C     0.83689   0.62456   0.16540   0.00000  Uiso   1.00
C362   C     0.84482   0.37603   0.16893   0.00000  Uiso   1.00
C363   C     0.87180   0.52188   0.02855   0.00000  Uiso   1.00
C364   C     0.79672   0.47749   0.30523   0.00000  Uiso   1.00
C365   C     0.87067   0.52274   0.31306   0.00000  Uiso   1.00
C366   C     0.79472   0.47916   0.01938   0.00000  Uiso   1.00
N367   N     0.83332   0.49999   0.28573   0.00000  Uiso   1.00
N368   N     0.83335   0.50001   0.04760   0.00000  Uiso   1.00
O369   O     0.83333   0.43892   0.20487   0.00000  Uiso   1.00
O370   O     0.83334   0.56108   0.12846   0.00000  Uiso   1.00
O371   O     0.83333   0.43893   0.12843   0.00000  Uiso   1.00
O372   O     0.83334   0.56107   0.20490   0.00000  Uiso   1.00
O373   O     0.75725   0.50000   0.19595   0.00000  Uiso   1.00
O374   O     0.90942   0.50000   0.13739   0.00000  Uiso   1.00
O375   O     0.75725   0.50000   0.11950   0.00000  Uiso   1.00
O376   O     0.90942   0.50000   0.21383   0.00000  Uiso   1.00
Zn377  Zn    0.83333   0.49999   0.21771   0.00000  Uiso   1.00
Zn378  Zn    0.83333   0.50001   0.11563   0.00000  Uiso   1.00
O379   O     0.98876   0.47560   0.10673   0.00000  Uiso   1.00
C380   C     0.97849   0.43251   0.10563   0.00000  Uiso   1.00
H381   H     0.68136   0.41544   0.11404   0.00000  Uiso   1.00
H382   H     0.96080   0.42402   0.07085   0.00000  Uiso   1.00
H383   H     0.95088   0.42264   0.12975   0.00000  Uiso   1.00
O384   O     0.67575   0.47633   0.22936   0.00000  Uiso   1.00
C385   C     0.98051   0.44289   0.24778   0.00000  Uiso   1.00
H386   H     0.67301   0.42424   0.27147   0.00000  Uiso   1.00
H387   H     0.96110   0.42113   0.22156   0.00000  Uiso   1.00
H388   H     0.95214   0.45453   0.26869   0.00000  Uiso   1.00
O389   O     0.87678   0.37986   0.09595   0.00000  Uiso   1.00
C390   C     0.84392   0.37687   0.05427   0.00000  Uiso   1.00
H391   H     0.84267   0.40799   0.03851   0.00000  Uiso   1.00
H392   H     0.80325   0.36544   0.05727   0.00000  Uiso   1.00
H393   H     0.86122   0.35713   0.03085   0.00000  Uiso   1.00
O394   O     0.78149   0.62663   0.22308   0.00000  Uiso   1.00
C395   C     0.78623   0.63140   0.27040   0.00000  Uiso   1.00
H396   H     0.82092   0.61646   0.28775   0.00000  Uiso   1.00
H397   H     0.75196   0.61543   0.28291   0.00000  Uiso   1.00
H398   H     0.78592   0.66406   0.27985   0.00000  Uiso   1.00
C399   C     0.87790   0.62736   0.09235   0.00000  Uiso   1.00
H400   H     0.91951   0.62427   0.09387   0.00000  Uiso   1.00
O401   O     0.84863   0.61571   0.05900   0.00000  Uiso   1.00
C402   C     0.87300   0.36532   0.25117   0.00000  Uiso   1.00
H403   H     0.88621   0.39713   0.25658   0.00000  Uiso   1.00
O404   O     0.88908   0.33996   0.27990   0.00000  Uiso   1.00
O405   O     0.90570   0.54690   0.05759   0.00000  Uiso   1.00
C406   C     0.95815   0.54672   0.04979   0.00000  Uiso   1.00
H407   H     0.96798   0.57413   0.02904   0.00000  Uiso   1.00
H408   H     0.96816   0.51770   0.03431   0.00000  Uiso   1.00
H409   H     0.98313   0.55054   0.08279   0.00000  Uiso   1.00
O410   O     0.76131   0.45351   0.27758   0.00000  Uiso   1.00
C411   C     0.77235   0.41161   0.28455   0.00000  Uiso   1.00
H412   H     0.75038   0.39750   0.31106   0.00000  Uiso   1.00
H413   H     0.81430   0.40665   0.29411   0.00000  Uiso   1.00
H414   H     0.75919   0.39525   0.25240   0.00000  Uiso   1.00
C415   C     0.90936   0.54787   0.29124   0.00000  Uiso   1.00
H416   H     0.94486   0.53434   0.28450   0.00000  Uiso   1.00
O417   O     0.90335   0.58435   0.28272   0.00000  Uiso   1.00
C418   C     0.74883   0.45933   0.03660   0.00000  Uiso   1.00
H419   H     0.71022   0.46578   0.02000   0.00000  Uiso   1.00
O420   O     0.75340   0.43328   0.06675   0.00000  Uiso   1.00
C421   C     0.17080   0.75349   0.16757   0.00000  Uiso   1.00
C422   C     0.16687   0.91340   0.16609   0.00000  Uiso   1.00
C423   C     0.06727   0.82906   0.15533   0.00000  Uiso   1.00
C424   C     0.26562   0.82961   0.17842   0.00000  Uiso   1.00
C425   C     0.01253   0.81904   0.14979   0.00000  Uiso   1.00
C426   C     0.31927   0.81937   0.18571   0.00000  Uiso   1.00
C427   C     0.18989   0.68995   0.12985   0.00000  Uiso   1.00
C428   C     0.15673   0.97774   0.20328   0.00000  Uiso   1.00
C429   C     0.19023   0.98046   0.12981   0.00000  Uiso   1.00
C430   C     0.17290   0.68598   0.20867   0.00000  Uiso   1.00
C431   C     0.17022   0.95790   0.16540   0.00000  Uiso   1.00
C432   C     0.17816   0.70936   0.16893   0.00000  Uiso   1.00
C433   C     0.20513   0.85521   0.02855   0.00000  Uiso   1.00
C434   C     0.13005   0.81082   0.30523   0.00000  Uiso   1.00
C435   C     0.20401   0.85607   0.31306   0.00000  Uiso   1.00
C436   C     0.12805   0.81249   0.01938   0.00000  Uiso   1.00
N437   N     0.16665   0.83332   0.28573   0.00000  Uiso   1.00
N438   N     0.16668   0.83334   0.04760   0.00000  Uiso   1.00
O439   O     0.16666   0.77225   0.20487   0.00000  Uiso   1.00
O440   O     0.16667   0.89442   0.12846   0.00000  Uiso   1.00
O441   O     0.16666   0.77226   0.12843   0.00000  Uiso   1.00
O442   O     0.16667   0.89441   0.20490   0.00000  Uiso   1.00
O443   O     0.09058   0.83333   0.19595   0.00000  Uiso   1.00
O444   O     0.24275   0.83334   0.13739   0.00000  Uiso   1.00
O445   O     0.09058   0.83334   0.11950   0.00000  Uiso   1.00
O446   O     0.24275   0.83333   0.21383   0.00000  Uiso   1.00
Zn447  Zn    0.16667   0.83333   0.21771   0.00000  Uiso   1.00
Zn448  Zn    0.16667   0.83334   0.11563   0.00000  Uiso   1.00
O449   O     0.32209   0.80894   0.10673   0.00000  Uiso   1.00
C450   C     0.31182   0.76585   0.10563   0.00000  Uiso   1.00
H451   H     0.01469   0.74878   0.11404   0.00000  Uiso   1.00
H452   H     0.29414   0.75735   0.07085   0.00000  Uiso   1.00
H453   H     0.28421   0.75597   0.12975   0.00000  Uiso   1.00
O454   O     0.00909   0.80966   0.22936   0.00000  Uiso   1.00
C455   C     0.31385   0.77622   0.24778   0.00000  Uiso   1.00
H456   H     0.00634   0.75758   0.27147   0.00000  Uiso   1.00
H457   H     0.29443   0.75446   0.22156   0.00000  Uiso   1.00
H458   H     0.28548   0.78787   0.26869   0.00000  Uiso   1.00
O459   O     0.21011   0.71319   0.09595   0.00000  Uiso   1.00
C460   C     0.17726   0.71020   0.05427   0.00000  Uiso   1.00
H461   H     0.17601   0.74132   0.03851   0.00000  Uiso   1.00
H462   H     0.13658   0.69878   0.05727   0.00000  Uiso   1.00
H463   H     0.19456   0.69046   0.03085   0.00000  Uiso   1.00
O464   O     0.11482   0.95996   0.22308   0.00000  Uiso   1.00
C465   C     0.11957   0.96473   0.27040   0.00000  Uiso   1.00
H466   H     0.15425   0.94979   0.28775   0.00000  Uiso   1.00
H467   H     0.08529   0.94877   0.28291   0.00000  Uiso   1.00
H468   H     0.11925   0.99739   0.27985   0.00000  Uiso   1.00
C469   C     0.21123   0.96069   0.09235   0.00000  Uiso   1.00
H470   H     0.25284   0.95760   0.09387   0.00000  Uiso   1.00
O471   O     0.18196   0.94905   0.05900   0.00000  Uiso   1.00
C472   C     0.20633   0.69866   0.25117   0.00000  Uiso   1.00
H473   H     0.21955   0.73046   0.25658   0.00000  Uiso   1.00
O474   O     0.22242   0.67329   0.27990   0.00000  Uiso   1.00
O475   O     0.23903   0.88024   0.05759   0.00000  Uiso   1.00
C476   C     0.29148   0.88005   0.04979   0.00000  Uiso   1.00
H477   H     0.30131   0.90746   0.02904   0.00000  Uiso   1.00
H478   H     0.30150   0.85103   0.03431   0.00000  Uiso   1.00
H479   H     0.31647   0.88387   0.08279   0.00000  Uiso   1.00
O480   O     0.09464   0.78685   0.27758   0.00000  Uiso   1.00
C481   C     0.10568   0.74494   0.28455   0.00000  Uiso   1.00
H482   H     0.08371   0.73084   0.31106   0.00000  Uiso   1.00
H483   H     0.14763   0.73998   0.29411   0.00000  Uiso   1.00
H484   H     0.09252   0.72859   0.25240   0.00000  Uiso   1.00
C485   C     0.24269   0.88120   0.29124   0.00000  Uiso   1.00
H486   H     0.27820   0.86767   0.28450   0.00000  Uiso   1.00
O487   O     0.23668   0.91768   0.28272   0.00000  Uiso   1.00
C488   C     0.08216   0.79266   0.03660   0.00000  Uiso   1.00
H489   H     0.04355   0.79911   0.02000   0.00000  Uiso   1.00
O490   O     0.08673   0.76661   0.06675   0.00000  Uiso   1.00
C491   C     0.50413   0.75349   0.16757   0.00000  Uiso   1.00
C492   C     0.50020   0.91340   0.16609   0.00000  Uiso   1.00
C493   C     0.40060   0.82906   0.15533   0.00000  Uiso   1.00
C494   C     0.59895   0.82961   0.17842   0.00000  Uiso   1.00
C495   C     0.34586   0.81904   0.14979   0.00000  Uiso   1.00
C496   C     0.65260   0.81937   0.18571   0.00000  Uiso   1.00
C497   C     0.52322   0.68995   0.12985   0.00000  Uiso   1.00
C498   C     0.49006   0.97774   0.20328   0.00000  Uiso   1.00
C499   C     0.52356   0.98046   0.12981   0.00000  Uiso   1.00
C500   C     0.50624   0.68598   0.20867   0.00000  Uiso   1.00
C501   C     0.50355   0.95790   0.16540   0.00000  Uiso   1.00
C502   C     0.51149   0.70936   0.16893   0.00000  Uiso   1.00
C503   C     0.53846   0.85521   0.02855   0.00000  Uiso   1.00
C504   C     0.46338   0.81082   0.30523   0.00000  Uiso   1.00
C505   C     0.53734   0.85607   0.31306   0.00000  Uiso   1.00
C506   C     0.46139   0.81249   0.01938   0.00000  Uiso   1.00
N507   N     0.49999   0.83332   0.28573   0.00000  Uiso   1.00
N508   N     0.50001   0.83334   0.04760   0.00000  Uiso   1.00
O509   O     0.50000   0.77225   0.20487   0.00000  Uiso   1.00
O510   O     0.50000   0.89442   0.12846   0.00000  Uiso   1.00
O511   O     0.50000   0.77226   0.12843   0.00000  Uiso   1.00
O512   O     0.50000   0.89441   0.20490   0.00000  Uiso   1.00
O513   O     0.42392   0.83333   0.19595   0.00000  Uiso   1.00
O514   O     0.57608   0.83334   0.13739   0.00000  Uiso   1.00
O515   O     0.42392   0.83334   0.11950   0.00000  Uiso   1.00
O516   O     0.57608   0.83333   0.21383   0.00000  Uiso   1.00
Zn517  Zn    0.50000   0.83333   0.21771   0.00000  Uiso   1.00
Zn518  Zn    0.50000   0.83334   0.11563   0.00000  Uiso   1.00
O519   O     0.65543   0.80894   0.10673   0.00000  Uiso   1.00
C520   C     0.64515   0.76585   0.10563   0.00000  Uiso   1.00
H521   H     0.34802   0.74878   0.11404   0.00000  Uiso   1.00
H522   H     0.62747   0.75735   0.07085   0.00000  Uiso   1.00
H523   H     0.61754   0.75597   0.12975   0.00000  Uiso   1.00
O524   O     0.34242   0.80966   0.22936   0.00000  Uiso   1.00
C525   C     0.64718   0.77622   0.24778   0.00000  Uiso   1.00
H526   H     0.33968   0.75758   0.27147   0.00000  Uiso   1.00
H527   H     0.62776   0.75446   0.22156   0.00000  Uiso   1.00
H528   H     0.61881   0.78787   0.26869   0.00000  Uiso   1.00
O529   O     0.54344   0.71319   0.09595   0.00000  Uiso   1.00
C530   C     0.51059   0.71020   0.05427   0.00000  Uiso   1.00
H531   H     0.50934   0.74132   0.03851   0.00000  Uiso   1.00
H532   H     0.46991   0.69878   0.05727   0.00000  Uiso   1.00
H533   H     0.52789   0.69046   0.03085   0.00000  Uiso   1.00
O534   O     0.44816   0.95996   0.22308   0.00000  Uiso   1.00
C535   C     0.45290   0.96473   0.27040   0.00000  Uiso   1.00
H536   H     0.48759   0.94979   0.28775   0.00000  Uiso   1.00
H537   H     0.41862   0.94877   0.28291   0.00000  Uiso   1.00
H538   H     0.45259   0.99739   0.27985   0.00000  Uiso   1.00
C539   C     0.54456   0.96069   0.09235   0.00000  Uiso   1.00
H540   H     0.58618   0.95760   0.09387   0.00000  Uiso   1.00
O541   O     0.51530   0.94905   0.05900   0.00000  Uiso   1.00
C542   C     0.53966   0.69866   0.25117   0.00000  Uiso   1.00
H543   H     0.55288   0.73046   0.25658   0.00000  Uiso   1.00
O544   O     0.55575   0.67329   0.27990   0.00000  Uiso   1.00
O545   O     0.57237   0.88024   0.05759   0.00000  Uiso   1.00
C546   C     0.62481   0.88005   0.04979   0.00000  Uiso   1.00
H547   H     0.63465   0.90746   0.02904   0.00000  Uiso   1.00
H548   H     0.63483   0.85103   0.03431   0.00000  Uiso   1.00
H549   H     0.64980   0.88387   0.08279   0.00000  Uiso   1.00
O550   O     0.42798   0.78685   0.27758   0.00000  Uiso   1.00
C551   C     0.43901   0.74494   0.28455   0.00000  Uiso   1.00
H552   H     0.41705   0.73084   0.31106   0.00000  Uiso   1.00
H553   H     0.48096   0.73998   0.29411   0.00000  Uiso   1.00
H554   H     0.42585   0.72859   0.25240   0.00000  Uiso   1.00
C555   C     0.57603   0.88120   0.29124   0.00000  Uiso   1.00
H556   H     0.61153   0.86767   0.28450   0.00000  Uiso   1.00
O557   O     0.57001   0.91768   0.28272   0.00000  Uiso   1.00
C558   C     0.41550   0.79266   0.03660   0.00000  Uiso   1.00
H559   H     0.37689   0.79911   0.02000   0.00000  Uiso   1.00
O560   O     0.42006   0.76661   0.06675   0.00000  Uiso   1.00
C561   C     0.83746   0.75349   0.16757   0.00000  Uiso   1.00
C562   C     0.83353   0.91340   0.16609   0.00000  Uiso   1.00
C563   C     0.73394   0.82906   0.15533   0.00000  Uiso   1.00
C564   C     0.93229   0.82961   0.17842   0.00000  Uiso   1.00
C565   C     0.67920   0.81904   0.14979   0.00000  Uiso   1.00
C566   C     0.98594   0.81937   0.18571   0.00000  Uiso   1.00
C567   C     0.85655   0.68995   0.12985   0.00000  Uiso   1.00
C568   C     0.82339   0.97774   0.20328   0.00000  Uiso   1.00
C569   C     0.85690   0.98046   0.12981   0.00000  Uiso   1.00
C570   C     0.83957   0.68598   0.20867   0.00000  Uiso   1.00
C571   C     0.83689   0.95790   0.16540   0.00000  Uiso   1.00
C572   C     0.84482   0.70936   0.16893   0.00000  Uiso   1.00
C573   C     0.87180   0.85521   0.02855   0.00000  Uiso   1.00
C574   C     0.79672   0.81082   0.30523   0.00000  Uiso   1.00
C575   C     0.87067   0.85607   0.31306   0.00000  Uiso   1.00
C576   C     0.79472   0.81249   0.01938   0.00000  Uiso   1.00
N577   N     0.83332   0.83332   0.28573   0.00000  Uiso   1.00
N578   N     0.83335   0.83334   0.04760   0.00000  Uiso   1.00
O579   O     0.83333   0.77225   0.20487   0.00000  Uiso   1.00
O580   O     0.83334   0.89442   0.12846   0.00000  Uiso   1.00
O581   O     0.83333   0.77226   0.12843   0.00000  Uiso   1.00
O582   O     0.83334   0.89441   0.20490   0.00000  Uiso   1.00
O583   O     0.75725   0.83333   0.19595   0.00000  Uiso   1.00
O584   O     0.90942   0.83334   0.13739   0.00000  Uiso   1.00
O585   O     0.75725   0.83334   0.11950   0.00000  Uiso   1.00
O586   O     0.90942   0.83333   0.21383   0.00000  Uiso   1.00
Zn587  Zn    0.83333   0.83333   0.21771   0.00000  Uiso   1.00
Zn588  Zn    0.83333   0.83334   0.11563   0.00000  Uiso   1.00
O589   O     0.98876   0.80894   0.10673   0.00000  Uiso   1.00
C590   C     0.97849   0.76585   0.10563   0.00000  Uiso   1.00
H591   H     0.68136   0.74878   0.11404   0.00000  Uiso   1.00
H592   H     0.96080   0.75735   0.07085   0.00000  Uiso   1.00
H593   H     0.95088   0.75597   0.12975   0.00000  Uiso   1.00
O594   O     0.67575   0.80966   0.22936   0.00000  Uiso   1.00
C595   C     0.98051   0.77622   0.24778   0.00000  Uiso   1.00
H596   H     0.67301   0.75758   0.27147   0.00000  Uiso   1.00
H597   H     0.96110   0.75446   0.22156   0.00000  Uiso   1.00
H598   H     0.95214   0.78787   0.26869   0.00000  Uiso   1.00
O599   O     0.87678   0.71319   0.09595   0.00000  Uiso   1.00
C600   C     0.84392   0.71020   0.05427   0.00000  Uiso   1.00
H601   H     0.84267   0.74132   0.03851   0.00000  Uiso   1.00
H602   H     0.80325   0.69878   0.05727   0.00000  Uiso   1.00
H603   H     0.86122   0.69046   0.03085   0.00000  Uiso   1.00
O604   O     0.78149   0.95996   0.22308   0.00000  Uiso   1.00
C605   C     0.78623   0.96473   0.27040   0.00000  Uiso   1.00
H606   H     0.82092   0.94979   0.28775   0.00000  Uiso   1.00
H607   H     0.75196   0.94877   0.28291   0.00000  Uiso   1.00
H608   H     0.78592   0.99739   0.27985   0.00000  Uiso   1.00
C609   C     0.87790   0.96069   0.09235   0.00000  Uiso   1.00
H610   H     0.91951   0.95760   0.09387   0.00000  Uiso   1.00
O611   O     0.84863   0.94905   0.05900   0.00000  Uiso   1.00
C612   C     0.87300   0.69866   0.25117   0.00000  Uiso   1.00
H613   H     0.88621   0.73046   0.25658   0.00000  Uiso   1.00
O614   O     0.88908   0.67329   0.27990   0.00000  Uiso   1.00
O615   O     0.90570   0.88024   0.05759   0.00000  Uiso   1.00
C616   C     0.95815   0.88005   0.04979   0.00000  Uiso   1.00
H617   H     0.96798   0.90746   0.02904   0.00000  Uiso   1.00
H618   H     0.96816   0.85103   0.03431   0.00000  Uiso   1.00
H619   H     0.98313   0.88387   0.08279   0.00000  Uiso   1.00
O620   O     0.76131   0.78685   0.27758   0.00000  Uiso   1.00
C621   C     0.77235   0.74494   0.28455   0.00000  Uiso   1.00
H622   H     0.75038   0.73084   0.31106   0.00000  Uiso   1.00
H623   H     0.81430   0.73998   0.29411   0.00000  Uiso   1.00
H624   H     0.75919   0.72859   0.25240   0.00000  Uiso   1.00
C625   C     0.90936   0.88120   0.29124   0.00000  Uiso   1.00
H626   H     0.94486   0.86767   0.28450   0.00000  Uiso   1.00
O627   O     0.90335   0.91768   0.28272   0.00000  Uiso   1.00
C628   C     0.74883   0.79266   0.03660   0.00000  Uiso   1.00
H629   H     0.71022   0.79911   0.02000   0.00000  Uiso   1.00
O630   O     0.75340   0.76661   0.06675   0.00000  Uiso   1.00
C631   C     0.17080   0.08682   0.50090   0.00000  Uiso   1.00
C632   C     0.16687   0.24673   0.49942   0.00000  Uiso   1.00
C633   C     0.06727   0.16239   0.48866   0.00000  Uiso   1.00
C634   C     0.26562   0.16294   0.51175   0.00000  Uiso   1.00
C635   C     0.01253   0.15237   0.48312   0.00000  Uiso   1.00
C636   C     0.31927   0.15271   0.51905   0.00000  Uiso   1.00
C637   C     0.18989   0.02328   0.46318   0.00000  Uiso   1.00
C638   C     0.15673   0.31108   0.53662   0.00000  Uiso   1.00
C639   C     0.19023   0.31380   0.46314   0.00000  Uiso   1.00
C640   C     0.17290   0.01931   0.54200   0.00000  Uiso   1.00
C641   C     0.17022   0.29123   0.49873   0.00000  Uiso   1.00
C642   C     0.17816   0.04270   0.50226   0.00000  Uiso   1.00
C643   C     0.20513   0.18854   0.36189   0.00000  Uiso   1.00
C644   C     0.13005   0.14416   0.63856   0.00000  Uiso   1.00
C645   C     0.20401   0.18941   0.64640   0.00000  Uiso   1.00
C646   C     0.12805   0.14583   0.35271   0.00000  Uiso   1.00
N647   N     0.16665   0.16666   0.61907   0.00000  Uiso   1.00
N648   N     0.16668   0.16668   0.38093   0.00000  Uiso   1.00
O649   O     0.16666   0.10558   0.53821   0.00000  Uiso   1.00
O650   O     0.16667   0.22775   0.46179   0.00000  Uiso   1.00
O651   O     0.16666   0.10559   0.46176   0.00000  Uiso   1.00
O652   O     0.16667   0.22774   0.53824   0.00000  Uiso   1.00
O653   O     0.09058   0.16666   0.52928   0.00000  Uiso   1.00
O654   O     0.24275   0.16667   0.47072   0.00000  Uiso   1.00
O655   O     0.09058   0.16667   0.45284   0.00000  Uiso   1.00
O656   O     0.24275   0.16666   0.54716   0.00000  Uiso   1.00
Zn657  Zn    0.16667   0.16666   0.55104   0.00000  Uiso   1.00
Zn658  Zn    0.16667   0.16667   0.44896   0.00000  Uiso   1.00
O659   O     0.32209   0.14227   0.44007   0.00000  Uiso   1.00
C660   C     0.31182   0.09918   0.43896   0.00000  Uiso   1.00
H661   H     0.01469   0.08211   0.44738   0.00000  Uiso   1.00
H662   H     0.29414   0.09069   0.40418   0.00000  Uiso   1.00
H663   H     0.28421   0.08931   0.46308   0.00000  Uiso   1.00
O664   O     0.00909   0.14299   0.56269   0.00000  Uiso   1.00
C665   C     0.31385   0.10956   0.58111   0.00000  Uiso   1.00
H666   H     0.00634   0.09091   0.60480   0.00000  Uiso   1.00
H667   H     0.29443   0.08780   0.55490   0.00000  Uiso   1.00
H668   H     0.28548   0.12120   0.60202   0.00000  Uiso   1.00
O669   O     0.21011   0.04652   0.42928   0.00000  Uiso   1.00
C670   C     0.17726   0.04353   0.38761   0.00000  Uiso   1.00
H671   H     0.17601   0.07466   0.37184   0.00000  Uiso   1.00
H672   H     0.13658   0.03211   0.39060   0.00000  Uiso   1.00
H673   H     0.19456   0.02379   0.36418   0.00000  Uiso   1.00
O674   O     0.11482   0.29329   0.55641   0.00000  Uiso   1.00
C675   C     0.11957   0.29807   0.60373   0.00000  Uiso   1.00
H676   H     0.15425   0.28312   0.62109   0.00000  Uiso   1.00
H677   H     0.08529   0.28210   0.61624   0.00000  Uiso   1.00
H678   H     0.11925   0.33072   0.61318   0.00000  Uiso   1.00
C679   C     0.21123   0.29403   0.42568   0.00000  Uiso   1.00
H680   H     0.25284   0.29094   0.42721   0.00000  Uiso   1.00
O681   O     0.18196   0.28238   0.39234   0.00000  Uiso   1.00
C682   C     0.20633   0.03199   0.58450   0.00000  Uiso   1.00
H683   H     0.21955   0.06379   0.58991   0.00000  Uiso   1.00
O684   O     0.22242   0.00663   0.61323   0.00000  Uiso   1.00
O685   O     0.23903   0.21357   0.39093   0.00000  Uiso   1.00
C686   C     0.29148   0.21338   0.38312   0.00000  Uiso   1.00
H687   H     0.30131   0.24080   0.36238   0.00000  Uiso   1.00
H688   H     0.30150   0.18437   0.36764   0.00000  Uiso   1.00
H689   H     0.31647   0.21720   0.41612   0.00000  Uiso   1.00
O690   O     0.09464   0.12018   0.61091   0.00000  Uiso   1.00
C691   C     0.10568   0.07827   0.61788   0.00000  Uiso   1.00
H692   H     0.08371   0.06417   0.64439   0.00000  Uiso   1.00
H693   H     0.14763   0.07332   0.62744   0.00000  Uiso   1.00
H694   H     0.09252   0.06192   0.58573   0.00000  Uiso   1.00
C695   C     0.24269   0.21453   0.62457   0.00000  Uiso   1.00
H696   H     0.27820   0.20100   0.61783   0.00000  Uiso   1.00
O697   O     0.23668   0.25102   0.61605   0.00000  Uiso   1.00
C698   C     0.08216   0.12599   0.36993   0.00000  Uiso   1.00
H699   H     0.04355   0.13245   0.35333   0.00000  Uiso   1.00
O700   O     0.08673   0.09995   0.40008   0.00000  Uiso   1.00
C701   C     0.50413   0.08682   0.50090   0.00000  Uiso   1.00
C702   C     0.50020   0.24673   0.49942   0.00000  Uiso   1.00
C703   C     0.40060   0.16239   0.48866   0.00000  Uiso   1.00
C704   C     0.59895   0.16294   0.51175   0.00000  Uiso   1.00
C705   C     0.34586   0.15237   0.48312   0.00000  Uiso   1.00
C706   C     0.65260   0.15271   0.51905   0.00000  Uiso   1.00
C707   C     0.52322   0.02328   0.46318   0.00000  Uiso   1.00
C708   C     0.49006   0.31108   0.53662   0.00000  Uiso   1.00
C709   C     0.52356   0.31380   0.46314   0.00000  Uiso   1.00
C710   C     0.50624   0.01931   0.54200   0.00000  Uiso   1.00
C711   C     0.50355   0.29123   0.49873   0.00000  Uiso   1.00
C712   C     0.51149   0.04270   0.50226   0.00000  Uiso   1.00
C713   C     0.53846   0.18854   0.36189   0.00000  Uiso   1.00
C714   C     0.46338   0.14416   0.63856   0.00000  Uiso   1.00
C715   C     0.53734   0.18941   0.64640   0.00000  Uiso   1.00
C716   C     0.46139   0.14583   0.35271   0.00000  Uiso   1.00
N717   N     0.49999   0.16666   0.61907   0.00000  Uiso   1.00
N718   N     0.50001   0.16668   0.38093   0.00000  Uiso   1.00
O719   O     0.50000   0.10558   0.53821   0.00000  Uiso   1.00
O720   O     0.50000   0.22775   0.46179   0.00000  Uiso   1.00
O721   O     0.50000   0.10559   0.46176   0.00000  Uiso   1.00
O722   O     0.50000   0.22774   0.53824   0.00000  Uiso   1.00
O723   O     0.42392   0.16666   0.52928   0.00000  Uiso   1.00
O724   O     0.57608   0.16667   0.47072   0.00000  Uiso   1.00
O725   O     0.42392   0.16667   0.45284   0.00000  Uiso   1.00
O726   O     0.57608   0.16666   0.54716   0.00000  Uiso   1.00
Zn727  Zn    0.50000   0.16666   0.55104   0.00000  Uiso   1.00
Zn728  Zn    0.50000   0.16667   0.44896   0.00000  Uiso   1.00
O729   O     0.65543   0.14227   0.44007   0.00000  Uiso   1.00
C730   C     0.64515   0.09918   0.43896   0.00000  Uiso   1.00
H731   H     0.34802   0.08211   0.44738   0.00000  Uiso   1.00
H732   H     0.62747   0.09069   0.40418   0.00000  Uiso   1.00
H733   H     0.61754   0.08931   0.46308   0.00000  Uiso   1.00
O734   O     0.34242   0.14299   0.56269   0.00000  Uiso   1.00
C735   C     0.64718   0.10956   0.58111   0.00000  Uiso   1.00
H736   H     0.33968   0.09091   0.60480   0.00000  Uiso   1.00
H737   H     0.62776   0.08780   0.55490   0.00000  Uiso   1.00
H738   H     0.61881   0.12120   0.60202   0.00000  Uiso   1.00
O739   O     0.54344   0.04652   0.42928   0.00000  Uiso   1.00
C740   C     0.51059   0.04353   0.38761   0.00000  Uiso   1.00
H741   H     0.50934   0.07466   0.37184   0.00000  Uiso   1.00
H742   H     0.46991   0.03211   0.39060   0.00000  Uiso   1.00
H743   H     0.52789   0.02379   0.36418   0.00000  Uiso   1.00
O744   O     0.44816   0.29329   0.55641   0.00000  Uiso   1.00
C745   C     0.45290   0.29807   0.60373   0.00000  Uiso   1.00
H746   H     0.48759   0.28312   0.62109   0.00000  Uiso   1.00
H747   H     0.41862   0.28210   0.61624   0.00000  Uiso   1.00
H748   H     0.45259   0.33072   0.61318   0.00000  Uiso   1.00
C749   C     0.54456   0.29403   0.42568   0.00000  Uiso   1.00
H750   H     0.58618   0.29094   0.42721   0.00000  Uiso   1.00
O751   O     0.51530   0.28238   0.39234   0.00000  Uiso   1.00
C752   C     0.53966   0.03199   0.58450   0.00000  Uiso   1.00
H753   H     0.55288   0.06379   0.58991   0.00000  Uiso   1.00
O754   O     0.55575   0.00663   0.61323   0.00000  Uiso   1.00
O755   O     0.57237   0.21357   0.39093   0.00000  Uiso   1.00
C756   C     0.62481   0.21338   0.38312   0.00000  Uiso   1.00
H757   H     0.63465   0.24080   0.36238   0.00000  Uiso   1.00
H758   H     0.63483   0.18437   0.36764   0.00000  Uiso   1.00
H759   H     0.64980   0.21720   0.41612   0.00000  Uiso   1.00
O760   O     0.42798   0.12018   0.61091   0.00000  Uiso   1.00
C761   C     0.43901   0.07827   0.61788   0.00000  Uiso   1.00
H762   H     0.41705   0.06417   0.64439   0.00000  Uiso   1.00
H763   H     0.48096   0.07332   0.62744   0.00000  Uiso   1.00
H764   H     0.42585   0.06192   0.58573   0.00000  Uiso   1.00
C765   C     0.57603   0.21453   0.62457   0.00000  Uiso   1.00
H766   H     0.61153   0.20100   0.61783   0.00000  Uiso   1.00
O767   O     0.57001   0.25102   0.61605   0.00000  Uiso   1.00
C768   C     0.41550   0.12599   0.36993   0.00000  Uiso   1.00
H769   H     0.37689   0.13245   0.35333   0.00000  Uiso   1.00
O770   O     0.42006   0.09995   0.40008   0.00000  Uiso   1.00
C771   C     0.83746   0.08682   0.50090   0.00000  Uiso   1.00
C772   C     0.83353   0.24673   0.49942   0.00000  Uiso   1.00
C773   C     0.73394   0.16239   0.48866   0.00000  Uiso   1.00
C774   C     0.93229   0.16294   0.51175   0.00000  Uiso   1.00
C775   C     0.67920   0.15237   0.48312   0.00000  Uiso   1.00
C776   C     0.98594   0.15271   0.51905   0.00000  Uiso   1.00
C777   C     0.85655   0.02328   0.46318   0.00000  Uiso   1.00
C778   C     0.82339   0.31108   0.53662   0.00000  Uiso   1.00
C779   C     0.85690   0.31380   0.46314   0.00000  Uiso   1.00
C780   C     0.83957   0.01931   0.54200   0.00000  Uiso   1.00
C781   C     0.83689   0.29123   0.49873   0.00000  Uiso   1.00
C782   C     0.84482   0.04270   0.50226   0.00000  Uiso   1.00
C783   C     0.87180   0.18854   0.36189   0.00000  Uiso   1.00
C784   C     0.79672   0.14416   0.63856   0.00000  Uiso   1.00
C785   C     0.87067   0.18941   0.64640   0.00000  Uiso   1.00
C786   C     0.79472   0.14583   0.35271   0.00000  Uiso   1.00
N787   N     0.83332   0.16666   0.61907   0.00000  Uiso   1.00
N788   N     0.83335   0.16668   0.38093   0.00000  Uiso   1.00
O789   O     0.83333   0.10558   0.53821   0.00000  Uiso   1.00
O790   O     0.83334   0.22775   0.46179   0.00000  Uiso   1.00
O791   O     0.83333   0.10559   0.46176   0.00000  Uiso   1.00
O792   O     0.83334   0.22774   0.53824   0.00000  Uiso   1.00
O793   O     0.75725   0.16666   0.52928   0.00000  Uiso   1.00
O794   O     0.90942   0.16667   0.47072   0.00000  Uiso   1.00
O795   O     0.75725   0.16667   0.45284   0.00000  Uiso   1.00
O796   O     0.90942   0.16666   0.54716   0.00000  Uiso   1.00
Zn797  Zn    0.83333   0.16666   0.55104   0.00000  Uiso   1.00
Zn798  Zn    0.83333   0.16667   0.44896   0.00000  Uiso   1.00
O799   O     0.98876   0.14227   0.44007   0.00000  Uiso   1.00
C800   C     0.97849   0.09918   0.43896   0.00000  Uiso   1.00
H801   H     0.68136   0.08211   0.44738   0.00000  Uiso   1.00
H802   H     0.96080   0.09069   0.40418   0.00000  Uiso   1.00
H803   H     0.95088   0.08931   0.46308   0.00000  Uiso   1.00
O804   O     0.67575   0.14299   0.56269   0.00000  Uiso   1.00
C805   C     0.98051   0.10956   0.58111   0.00000  Uiso   1.00
H806   H     0.67301   0.09091   0.60480   0.00000  Uiso   1.00
H807   H     0.96110   0.08780   0.55490   0.00000  Uiso   1.00
H808   H     0.95214   0.12120   0.60202   0.00000  Uiso   1.00
O809   O     0.87678   0.04652   0.42928   0.00000  Uiso   1.00
C810   C     0.84392   0.04353   0.38761   0.00000  Uiso   1.00
H811   H     0.84267   0.07466   0.37184   0.00000  Uiso   1.00
H812   H     0.80325   0.03211   0.39060   0.00000  Uiso   1.00
H813   H     0.86122   0.02379   0.36418   0.00000  Uiso   1.00
O814   O     0.78149   0.29329   0.55641   0.00000  Uiso   1.00
C815   C     0.78623   0.29807   0.60373   0.00000  Uiso   1.00
H816   H     0.82092   0.28312   0.62109   0.00000  Uiso   1.00
H817   H     0.75196   0.28210   0.61624   0.00000  Uiso   1.00
H818   H     0.78592   0.33072   0.61318   0.00000  Uiso   1.00
C819   C     0.87790   0.29403   0.42568   0.00000  Uiso   1.00
H820   H     0.91951   0.29094   0.42721   0.00000  Uiso   1.00
O821   O     0.84863   0.28238   0.39234   0.00000  Uiso   1.00
C822   C     0.87300   0.03199   0.58450   0.00000  Uiso   1.00
H823   H     0.88621   0.06379   0.58991   0.00000  Uiso   1.00
O824   O     0.88908   0.00663   0.61323   0.00000  Uiso   1.00
O825   O     0.90570   0.21357   0.39093   0.00000  Uiso   1.00
C826   C     0.95815   0.21338   0.38312   0.00000  Uiso   1.00
H827   H     0.96798   0.24080   0.36238   0.00000  Uiso   1.00
H828   H     0.96816   0.18437   0.36764   0.00000  Uiso   1.00
H829   H     0.98313   0.21720   0.41612   0.00000  Uiso   1.00
O830   O     0.76131   0.12018   0.61091   0.00000  Uiso   1.00
C831   C     0.77235   0.07827   0.61788   0.00000  Uiso   1.00
H832   H     0.75038   0.06417   0.64439   0.00000  Uiso   1.00
H833   H     0.81430   0.07332   0.62744   0.00000  Uiso   1.00
H834   H     0.75919   0.06192   0.58573   0.00000  Uiso   1.00
C835   C     0.90936   0.21453   0.62457   0.00000  Uiso   1.00
H836   H     0.94486   0.20100   0.61783   0.00000  Uiso   1.00
O837   O     0.90335   0.25102   0.61605   0.00000  Uiso   1.00
C838   C     0.74883   0.12599   0.36993   0.00000  Uiso   1.00
H839   H     0.71022   0.13245   0.35333   0.00000  Uiso   1.00
O840   O     0.75340   0.09995   0.40008   0.00000  Uiso   1.00
C841   C     0.17080   0.42016   0.50090   0.00000  Uiso   1.00
C842   C     0.16687   0.58007   0.49942   0.00000  Uiso   1.00
C843   C     0.06727   0.49572   0.48866   0.00000  Uiso   1.00
C844   C     0.26562   0.49628   0.51175   0.00000  Uiso   1.00
C845   C     0.01253   0.48570   0.48312   0.00000  Uiso   1.00
C846   C     0.31927   0.48604   0.51905   0.00000  Uiso   1.00
C847   C     0.18989   0.35662   0.46318   0.00000  Uiso   1.00
C848   C     0.15673   0.64441   0.53662   0.00000  Uiso   1.00
C849   C     0.19023   0.64713   0.46314   0.00000  Uiso   1.00
C850   C     0.17290   0.35265   0.54200   0.00000  Uiso   1.00
C851   C     0.17022   0.62456   0.49873   0.00000  Uiso   1.00
C852   C     0.17816   0.37603   0.50226   0.00000  Uiso   1.00
C853   C     0.20513   0.52188   0.36189   0.00000  Uiso   1.00
C854   C     0.13005   0.47749   0.63856   0.00000  Uiso   1.00
C855   C     0.20401   0.52274   0.64640   0.00000  Uiso   1.00
C856   C     0.12805   0.47916   0.35271   0.00000  Uiso   1.00
N857   N     0.16665   0.49999   0.61907   0.00000  Uiso   1.00
N858   N     0.16668   0.50001   0.38093   0.00000  Uiso   1.00
O859   O     0.16666   0.43892   0.53821   0.00000  Uiso   1.00
O860   O     0.16667   0.56108   0.46179   0.00000  Uiso   1.00
O861   O     0.16666   0.43893   0.46176   0.00000  Uiso   1.00
O862   O     0.16667   0.56107   0.53824   0.00000  Uiso   1.00
O863   O     0.09058   0.50000   0.52928   0.00000  Uiso   1.00
O864   O     0.24275   0.50000   0.47072   0.00000  Uiso   1.00
O865   O     0.09058   0.50000   0.45284   0.00000  Uiso   1.00
O866   O     0.24275   0.50000   0.54716   0.00000  Uiso   1.00
Zn867  Zn    0.16667   0.49999   0.55104   0.00000  Uiso   1.00
Zn868  Zn    0.16667   0.50001   0.44896   0.00000  Uiso   1.00
O869   O     0.32209   0.47560   0.44007   0.00000  Uiso   1.00
C870   C     0.31182   0.43251   0.43896   0.00000  Uiso   1.00
H871   H     0.01469   0.41544   0.44738   0.00000  Uiso   1.00
H872   H     0.29414   0.42402   0.40418   0.00000  Uiso   1.00
H873   H     0.28421   0.42264   0.46308   0.00000  Uiso   1.00
O874   O     0.00909   0.47633   0.56269   0.00000  Uiso   1.00
C875   C     0.31385   0.44289   0.58111   0.00000  Uiso   1.00
H876   H     0.00634   0.42424   0.60480   0.00000  Uiso   1.00
H877   H     0.29443   0.42113   0.55490   0.00000  Uiso   1.00
H878   H     0.28548   0.45453   0.60202   0.00000  Uiso   1.00
O879   O     0.21011   0.37986   0.42928   0.00000  Uiso   1.00
C880   C     0.17726   0.37687   0.38761   0.00000  Uiso   1.00
H881   H     0.17601   0.40799   0.37184   0.00000  Uiso   1.00
H882   H     0.13658   0.36544   0.39060   0.00000  Uiso   1.00
H883   H     0.19456   0.35713   0.36418   0.00000  Uiso   1.00
O884   O     0.11482   0.62663   0.55641   0.00000  Uiso   1.00
C885   C     0.11957   0.63140   0.60373   0.00000  Uiso   1.00
H886   H     0.15425   0.61646   0.62109   0.00000  Uiso   1.00
H887   H     0.08529   0.61543   0.61624   0.00000  Uiso   1.00
H888   H     0.11925   0.66406   0.61318   0.00000  Uiso   1.00
C889   C     0.21123   0.62736   0.42568   0.00000  Uiso   1.00
H890   H     0.25284   0.62427   0.42721   0.00000  Uiso   1.00
O891   O     0.18196   0.61571   0.39234   0.00000  Uiso   1.00
C892   C     0.20633   0.36532   0.58450   0.00000  Uiso   1.00
H893   H     0.21955   0.39713   0.58991   0.00000  Uiso   1.00
O894   O     0.22242   0.33996   0.61323   0.00000  Uiso   1.00
O895   O     0.23903   0.54690   0.39093   0.00000  Uiso   1.00
C896   C     0.29148   0.54672   0.38312   0.00000  Uiso   1.00
H897   H     0.30131   0.57413   0.36238   0.00000  Uiso   1.00
H898   H     0.30150   0.51770   0.36764   0.00000  Uiso   1.00
H899   H     0.31647   0.55054   0.41612   0.00000  Uiso   1.00
O900   O     0.09464   0.45351   0.61091   0.00000  Uiso   1.00
C901   C     0.10568   0.41161   0.61788   0.00000  Uiso   1.00
H902   H     0.08371   0.39750   0.64439   0.00000  Uiso   1.00
H903   H     0.14763   0.40665   0.62744   0.00000  Uiso   1.00
H904   H     0.09252   0.39525   0.58573   0.00000  Uiso   1.00
C905   C     0.24269   0.54787   0.62457   0.00000  Uiso   1.00
H906   H     0.27820   0.53434   0.61783   0.00000  Uiso   1.00
O907   O     0.23668   0.58435   0.61605   0.00000  Uiso   1.00
C908   C     0.08216   0.45933   0.36993   0.00000  Uiso   1.00
H909   H     0.04355   0.46578   0.35333   0.00000  Uiso   1.00
O910   O     0.08673   0.43328   0.40008   0.00000  Uiso   1.00
C911   C     0.50413   0.42016   0.50090   0.00000  Uiso   1.00
C912   C     0.50020   0.58007   0.49942   0.00000  Uiso   1.00
C913   C     0.40060   0.49572   0.48866   0.00000  Uiso   1.00
C914   C     0.59895   0.49628   0.51175   0.00000  Uiso   1.00
C915   C     0.34586   0.48570   0.48312   0.00000  Uiso   1.00
C916   C     0.65260   0.48604   0.51905   0.00000  Uiso   1.00
C917   C     0.52322   0.35662   0.46318   0.00000  Uiso   1.00
C918   C     0.49006   0.64441   0.53662   0.00000  Uiso   1.00
C919   C     0.52356   0.64713   0.46314   0.00000  Uiso   1.00
C920   C     0.50624   0.35265   0.54200   0.00000  Uiso   1.00
C921   C     0.50355   0.62456   0.49873   0.00000  Uiso   1.00
C922   C     0.51149   0.37603   0.50226   0.00000  Uiso   1.00
C923   C     0.53846   0.52188   0.36189   0.00000  Uiso   1.00
C924   C     0.46338   0.47749   0.63856   0.00000  Uiso   1.00
C925   C     0.53734   0.52274   0.64640   0.00000  Uiso   1.00
C926   C     0.46139   0.47916   0.35271   0.00000  Uiso   1.00
N927   N     0.49999   0.49999   0.61907   0.00000  Uiso   1.00
N928   N     0.50001   0.50001   0.38093   0.00000  Uiso   1.00
O929   O     0.50000   0.43892   0.53821   0.00000  Uiso   1.00
O930   O     0.50000   0.56108   0.46179   0.00000  Uiso   1.00
O931   O     0.50000   0.43893   0.46176   0.00000  Uiso   1.00
O932   O     0.50000   0.56107   0.53824   0.00000  Uiso   1.00
O933   O     0.42392   0.50000   0.52928   0.00000  Uiso   1.00
O934   O     0.57608   0.50000   0.47072   0.00000  Uiso   1.00
O935   O     0.42392   0.50000   0.45284   0.00000  Uiso   1.00
O936   O     0.57608   0.50000   0.54716   0.00000  Uiso   1.00
Zn937  Zn    0.50000   0.49999   0.55104   0.00000  Uiso   1.00
Zn938  Zn    0.50000   0.50001   0.44896   0.00000  Uiso   1.00
O939   O     0.65543   0.47560   0.44007   0.00000  Uiso   1.00
C940   C     0.64515   0.43251   0.43896   0.00000  Uiso   1.00
H941   H     0.34802   0.41544   0.44738   0.00000  Uiso   1.00
H942   H     0.62747   0.42402   0.40418   0.00000  Uiso   1.00
H943   H     0.61754   0.42264   0.46308   0.00000  Uiso   1.00
O944   O     0.34242   0.47633   0.56269   0.00000  Uiso   1.00
C945   C     0.64718   0.44289   0.58111   0.00000  Uiso   1.00
H946   H     0.33968   0.42424   0.60480   0.00000  Uiso   1.00
H947   H     0.62776   0.42113   0.55490   0.00000  Uiso   1.00
H948   H     0.61881   0.45453   0.60202   0.00000  Uiso   1.00
O949   O     0.54344   0.37986   0.42928   0.00000  Uiso   1.00
C950   C     0.51059   0.37687   0.38761   0.00000  Uiso   1.00
H951   H     0.50934   0.40799   0.37184   0.00000  Uiso   1.00
H952   H     0.46991   0.36544   0.39060   0.00000  Uiso   1.00
H953   H     0.52789   0.35713   0.36418   0.00000  Uiso   1.00
O954   O     0.44816   0.62663   0.55641   0.00000  Uiso   1.00
C955   C     0.45290   0.63140   0.60373   0.00000  Uiso   1.00
H956   H     0.48759   0.61646   0.62109   0.00000  Uiso   1.00
H957   H     0.41862   0.61543   0.61624   0.00000  Uiso   1.00
H958   H     0.45259   0.66406   0.61318   0.00000  Uiso   1.00
C959   C     0.54456   0.62736   0.42568   0.00000  Uiso   1.00
H960   H     0.58618   0.62427   0.42721   0.00000  Uiso   1.00
O961   O     0.51530   0.61571   0.39234   0.00000  Uiso   1.00
C962   C     0.53966   0.36532   0.58450   0.00000  Uiso   1.00
H963   H     0.55288   0.39713   0.58991   0.00000  Uiso   1.00
O964   O     0.55575   0.33996   0.61323   0.00000  Uiso   1.00
O965   O     0.57237   0.54690   0.39093   0.00000  Uiso   1.00
C966   C     0.62481   0.54672   0.38312   0.00000  Uiso   1.00
H967   H     0.63465   0.57413   0.36238   0.00000  Uiso   1.00
H968   H     0.63483   0.51770   0.36764   0.00000  Uiso   1.00
H969   H     0.64980   0.55054   0.41612   0.00000  Uiso   1.00
O970   O     0.42798   0.45351   0.61091   0.00000  Uiso   1.00
C971   C     0.43901   0.41161   0.61788   0.00000  Uiso   1.00
H972   H     0.41705   0.39750   0.64439   0.00000  Uiso   1.00
H973   H     0.48096   0.40665   0.62744   0.00000  Uiso   1.00
H974   H     0.42585   0.39525   0.58573   0.00000  Uiso   1.00
C975   C     0.57603   0.54787   0.62457   0.00000  Uiso   1.00
H976   H     0.61153   0.53434   0.61783   0.00000  Uiso   1.00
O977   O     0.57001   0.58435   0.61605   0.00000  Uiso   1.00
C978   C     0.41550   0.45933   0.36993   0.00000  Uiso   1.00
H979   H     0.37689   0.46578   0.35333   0.00000  Uiso   1.00
O980   O     0.42006   0.43328   0.40008   0.00000  Uiso   1.00
C981   C     0.83746   0.42016   0.50090   0.00000  Uiso   1.00
C982   C     0.83353   0.58007   0.49942   0.00000  Uiso   1.00
C983   C     0.73394   0.49572   0.48866   0.00000  Uiso   1.00
C984   C     0.93229   0.49628   0.51175   0.00000  Uiso   1.00
C985   C     0.67920   0.48570   0.48312   0.00000  Uiso   1.00
C986   C     0.98594   0.48604   0.51905   0.00000  Uiso   1.00
C987   C     0.85655   0.35662   0.46318   0.00000  Uiso   1.00
C988   C     0.82339   0.64441   0.53662   0.00000  Uiso   1.00
C989   C     0.85690   0.64713   0.46314   0.00000  Uiso   1.00
C990   C     0.83957   0.35265   0.54200   0.00000  Uiso   1.00
C991   C     0.83689   0.62456   0.49873   0.00000  Uiso   1.00
C992   C     0.84482   0.37603   0.50226   0.00000  Uiso   1.00
C993   C     0.87180   0.52188   0.36189   0.00000  Uiso   1.00
C994   C     0.79672   0.47749   0.63856   0.00000  Uiso   1.00
C995   C     0.87067   0.52274   0.64640   0.00000  Uiso   1.00
C996   C     0.79472   0.47916   0.35271   0.00000  Uiso   1.00
N997   N     0.83332   0.49999   0.61907   0.00000  Uiso   1.00
N998   N     0.83335   0.50001   0.38093   0.00000  Uiso   1.00
O999   O     0.83333   0.43892   0.53821   0.00000  Uiso   1.00
O1000  O     0.83334   0.56108   0.46179   0.00000  Uiso   1.00
O1001  O     0.83333   0.43893   0.46176   0.00000  Uiso   1.00
O1002  O     0.83334   0.56107   0.53824   0.00000  Uiso   1.00
O1003  O     0.75725   0.50000   0.52928   0.00000  Uiso   1.00
O1004  O     0.90942   0.50000   0.47072   0.00000  Uiso   1.00
O1005  O     0.75725   0.50000   0.45284   0.00000  Uiso   1.00
O1006  O     0.90942   0.50000   0.54716   0.00000  Uiso   1.00
Zn1007 Zn    0.83333   0.49999   0.55104   0.00000  Uiso   1.00
Zn1008 Zn    0.83333   0.50001   0.44896   0.00000  Uiso   1.00
O1009  O     0.98876   0.47560   0.44007   0.00000  Uiso   1.00
C1010  C     0.97849   0.43251   0.43896   0.00000  Uiso   1.00
H1011  H     0.68136   0.41544   0.44738   0.00000  Uiso   1.00
H1012  H     0.96080   0.42402   0.40418   0.00000  Uiso   1.00
H1013  H     0.95088   0.42264   0.46308   0.00000  Uiso   1.00
O1014  O     0.67575   0.47633   0.56269   0.00000  Uiso   1.00
C1015  C     0.98051   0.44289   0.58111   0.00000  Uiso   1.00
H1016  H     0.67301   0.42424   0.60480   0.00000  Uiso   1.00
H1017  H     0.96110   0.42113   0.55490   0.00000  Uiso   1.00
H1018  H     0.95214   0.45453   0.60202   0.00000  Uiso   1.00
O1019  O     0.87678   0.37986   0.42928   0.00000  Uiso   1.00
C1020  C     0.84392   0.37687   0.38761   0.00000  Uiso   1.00
H1021  H     0.84267   0.40799   0.37184   0.00000  Uiso   1.00
H1022  H     0.80325   0.36544   0.39060   0.00000  Uiso   1.00
H1023  H     0.86122   0.35713   0.36418   0.00000  Uiso   1.00
O1024  O     0.78149   0.62663   0.55641   0.00000  Uiso   1.00
C1025  C     0.78623   0.63140   0.60373   0.00000  Uiso   1.00
H1026  H     0.82092   0.61646   0.62109   0.00000  Uiso   1.00
H1027  H     0.75196   0.61543   0.61624   0.00000  Uiso   1.00
H1028  H     0.78592   0.66406   0.61318   0.00000  Uiso   1.00
C1029  C     0.87790   0.62736   0.42568   0.00000  Uiso   1.00
H1030  H     0.91951   0.62427   0.42721   0.00000  Uiso   1.00
O1031  O     0.84863   0.61571   0.39234   0.00000  Uiso   1.00
C1032  C     0.87300   0.36532   0.58450   0.00000  Uiso   1.00
H1033  H     0.88621   0.39713   0.58991   0.00000  Uiso   1.00
O1034  O     0.88908   0.33996   0.61323   0.00000  Uiso   1.00
O1035  O     0.90570   0.54690   0.39093   0.00000  Uiso   1.00
C1036  C     0.95815   0.54672   0.38312   0.00000  Uiso   1.00
H1037  H     0.96798   0.57413   0.36238   0.00000  Uiso   1.00
H1038  H     0.96816   0.51770   0.36764   0.00000  Uiso   1.00
H1039  H     0.98313   0.55054   0.41612   0.00000  Uiso   1.00
O1040  O     0.76131   0.45351   0.61091   0.00000  Uiso   1.00
C1041  C     0.77235   0.41161   0.61788   0.00000  Uiso   1.00
H1042  H     0.75038   0.39750   0.64439   0.00000  Uiso   1.00
H1043  H     0.81430   0.40665   0.62744   0.00000  Uiso   1.00
H1044  H     0.75919   0.39525   0.58573   0.00000  Uiso   1.00
C1045  C     0.90936   0.54787   0.62457   0.00000  Uiso   1.00
H1046  H     0.94486   0.53434   0.61783   0.00000  Uiso   1.00
O1047  O     0.90335   0.58435   0.61605   0.00000  Uiso   1.00
C1048  C     0.74883   0.45933   0.36993   0.00000  Uiso   1.00
H1049  H     0.71022   0.46578   0.35333   0.00000  Uiso   1.00
O1050  O     0.75340   0.43328   0.40008   0.00000  Uiso   1.00
C1051  C     0.17080   0.75349   0.50090   0.00000  Uiso   1.00
C1052  C     0.16687   0.91340   0.49942   0.00000  Uiso   1.00
C1053  C     0.06727   0.82906   0.48866   0.00000  Uiso   1.00
C1054  C     0.26562   0.82961   0.51175   0.00000  Uiso   1.00
C1055  C     0.01253   0.81904   0.48312   0.00000  Uiso   1.00
C1056  C     0.31927   0.81937   0.51905   0.00000  Uiso   1.00
C1057  C     0.18989   0.68995   0.46318   0.00000  Uiso   1.00
C1058  C     0.15673   0.97774   0.53662   0.00000  Uiso   1.00
C1059  C     0.19023   0.98046   0.46314   0.00000  Uiso   1.00
C1060  C     0.17290   0.68598   0.54200   0.00000  Uiso   1.00
C1061  C     0.17022   0.95790   0.49873   0.00000  Uiso   1.00
C1062  C     0.17816   0.70936   0.50226   0.00000  Uiso   1.00
C1063  C     0.20513   0.85521   0.36189   0.00000  Uiso   1.00
C1064  C     0.13005   0.81082   0.63856   0.00000  Uiso   1.00
C1065  C     0.20401   0.85607   0.64640   0.00000  Uiso   1.00
C1066  C     0.12805   0.81249   0.35271   0.00000  Uiso   1.00
N1067  N     0.16665   0.83332   0.61907   0.00000  Uiso   1.00
N1068  N     0.16668   0.83334   0.38093   0.00000  Uiso   1.00
O1069  O     0.16666   0.77225   0.53821   0.00000  Uiso   1.00
O1070  O     0.16667   0.89442   0.46179   0.00000  Uiso   1.00
O1071  O     0.16666   0.77226   0.46176   0.00000  Uiso   1.00
O1072  O     0.16667   0.89441   0.53824   0.00000  Uiso   1.00
O1073  O     0.09058   0.83333   0.52928   0.00000  Uiso   1.00
O1074  O     0.24275   0.83334   0.47072   0.00000  Uiso   1.00
O1075  O     0.09058   0.83334   0.45284   0.00000  Uiso   1.00
O1076  O     0.24275   0.83333   0.54716   0.00000  Uiso   1.00
Zn1077 Zn    0.16667   0.83333   0.55104   0.00000  Uiso   1.00
Zn1078 Zn    0.16667   0.83334   0.44896   0.00000  Uiso   1.00
O1079  O     0.32209   0.80894   0.44007   0.00000  Uiso   1.00
C1080  C     0.31182   0.76585   0.43896   0.00000  Uiso   1.00
H1081  H     0.01469   0.74878   0.44738   0.00000  Uiso   1.00
H1082  H     0.29414   0.75735   0.40418   0.00000  Uiso   1.00
H1083  H     0.28421   0.75597   0.46308   0.00000  Uiso   1.00
O1084  O     0.00909   0.80966   0.56269   0.00000  Uiso   1.00
C1085  C     0.31385   0.77622   0.58111   0.00000  Uiso   1.00
H1086  H     0.00634   0.75758   0.60480   0.00000  Uiso   1.00
H1087  H     0.29443   0.75446   0.55490   0.00000  Uiso   1.00
H1088  H     0.28548   0.78787   0.60202   0.00000  Uiso   1.00
O1089  O     0.21011   0.71319   0.42928   0.00000  Uiso   1.00
C1090  C     0.17726   0.71020   0.38761   0.00000  Uiso   1.00
H1091  H     0.17601   0.74132   0.37184   0.00000  Uiso   1.00
H1092  H     0.13658   0.69878   0.39060   0.00000  Uiso   1.00
H1093  H     0.19456   0.69046   0.36418   0.00000  Uiso   1.00
O1094  O     0.11482   0.95996   0.55641   0.00000  Uiso   1.00
C1095  C     0.11957   0.96473   0.60373   0.00000  Uiso   1.00
H1096  H     0.15425   0.94979   0.62109   0.00000  Uiso   1.00
H1097  H     0.08529   0.94877   0.61624   0.00000  Uiso   1.00
H1098  H     0.11925   0.99739   0.61318   0.00000  Uiso   1.00
C1099  C     0.21123   0.96069   0.42568   0.00000  Uiso   1.00
H1100  H     0.25284   0.95760   0.42721   0.00000  Uiso   1.00
O1101  O     0.18196   0.94905   0.39234   0.00000  Uiso   1.00
C1102  C     0.20633   0.69866   0.58450   0.00000  Uiso   1.00
H1103  H     0.21955   0.73046   0.58991   0.00000  Uiso   1.00
O1104  O     0.22242   0.67329   0.61323   0.00000  Uiso   1.00
O1105  O     0.23903   0.88024   0.39093   0.00000  Uiso   1.00
C1106  C     0.29148   0.88005   0.38312   0.00000  Uiso   1.00
H1107  H     0.30131   0.90746   0.36238   0.00000  Uiso   1.00
H1108  H     0.30150   0.85103   0.36764   0.00000  Uiso   1.00
H1109  H     0.31647   0.88387   0.41612   0.00000  Uiso   1.00
O1110  O     0.09464   0.78685   0.61091   0.00000  Uiso   1.00
C1111  C     0.10568   0.74494   0.61788   0.00000  Uiso   1.00
H1112  H     0.08371   0.73084   0.64439   0.00000  Uiso   1.00
H1113  H     0.14763   0.73998   0.62744   0.00000  Uiso   1.00
H1114  H     0.09252   0.72859   0.58573   0.00000  Uiso   1.00
C1115  C     0.24269   0.88120   0.62457   0.00000  Uiso   1.00
H1116  H     0.27820   0.86767   0.61783   0.00000  Uiso   1.00
O1117  O     0.23668   0.91768   0.61605   0.00000  Uiso   1.00
C1118  C     0.08216   0.79266   0.36993   0.00000  Uiso   1.00
H1119  H     0.04355   0.79911   0.35333   0.00000  Uiso   1.00
O1120  O     0.08673   0.76661   0.40008   0.00000  Uiso   1.00
C1121  C     0.50413   0.75349   0.50090   0.00000  Uiso   1.00
C1122  C     0.50020   0.91340   0.49942   0.00000  Uiso   1.00
C1123  C     0.40060   0.82906   0.48866   0.00000  Uiso   1.00
C1124  C     0.59895   0.82961   0.51175   0.00000  Uiso   1.00
C1125  C     0.34586   0.81904   0.48312   0.00000  Uiso   1.00
C1126  C     0.65260   0.81937   0.51905   0.00000  Uiso   1.00
C1127  C     0.52322   0.68995   0.46318   0.00000  Uiso   1.00
C1128  C     0.49006   0.97774   0.53662   0.00000  Uiso   1.00
C1129  C     0.52356   0.98046   0.46314   0.00000  Uiso   1.00
C1130  C     0.50624   0.68598   0.54200   0.00000  Uiso   1.00
C1131  C     0.50355   0.95790   0.49873   0.00000  Uiso   1.00
C1132  C     0.51149   0.70936   0.50226   0.00000  Uiso   1.00
C1133  C     0.53846   0.85521   0.36189   0.00000  Uiso   1.00
C1134  C     0.46338   0.81082   0.63856   0.00000  Uiso   1.00
C1135  C     0.53734   0.85607   0.64640   0.00000  Uiso   1.00
C1136  C     0.46139   0.81249   0.35271   0.00000  Uiso   1.00
N1137  N     0.49999   0.83332   0.61907   0.00000  Uiso   1.00
N1138  N     0.50001   0.83334   0.38093   0.00000  Uiso   1.00
O1139  O     0.50000   0.77225   0.53821   0.00000  Uiso   1.00
O1140  O     0.50000   0.89442   0.46179   0.00000  Uiso   1.00
O1141  O     0.50000   0.77226   0.46176   0.00000  Uiso   1.00
O1142  O     0.50000   0.89441   0.53824   0.00000  Uiso   1.00
O1143  O     0.42392   0.83333   0.52928   0.00000  Uiso   1.00
O1144  O     0.57608   0.83334   0.47072   0.00000  Uiso   1.00
O1145  O     0.42392   0.83334   0.45284   0.00000  Uiso   1.00
O1146  O     0.57608   0.83333   0.54716   0.00000  Uiso   1.00
Zn1147 Zn    0.50000   0.83333   0.55104   0.00000  Uiso   1.00
Zn1148 Zn    0.50000   0.83334   0.44896   0.00000  Uiso   1.00
O1149  O     0.65543   0.80894   0.44007   0.00000  Uiso   1.00
C1150  C     0.64515   0.76585   0.43896   0.00000  Uiso   1.00
H1151  H     0.34802   0.74878   0.44738   0.00000  Uiso   1.00
H1152  H     0.62747   0.75735   0.40418   0.00000  Uiso   1.00
H1153  H     0.61754   0.75597   0.46308   0.00000  Uiso   1.00
O1154  O     0.34242   0.80966   0.56269   0.00000  Uiso   1.00
C1155  C     0.64718   0.77622   0.58111   0.00000  Uiso   1.00
H1156  H     0.33968   0.75758   0.60480   0.00000  Uiso   1.00
H1157  H     0.62776   0.75446   0.55490   0.00000  Uiso   1.00
H1158  H     0.61881   0.78787   0.60202   0.00000  Uiso   1.00
O1159  O     0.54344   0.71319   0.42928   0.00000  Uiso   1.00
C1160  C     0.51059   0.71020   0.38761   0.00000  Uiso   1.00
H1161  H     0.50934   0.74132   0.37184   0.00000  Uiso   1.00
H1162  H     0.46991   0.69878   0.39060   0.00000  Uiso   1.00
H1163  H     0.52789   0.69046   0.36418   0.00000  Uiso   1.00
O1164  O     0.44816   0.95996   0.55641   0.00000  Uiso   1.00
C1165  C     0.45290   0.96473   0.60373   0.00000  Uiso   1.00
H1166  H     0.48759   0.94979   0.62109   0.00000  Uiso   1.00
H1167  H     0.41862   0.94877   0.61624   0.00000  Uiso   1.00
H1168  H     0.45259   0.99739   0.61318   0.00000  Uiso   1.00
C1169  C     0.54456   0.96069   0.42568   0.00000  Uiso   1.00
H1170  H     0.58618   0.95760   0.42721   0.00000  Uiso   1.00
O1171  O     0.51530   0.94905   0.39234   0.00000  Uiso   1.00
C1172  C     0.53966   0.69866   0.58450   0.00000  Uiso   1.00
H1173  H     0.55288   0.73046   0.58991   0.00000  Uiso   1.00
O1174  O     0.55575   0.67329   0.61323   0.00000  Uiso   1.00
O1175  O     0.57237   0.88024   0.39093   0.00000  Uiso   1.00
C1176  C     0.62481   0.88005   0.38312   0.00000  Uiso   1.00
H1177  H     0.63465   0.90746   0.36238   0.00000  Uiso   1.00
H1178  H     0.63483   0.85103   0.36764   0.00000  Uiso   1.00
H1179  H     0.64980   0.88387   0.41612   0.00000  Uiso   1.00
O1180  O     0.42798   0.78685   0.61091   0.00000  Uiso   1.00
C1181  C     0.43901   0.74494   0.61788   0.00000  Uiso   1.00
H1182  H     0.41705   0.73084   0.64439   0.00000  Uiso   1.00
H1183  H     0.48096   0.73998   0.62744   0.00000  Uiso   1.00
H1184  H     0.42585   0.72859   0.58573   0.00000  Uiso   1.00
C1185  C     0.57603   0.88120   0.62457   0.00000  Uiso   1.00
H1186  H     0.61153   0.86767   0.61783   0.00000  Uiso   1.00
O1187  O     0.57001   0.91768   0.61605   0.00000  Uiso   1.00
C1188  C     0.41550   0.79266   0.36993   0.00000  Uiso   1.00
H1189  H     0.37689   0.79911   0.35333   0.00000  Uiso   1.00
O1190  O     0.42006   0.76661   0.40008   0.00000  Uiso   1.00
C1191  C     0.83746   0.75349   0.50090   0.00000  Uiso   1.00
C1192  C     0.83353   0.91340   0.49942   0.00000  Uiso   1.00
C1193  C     0.73394   0.82906   0.48866   0.00000  Uiso   1.00
C1194  C     0.93229   0.82961   0.51175   0.00000  Uiso   1.00
C1195  C     0.67920   0.81904   0.48312   0.00000  Uiso   1.00
C1196  C     0.98594   0.81937   0.51905   0.00000  Uiso   1.00
C1197  C     0.85655   0.68995   0.46318   0.00000  Uiso   1.00
C1198  C     0.82339   0.97774   0.53662   0.00000  Uiso   1.00
C1199  C     0.85690   0.98046   0.46314   0.00000  Uiso   1.00
C1200  C     0.83957   0.68598   0.54200   0.00000  Uiso   1.00
C1201  C     0.83689   0.95790   0.49873   0.00000  Uiso   1.00
C1202  C     0.84482   0.70936   0.50226   0.00000  Uiso   1.00
C1203  C     0.87180   0.85521   0.36189   0.00000  Uiso   1.00
C1204  C     0.79672   0.81082   0.63856   0.00000  Uiso   1.00
C1205  C     0.87067   0.85607   0.64640   0.00000  Uiso   1.00
C1206  C     0.79472   0.81249   0.35271   0.00000  Uiso   1.00
N1207  N     0.83332   0.83332   0.61907   0.00000  Uiso   1.00
N1208  N     0.83335   0.83334   0.38093   0.00000  Uiso   1.00
O1209  O     0.83333   0.77225   0.53821   0.00000  Uiso   1.00
O1210  O     0.83334   0.89442   0.46179   0.00000  Uiso   1.00
O1211  O     0.83333   0.77226   0.46176   0.00000  Uiso   1.00
O1212  O     0.83334   0.89441   0.53824   0.00000  Uiso   1.00
O1213  O     0.75725   0.83333   0.52928   0.00000  Uiso   1.00
O1214  O     0.90942   0.83334   0.47072   0.00000  Uiso   1.00
O1215  O     0.75725   0.83334   0.45284   0.00000  Uiso   1.00
O1216  O     0.90942   0.83333   0.54716   0.00000  Uiso   1.00
Zn1217 Zn    0.83333   0.83333   0.55104   0.00000  Uiso   1.00
Zn1218 Zn    0.83333   0.83334   0.44896   0.00000  Uiso   1.00
O1219  O     0.98876   0.80894   0.44007   0.00000  Uiso   1.00
C1220  C     0.97849   0.76585   0.43896   0.00000  Uiso   1.00
H1221  H     0.68136   0.74878   0.44738   0.00000  Uiso   1.00
H1222  H     0.96080   0.75735   0.40418   0.00000  Uiso   1.00
H1223  H     0.95088   0.75597   0.46308   0.00000  Uiso   1.00
O1224  O     0.67575   0.80966   0.56269   0.00000  Uiso   1.00
C1225  C     0.98051   0.77622   0.58111   0.00000  Uiso   1.00
H1226  H     0.67301   0.75758   0.60480   0.00000  Uiso   1.00
H1227  H     0.96110   0.75446   0.55490   0.00000  Uiso   1.00
H1228  H     0.95214   0.78787   0.60202   0.00000  Uiso   1.00
O1229  O     0.87678   0.71319   0.42928   0.00000  Uiso   1.00
C1230  C     0.84392   0.71020   0.38761   0.00000  Uiso   1.00
H1231  H     0.84267   0.74132   0.37184   0.00000  Uiso   1.00
H1232  H     0.80325   0.69878   0.39060   0.00000  Uiso   1.00
H1233  H     0.86122   0.69046   0.36418   0.00000  Uiso   1.00
O1234  O     0.78149   0.95996   0.55641   0.00000  Uiso   1.00
C1235  C     0.78623   0.96473   0.60373   0.00000  Uiso   1.00
H1236  H     0.82092   0.94979   0.62109   0.00000  Uiso   1.00
H1237  H     0.75196   0.94877   0.61624   0.00000  Uiso   1.00
H1238  H     0.78592   0.99739   0.61318   0.00000  Uiso   1.00
C1239  C     0.87790   0.96069   0.42568   0.00000  Uiso   1.00
H1240  H     0.91951   0.95760   0.42721   0.00000  Uiso   1.00
O1241  O     0.84863   0.94905   0.39234   0.00000  Uiso   1.00
C1242  C     0.87300   0.69866   0.58450   0.00000  Uiso   1.00
H1243  H     0.88621   0.73046   0.58991   0.00000  Uiso   1.00
O1244  O     0.88908   0.67329   0.61323   0.00000  Uiso   1.00
O1245  O     0.90570   0.88024   0.39093   0.00000  Uiso   1.00
C1246  C     0.95815   0.88005   0.38312   0.00000  Uiso   1.00
H1247  H     0.96798   0.90746   0.36238   0.00000  Uiso   1.00
H1248  H     0.96816   0.85103   0.36764   0.00000  Uiso   1.00
H1249  H     0.98313   0.88387   0.41612   0.00000  Uiso   1.00
O1250  O     0.76131   0.78685   0.61091   0.00000  Uiso   1.00
C1251  C     0.77235   0.74494   0.61788   0.00000  Uiso   1.00
H1252  H     0.75038   0.73084   0.64439   0.00000  Uiso   1.00
H1253  H     0.81430   0.73998   0.62744   0.00000  Uiso   1.00
H1254  H     0.75919   0.72859   0.58573   0.00000  Uiso   1.00
C1255  C     0.90936   0.88120   0.62457   0.00000  Uiso   1.00
H1256  H     0.94486   0.86767   0.61783   0.00000  Uiso   1.00
O1257  O     0.90335   0.91768   0.61605   0.00000  Uiso   1.00
C1258  C     0.74883   0.79266   0.36993   0.00000  Uiso   1.00
H1259  H     0.71022   0.79911   0.35333   0.00000  Uiso   1.00
O1260  O     0.75340   0.76661   0.40008   0.00000  Uiso   1.00
C1261  C     0.17080   0.08682   0.83423   0.00000  Uiso   1.00
C1262  C     0.16687   0.24673   0.83276   0.00000  Uiso   1.00
C1263  C     0.06727   0.16239   0.82199   0.00000  Uiso   1.00
C1264  C     0.26562   0.16294   0.84508   0.00000  Uiso   1.00
C1265  C     0.01253   0.15237   0.81645   0.00000  Uiso   1.00
C1266  C     0.31927   0.15271   0.85238   0.00000  Uiso   1.00
C1267  C     0.18989   0.02328   0.79651   0.00000  Uiso   1.00
C1268  C     0.15673   0.31108   0.86995   0.00000  Uiso   1.00
C1269  C     0.19023   0.31380   0.79648   0.00000  Uiso   1.00
C1270  C     0.17290   0.01931   0.87534   0.00000  Uiso   1.00
C1271  C     0.17022   0.29123   0.83206   0.00000  Uiso   1.00
C1272  C     0.17816   0.04270   0.83560   0.00000  Uiso   1.00
C1273  C     0.20513   0.18854   0.69522   0.00000  Uiso   1.00
C1274  C     0.13005   0.14416   0.97189   0.00000  Uiso   1.00
C1275  C     0.20401   0.18941   0.97973   0.00000  Uiso   1.00
C1276  C     0.12805   0.14583   0.68604   0.00000  Uiso   1.00
N1277  N     0.16665   0.16666   0.95240   0.00000  Uiso   1.00
N1278  N     0.16668   0.16668   0.71427   0.00000  Uiso   1.00
O1279  O     0.16666   0.10558   0.87154   0.00000  Uiso   1.00
O1280  O     0.16667   0.22775   0.79513   0.00000  Uiso   1.00
O1281  O     0.16666   0.10559   0.79510   0.00000  Uiso   1.00
O1282  O     0.16667   0.22774   0.87157   0.00000  Uiso   1.00
O1283  O     0.09058   0.16666   0.86261   0.00000  Uiso   1.00
O1284  O     0.24275   0.16667   0.80405   0.00000  Uiso   1.00
O1285  O     0.09058   0.16667   0.78617   0.00000  Uiso   1.00
O1286  O     0.24275   0.16666   0.88050   0.00000  Uiso   1.00
Zn1287 Zn    0.16667   0.16666   0.88437   0.00000  Uiso   1.00
Zn1288 Zn    0.16667   0.16667   0.78229   0.00000  Uiso   1.00
O1289  O     0.32209   0.14227   0.77340   0.00000  Uiso   1.00
C1290  C     0.31182   0.09918   0.77229   0.00000  Uiso   1.00
H1291  H     0.01469   0.08211   0.78071   0.00000  Uiso   1.00
H1292  H     0.29414   0.09069   0.73751   0.00000  Uiso   1.00
H1293  H     0.28421   0.08931   0.79641   0.00000  Uiso   1.00
O1294  O     0.00909   0.14299   0.89603   0.00000  Uiso   1.00
C1295  C     0.31385   0.10956   0.91445   0.00000  Uiso   1.00
H1296  H     0.00634   0.09091   0.93814   0.00000  Uiso   1.00
H1297  H     0.29443   0.08780   0.88823   0.00000  Uiso   1.00
H1298  H     0.28548   0.12120   0.93535   0.00000  Uiso   1.00
O1299  O     0.21011   0.04652   0.76262   0.00000  Uiso   1.00
C1300  C     0.17726   0.04353   0.72094   0.00000  Uiso   1.00
H1301  H     0.17601   0.07466   0.70517   0.00000  Uiso   1.00
H1302  H     0.13658   0.03211   0.72394   0.00000  Uiso   1.00
H1303  H     0.19456   0.02379   0.69752   0.00000  Uiso   1.00
O1304  O     0.11482   0.29329   0.88975   0.00000  Uiso   1.00
C1305  C     0.11957   0.29807   0.93706   0.00000  Uiso   1.00
H1306  H     0.15425   0.28312   0.95442   0.00000  Uiso   1.00
H1307  H     0.08529   0.28210   0.94958   0.00000  Uiso   1.00
H1308  H     0.11925   0.33072   0.94651   0.00000  Uiso   1.00
C1309  C     0.21123   0.29403   0.75902   0.00000  Uiso   1.00
H1310  H     0.25284   0.29094   0.76054   0.00000  Uiso   1.00
O1311  O     0.18196   0.28238   0.72567   0.00000  Uiso   1.00
C1312  C     0.20633   0.03199   0.91784   0.00000  Uiso   1.00
H1313  H     0.21955   0.06379   0.92325   0.00000  Uiso   1.00
O1314  O     0.22242   0.00663   0.94657   0.00000  Uiso   1.00
O1315  O     0.23903   0.21357   0.72426   0.00000  Uiso   1.00
C1316  C     0.29148   0.21338   0.71646   0.00000  Uiso   1.00
H1317  H     0.30131   0.24080   0.69571   0.00000  Uiso   1.00
H1318  H     0.30150   0.18437   0.70098   0.00000  Uiso   1.00
H1319  H     0.31647   0.21720   0.74945   0.00000  Uiso   1.00
O1320  O     0.09464   0.12018   0.94424   0.00000  Uiso   1.00
C1321  C     0.10568   0.07827   0.95122   0.00000  Uiso   1.00
H1322  H     0.08371   0.06417   0.97773   0.00000  Uiso   1.00
H1323  H     0.14763   0.07332   0.96078   0.00000  Uiso   1.00
H1324  H     0.09252   0.06192   0.91907   0.00000  Uiso   1.00
C1325  C     0.24269   0.21453   0.95790   0.00000  Uiso   1.00
H1326  H     0.27820   0.20100   0.95117   0.00000  Uiso   1.00
O1327  O     0.23668   0.25102   0.94939   0.00000  Uiso   1.00
C1328  C     0.08216   0.12599   0.70327   0.00000  Uiso   1.00
H1329  H     0.04355   0.13245   0.68666   0.00000  Uiso   1.00
O1330  O     0.08673   0.09995   0.73341   0.00000  Uiso   1.00
C1331  C     0.50413   0.08682   0.83423   0.00000  Uiso   1.00
C1332  C     0.50020   0.24673   0.83276   0.00000  Uiso   1.00
C1333  C     0.40060   0.16239   0.82199   0.00000  Uiso   1.00
C1334  C     0.59895   0.16294   0.84508   0.00000  Uiso   1.00
C1335  C     0.34586   0.15237   0.81645   0.00000  Uiso   1.00
C1336  C     0.65260   0.15271   0.85238   0.00000  Uiso   1.00
C1337  C     0.52322   0.02328   0.79651   0.00000  Uiso   1.00
C1338  C     0.49006   0.31108   0.86995   0.00000  Uiso   1.00
C1339  C     0.52356   0.31380   0.79648   0.00000  Uiso   1.00
C1340  C     0.50624   0.01931   0.87534   0.00000  Uiso   1.00
C1341  C     0.50355   0.29123   0.83206   0.00000  Uiso   1.00
C1342  C     0.51149   0.04270   0.83560   0.00000  Uiso   1.00
C1343  C     0.53846   0.18854   0.69522   0.00000  Uiso   1.00
C1344  C     0.46338   0.14416   0.97189   0.00000  Uiso   1.00
C1345  C     0.53734   0.18941   0.97973   0.00000  Uiso   1.00
C1346  C     0.46139   0.14583   0.68604   0.00000  Uiso   1.00
N1347  N     0.49999   0.16666   0.95240   0.00000  Uiso   1.00
N1348  N     0.50001   0.16668   0.71427   0.00000  Uiso   1.00
O1349  O     0.50000   0.10558   0.87154   0.00000  Uiso   1.00
O1350  O     0.50000   0.22775   0.79513   0.00000  Uiso   1.00
O1351  O     0.50000   0.10559   0.79510   0.00000  Uiso   1.00
O1352  O     0.50000   0.22774   0.87157   0.00000  Uiso   1.00
O1353  O     0.42392   0.16666   0.86261   0.00000  Uiso   1.00
O1354  O     0.57608   0.16667   0.80405   0.00000  Uiso   1.00
O1355  O     0.42392   0.16667   0.78617   0.00000  Uiso   1.00
O1356  O     0.57608   0.16666   0.88050   0.00000  Uiso   1.00
Zn1357 Zn    0.50000   0.16666   0.88437   0.00000  Uiso   1.00
Zn1358 Zn    0.50000   0.16667   0.78229   0.00000  Uiso   1.00
O1359  O     0.65543   0.14227   0.77340   0.00000  Uiso   1.00
C1360  C     0.64515   0.09918   0.77229   0.00000  Uiso   1.00
H1361  H     0.34802   0.08211   0.78071   0.00000  Uiso   1.00
H1362  H     0.62747   0.09069   0.73751   0.00000  Uiso   1.00
H1363  H     0.61754   0.08931   0.79641   0.00000  Uiso   1.00
O1364  O     0.34242   0.14299   0.89603   0.00000  Uiso   1.00
C1365  C     0.64718   0.10956   0.91445   0.00000  Uiso   1.00
H1366  H     0.33968   0.09091   0.93814   0.00000  Uiso   1.00
H1367  H     0.62776   0.08780   0.88823   0.00000  Uiso   1.00
H1368  H     0.61881   0.12120   0.93535   0.00000  Uiso   1.00
O1369  O     0.54344   0.04652   0.76262   0.00000  Uiso   1.00
C1370  C     0.51059   0.04353   0.72094   0.00000  Uiso   1.00
H1371  H     0.50934   0.07466   0.70517   0.00000  Uiso   1.00
H1372  H     0.46991   0.03211   0.72394   0.00000  Uiso   1.00
H1373  H     0.52789   0.02379   0.69752   0.00000  Uiso   1.00
O1374  O     0.44816   0.29329   0.88975   0.00000  Uiso   1.00
C1375  C     0.45290   0.29807   0.93706   0.00000  Uiso   1.00
H1376  H     0.48759   0.28312   0.95442   0.00000  Uiso   1.00
H1377  H     0.41862   0.28210   0.94958   0.00000  Uiso   1.00
H1378  H     0.45259   0.33072   0.94651   0.00000  Uiso   1.00
C1379  C     0.54456   0.29403   0.75902   0.00000  Uiso   1.00
H1380  H     0.58618   0.29094   0.76054   0.00000  Uiso   1.00
O1381  O     0.51530   0.28238   0.72567   0.00000  Uiso   1.00
C1382  C     0.53966   0.03199   0.91784   0.00000  Uiso   1.00
H1383  H     0.55288   0.06379   0.92325   0.00000  Uiso   1.00
O1384  O     0.55575   0.00663   0.94657   0.00000  Uiso   1.00
O1385  O     0.57237   0.21357   0.72426   0.00000  Uiso   1.00
C1386  C     0.62481   0.21338   0.71646   0.00000  Uiso   1.00
H1387  H     0.63465   0.24080   0.69571   0.00000  Uiso   1.00
H1388  H     0.63483   0.18437   0.70098   0.00000  Uiso   1.00
H1389  H     0.64980   0.21720   0.74945   0.00000  Uiso   1.00
O1390  O     0.42798   0.12018   0.94424   0.00000  Uiso   1.00
C1391  C     0.43901   0.07827   0.95122   0.00000  Uiso   1.00
H1392  H     0.41705   0.06417   0.97773   0.00000  Uiso   1.00
H1393  H     0.48096   0.07332   0.96078   0.00000  Uiso   1.00
H1394  H     0.42585   0.06192   0.91907   0.00000  Uiso   1.00
C1395  C     0.57603   0.21453   0.95790   0.00000  Uiso   1.00
H1396  H     0.61153   0.20100   0.95117   0.00000  Uiso   1.00
O1397  O     0.57001   0.25102   0.94939   0.00000  Uiso   1.00
C1398  C     0.41550   0.12599   0.70327   0.00000  Uiso   1.00
H1399  H     0.37689   0.13245   0.68666   0.00000  Uiso   1.00
O1400  O     0.42006   0.09995   0.73341   0.00000  Uiso   1.00
C1401  C     0.83746   0.08682   0.83423   0.00000  Uiso   1.00
C1402  C     0.83353   0.24673   0.83276   0.00000  Uiso   1.00
C1403  C     0.73394   0.16239   0.82199   0.00000  Uiso   1.00
C1404  C     0.93229   0.16294   0.84508   0.00000  Uiso   1.00
C1405  C     0.67920   0.15237   0.81645   0.00000  Uiso   1.00
C1406  C     0.98594   0.15271   0.85238   0.00000  Uiso   1.00
C1407  C     0.85655   0.02328   0.79651   0.00000  Uiso   1.00
C1408  C     0.82339   0.31108   0.86995   0.00000  Uiso   1.00
C1409  C     0.85690   0.31380   0.79648   0.00000  Uiso   1.00
C1410  C     0.83957   0.01931   0.87534   0.00000  Uiso   1.00
C1411  C     0.83689   0.29123   0.83206   0.00000  Uiso   1.00
C1412  C     0.84482   0.04270   0.83560   0.00000  Uiso   1.00
C1413  C     0.87180   0.18854   0.69522   0.00000  Uiso   1.00
C1414  C     0.79672   0.14416   0.97189   0.00000  Uiso   1.00
C1415  C     0.87067   0.18941   0.97973   0.00000  Uiso   1.00
C1416  C     0.79472   0.14583   0.68604   0.00000  Uiso   1.00
N1417  N     0.83332   0.16666   0.95240   0.00000  Uiso   1.00
N1418  N     0.83335   0.16668   0.71427   0.00000  Uiso   1.00
O1419  O     0.83333   0.10558   0.87154   0.00000  Uiso   1.00
O1420  O     0.83334   0.22775   0.79513   0.00000  Uiso   1.00
O1421  O     0.83333   0.10559   0.79510   0.00000  Uiso   1.00
O1422  O     0.83334   0.22774   0.87157   0.00000  Uiso   1.00
O1423  O     0.75725   0.16666   0.86261   0.00000  Uiso   1.00
O1424  O     0.90942   0.16667   0.80405   0.00000  Uiso   1.00
O1425  O     0.75725   0.16667   0.78617   0.00000  Uiso   1.00
O1426  O     0.90942   0.16666   0.88050   0.00000  Uiso   1.00
Zn1427 Zn    0.83333   0.16666   0.88437   0.00000  Uiso   1.00
Zn1428 Zn    0.83333   0.16667   0.78229   0.00000  Uiso   1.00
O1429  O     0.98876   0.14227   0.77340   0.00000  Uiso   1.00
C1430  C     0.97849   0.09918   0.77229   0.00000  Uiso   1.00
H1431  H     0.68136   0.08211   0.78071   0.00000  Uiso   1.00
H1432  H     0.96080   0.09069   0.73751   0.00000  Uiso   1.00
H1433  H     0.95088   0.08931   0.79641   0.00000  Uiso   1.00
O1434  O     0.67575   0.14299   0.89603   0.00000  Uiso   1.00
C1435  C     0.98051   0.10956   0.91445   0.00000  Uiso   1.00
H1436  H     0.67301   0.09091   0.93814   0.00000  Uiso   1.00
H1437  H     0.96110   0.08780   0.88823   0.00000  Uiso   1.00
H1438  H     0.95214   0.12120   0.93535   0.00000  Uiso   1.00
O1439  O     0.87678   0.04652   0.76262   0.00000  Uiso   1.00
C1440  C     0.84392   0.04353   0.72094   0.00000  Uiso   1.00
H1441  H     0.84267   0.07466   0.70517   0.00000  Uiso   1.00
H1442  H     0.80325   0.03211   0.72394   0.00000  Uiso   1.00
H1443  H     0.86122   0.02379   0.69752   0.00000  Uiso   1.00
O1444  O     0.78149   0.29329   0.88975   0.00000  Uiso   1.00
C1445  C     0.78623   0.29807   0.93706   0.00000  Uiso   1.00
H1446  H     0.82092   0.28312   0.95442   0.00000  Uiso   1.00
H1447  H     0.75196   0.28210   0.94958   0.00000  Uiso   1.00
H1448  H     0.78592   0.33072   0.94651   0.00000  Uiso   1.00
C1449  C     0.87790   0.29403   0.75902   0.00000  Uiso   1.00
H1450  H     0.91951   0.29094   0.76054   0.00000  Uiso   1.00
O1451  O     0.84863   0.28238   0.72567   0.00000  Uiso   1.00
C1452  C     0.87300   0.03199   0.91784   0.00000  Uiso   1.00
H1453  H     0.88621   0.06379   0.92325   0.00000  Uiso   1.00
O1454  O     0.88908   0.00663   0.94657   0.00000  Uiso   1.00
O1455  O     0.90570   0.21357   0.72426   0.00000  Uiso   1.00
C1456  C     0.95815   0.21338   0.71646   0.00000  Uiso   1.00
H1457  H     0.96798   0.24080   0.69571   0.00000  Uiso   1.00
H1458  H     0.96816   0.18437   0.70098   0.00000  Uiso   1.00
H1459  H     0.98313   0.21720   0.74945   0.00000  Uiso   1.00
O1460  O     0.76131   0.12018   0.94424   0.00000  Uiso   1.00
C1461  C     0.77235   0.07827   0.95122   0.00000  Uiso   1.00
H1462  H     0.75038   0.06417   0.97773   0.00000  Uiso   1.00
H1463  H     0.81430   0.07332   0.96078   0.00000  Uiso   1.00
H1464  H     0.75919   0.06192   0.91907   0.00000  Uiso   1.00
C1465  C     0.90936   0.21453   0.95790   0.00000  Uiso   1.00
H1466  H     0.94486   0.20100   0.95117   0.00000  Uiso   1.00
O1467  O     0.90335   0.25102   0.94939   0.00000  Uiso   1.00
C1468  C     0.74883   0.12599   0.70327   0.00000  Uiso   1.00
H1469  H     0.71022   0.13245   0.68666   0.00000  Uiso   1.00
O1470  O     0.75340   0.09995   0.73341   0.00000  Uiso   1.00
C1471  C     0.17080   0.42016   0.83423   0.00000  Uiso   1.00
C1472  C     0.16687   0.58007   0.83276   0.00000  Uiso   1.00
C1473  C     0.06727   0.49572   0.82199   0.00000  Uiso   1.00
C1474  C     0.26562   0.49628   0.84508   0.00000  Uiso   1.00
C1475  C     0.01253   0.48570   0.81645   0.00000  Uiso   1.00
C1476  C     0.31927   0.48604   0.85238   0.00000  Uiso   1.00
C1477  C     0.18989   0.35662   0.79651   0.00000  Uiso   1.00
C1478  C     0.15673   0.64441   0.86995   0.00000  Uiso   1.00
C1479  C     0.19023   0.64713   0.79648   0.00000  Uiso   1.00
C1480  C     0.17290   0.35265   0.87534   0.00000  Uiso   1.00
C1481  C     0.17022   0.62456   0.83206   0.00000  Uiso   1.00
C1482  C     0.17816   0.37603   0.83560   0.00000  Uiso   1.00
C1483  C     0.20513   0.52188   0.69522   0.00000  Uiso   1.00
C1484  C     0.13005   0.47749   0.97189   0.00000  Uiso   1.00
C1485  C     0.20401   0.52274   0.97973   0.00000  Uiso   1.00
C1486  C     0.12805   0.47916   0.68604   0.00000  Uiso   1.00
N1487  N     0.16665   0.49999   0.95240   0.00000  Uiso   1.00
N1488  N     0.16668   0.50001   0.71427   0.00000  Uiso   1.00
O1489  O     0.16666   0.43892   0.87154   0.00000  Uiso   1.00
O1490  O     0.16667   0.56108   0.79513   0.00000  Uiso   1.00
O1491  O     0.16666   0.43893   0.79510   0.00000  Uiso   1.00
O1492  O     0.16667   0.56107   0.87157   0.00000  Uiso   1.00
O1493  O     0.09058   0.50000   0.86261   0.00000  Uiso   1.00
O1494  O     0.24275   0.50000   0.80405   0.00000  Uiso   1.00
O1495  O     0.09058   0.50000   0.78617   0.00000  Uiso   1.00
O1496  O     0.24275   0.50000   0.88050   0.00000  Uiso   1.00
Zn1497 Zn    0.16667   0.49999   0.88437   0.00000  Uiso   1.00
Zn1498 Zn    0.16667   0.50001   0.78229   0.00000  Uiso   1.00
O1499  O     0.32209   0.47560   0.77340   0.00000  Uiso   1.00
C1500  C     0.31182   0.43251   0.77229   0.00000  Uiso   1.00
H1501  H     0.01469   0.41544   0.78071   0.00000  Uiso   1.00
H1502  H     0.29414   0.42402   0.73751   0.00000  Uiso   1.00
H1503  H     0.28421   0.42264   0.79641   0.00000  Uiso   1.00
O1504  O     0.00909   0.47633   0.89603   0.00000  Uiso   1.00
C1505  C     0.31385   0.44289   0.91445   0.00000  Uiso   1.00
H1506  H     0.00634   0.42424   0.93814   0.00000  Uiso   1.00
H1507  H     0.29443   0.42113   0.88823   0.00000  Uiso   1.00
H1508  H     0.28548   0.45453   0.93535   0.00000  Uiso   1.00
O1509  O     0.21011   0.37986   0.76262   0.00000  Uiso   1.00
C1510  C     0.17726   0.37687   0.72094   0.00000  Uiso   1.00
H1511  H     0.17601   0.40799   0.70517   0.00000  Uiso   1.00
H1512  H     0.13658   0.36544   0.72394   0.00000  Uiso   1.00
H1513  H     0.19456   0.35713   0.69752   0.00000  Uiso   1.00
O1514  O     0.11482   0.62663   0.88975   0.00000  Uiso   1.00
C1515  C     0.11957   0.63140   0.93706   0.00000  Uiso   1.00
H1516  H     0.15425   0.61646   0.95442   0.00000  Uiso   1.00
H1517  H     0.08529   0.61543   0.94958   0.00000  Uiso   1.00
H1518  H     0.11925   0.66406   0.94651   0.00000  Uiso   1.00
C1519  C     0.21123   0.62736   0.75902   0.00000  Uiso   1.00
H1520  H     0.25284   0.62427   0.76054   0.00000  Uiso   1.00
O1521  O     0.18196   0.61571   0.72567   0.00000  Uiso   1.00
C1522  C     0.20633   0.36532   0.91784   0.00000  Uiso   1.00
H1523  H     0.21955   0.39713   0.92325   0.00000  Uiso   1.00
O1524  O     0.22242   0.33996   0.94657   0.00000  Uiso   1.00
O1525  O     0.23903   0.54690   0.72426   0.00000  Uiso   1.00
C1526  C     0.29148   0.54672   0.71646   0.00000  Uiso   1.00
H1527  H     0.30131   0.57413   0.69571   0.00000  Uiso   1.00
H1528  H     0.30150   0.51770   0.70098   0.00000  Uiso   1.00
H1529  H     0.31647   0.55054   0.74945   0.00000  Uiso   1.00
O1530  O     0.09464   0.45351   0.94424   0.00000  Uiso   1.00
C1531  C     0.10568   0.41161   0.95122   0.00000  Uiso   1.00
H1532  H     0.08371   0.39750   0.97773   0.00000  Uiso   1.00
H1533  H     0.14763   0.40665   0.96078   0.00000  Uiso   1.00
H1534  H     0.09252   0.39525   0.91907   0.00000  Uiso   1.00
C1535  C     0.24269   0.54787   0.95790   0.00000  Uiso   1.00
H1536  H     0.27820   0.53434   0.95117   0.00000  Uiso   1.00
O1537  O     0.23668   0.58435   0.94939   0.00000  Uiso   1.00
C1538  C     0.08216   0.45933   0.70327   0.00000  Uiso   1.00
H1539  H     0.04355   0.46578   0.68666   0.00000  Uiso   1.00
O1540  O     0.08673   0.43328   0.73341   0.00000  Uiso   1.00
C1541  C     0.50413   0.42016   0.83423   0.00000  Uiso   1.00
C1542  C     0.50020   0.58007   0.83276   0.00000  Uiso   1.00
C1543  C     0.40060   0.49572   0.82199   0.00000  Uiso   1.00
C1544  C     0.59895   0.49628   0.84508   0.00000  Uiso   1.00
C1545  C     0.34586   0.48570   0.81645   0.00000  Uiso   1.00
C1546  C     0.65260   0.48604   0.85238   0.00000  Uiso   1.00
C1547  C     0.52322   0.35662   0.79651   0.00000  Uiso   1.00
C1548  C     0.49006   0.64441   0.86995   0.00000  Uiso   1.00
C1549  C     0.52356   0.64713   0.79648   0.00000  Uiso   1.00
C1550  C     0.50624   0.35265   0.87534   0.00000  Uiso   1.00
C1551  C     0.50355   0.62456   0.83206   0.00000  Uiso   1.00
C1552  C     0.51149   0.37603   0.83560   0.00000  Uiso   1.00
C1553  C     0.53846   0.52188   0.69522   0.00000  Uiso   1.00
C1554  C     0.46338   0.47749   0.97189   0.00000  Uiso   1.00
C1555  C     0.53734   0.52274   0.97973   0.00000  Uiso   1.00
C1556  C     0.46139   0.47916   0.68604   0.00000  Uiso   1.00
N1557  N     0.49999   0.49999   0.95240   0.00000  Uiso   1.00
N1558  N     0.50001   0.50001   0.71427   0.00000  Uiso   1.00
O1559  O     0.50000   0.43892   0.87154   0.00000  Uiso   1.00
O1560  O     0.50000   0.56108   0.79513   0.00000  Uiso   1.00
O1561  O     0.50000   0.43893   0.79510   0.00000  Uiso   1.00
O1562  O     0.50000   0.56107   0.87157   0.00000  Uiso   1.00
O1563  O     0.42392   0.50000   0.86261   0.00000  Uiso   1.00
O1564  O     0.57608   0.50000   0.80405   0.00000  Uiso   1.00
O1565  O     0.42392   0.50000   0.78617   0.00000  Uiso   1.00
O1566  O     0.57608   0.50000   0.88050   0.00000  Uiso   1.00
Zn1567 Zn    0.50000   0.49999   0.88437   0.00000  Uiso   1.00
Zn1568 Zn    0.50000   0.50001   0.78229   0.00000  Uiso   1.00
O1569  O     0.65543   0.47560   0.77340   0.00000  Uiso   1.00
C1570  C     0.64515   0.43251   0.77229   0.00000  Uiso   1.00
H1571  H     0.34802   0.41544   0.78071   0.00000  Uiso   1.00
H1572  H     0.62747   0.42402   0.73751   0.00000  Uiso   1.00
H1573  H     0.61754   0.42264   0.79641   0.00000  Uiso   1.00
O1574  O     0.34242   0.47633   0.89603   0.00000  Uiso   1.00
C1575  C     0.64718   0.44289   0.91445   0.00000  Uiso   1.00
H1576  H     0.33968   0.42424   0.93814   0.00000  Uiso   1.00
H1577  H     0.62776   0.42113   0.88823   0.00000  Uiso   1.00
H1578  H     0.61881   0.45453   0.93535   0.00000  Uiso   1.00
O1579  O     0.54344   0.37986   0.76262   0.00000  Uiso   1.00
C1580  C     0.51059   0.37687   0.72094   0.00000  Uiso   1.00
H1581  H     0.50934   0.40799   0.70517   0.00000  Uiso   1.00
H1582  H     0.46991   0.36544   0.72394   0.00000  Uiso   1.00
H1583  H     0.52789   0.35713   0.69752   0.00000  Uiso   1.00
O1584  O     0.44816   0.62663   0.88975   0.00000  Uiso   1.00
C1585  C     0.45290   0.63140   0.93706   0.00000  Uiso   1.00
H1586  H     0.48759   0.61646   0.95442   0.00000  Uiso   1.00
H1587  H     0.41862   0.61543   0.94958   0.00000  Uiso   1.00
H1588  H     0.45259   0.66406   0.94651   0.00000  Uiso   1.00
C1589  C     0.54456   0.62736   0.75902   0.00000  Uiso   1.00
H1590  H     0.58618   0.62427   0.76054   0.00000  Uiso   1.00
O1591  O     0.51530   0.61571   0.72567   0.00000  Uiso   1.00
C1592  C     0.53966   0.36532   0.91784   0.00000  Uiso   1.00
H1593  H     0.55288   0.39713   0.92325   0.00000  Uiso   1.00
O1594  O     0.55575   0.33996   0.94657   0.00000  Uiso   1.00
O1595  O     0.57237   0.54690   0.72426   0.00000  Uiso   1.00
C1596  C     0.62481   0.54672   0.71646   0.00000  Uiso   1.00
H1597  H     0.63465   0.57413   0.69571   0.00000  Uiso   1.00
H1598  H     0.63483   0.51770   0.70098   0.00000  Uiso   1.00
H1599  H     0.64980   0.55054   0.74945   0.00000  Uiso   1.00
O1600  O     0.42798   0.45351   0.94424   0.00000  Uiso   1.00
C1601  C     0.43901   0.41161   0.95122   0.00000  Uiso   1.00
H1602  H     0.41705   0.39750   0.97773   0.00000  Uiso   1.00
H1603  H     0.48096   0.40665   0.96078   0.00000  Uiso   1.00
H1604  H     0.42585   0.39525   0.91907   0.00000  Uiso   1.00
C1605  C     0.57603   0.54787   0.95790   0.00000  Uiso   1.00
H1606  H     0.61153   0.53434   0.95117   0.00000  Uiso   1.00
O1607  O     0.57001   0.58435   0.94939   0.00000  Uiso   1.00
C1608  C     0.41550   0.45933   0.70327   0.00000  Uiso   1.00
H1609  H     0.37689   0.46578   0.68666   0.00000  Uiso   1.00
O1610  O     0.42006   0.43328   0.73341   0.00000  Uiso   1.00
C1611  C     0.83746   0.42016   0.83423   0.00000  Uiso   1.00
C1612  C     0.83353   0.58007   0.83276   0.00000  Uiso   1.00
C1613  C     0.73394   0.49572   0.82199   0.00000  Uiso   1.00
C1614  C     0.93229   0.49628   0.84508   0.00000  Uiso   1.00
C1615  C     0.67920   0.48570   0.81645   0.00000  Uiso   1.00
C1616  C     0.98594   0.48604   0.85238   0.00000  Uiso   1.00
C1617  C     0.85655   0.35662   0.79651   0.00000  Uiso   1.00
C1618  C     0.82339   0.64441   0.86995   0.00000  Uiso   1.00
C1619  C     0.85690   0.64713   0.79648   0.00000  Uiso   1.00
C1620  C     0.83957   0.35265   0.87534   0.00000  Uiso   1.00
C1621  C     0.83689   0.62456   0.83206   0.00000  Uiso   1.00
C1622  C     0.84482   0.37603   0.83560   0.00000  Uiso   1.00
C1623  C     0.87180   0.52188   0.69522   0.00000  Uiso   1.00
C1624  C     0.79672   0.47749   0.97189   0.00000  Uiso   1.00
C1625  C     0.87067   0.52274   0.97973   0.00000  Uiso   1.00
C1626  C     0.79472   0.47916   0.68604   0.00000  Uiso   1.00
N1627  N     0.83332   0.49999   0.95240   0.00000  Uiso   1.00
N1628  N     0.83335   0.50001   0.71427   0.00000  Uiso   1.00
O1629  O     0.83333   0.43892   0.87154   0.00000  Uiso   1.00
O1630  O     0.83334   0.56108   0.79513   0.00000  Uiso   1.00
O1631  O     0.83333   0.43893   0.79510   0.00000  Uiso   1.00
O1632  O     0.83334   0.56107   0.87157   0.00000  Uiso   1.00
O1633  O     0.75725   0.50000   0.86261   0.00000  Uiso   1.00
O1634  O     0.90942   0.50000   0.80405   0.00000  Uiso   1.00
O1635  O     0.75725   0.50000   0.78617   0.00000  Uiso   1.00
O1636  O     0.90942   0.50000   0.88050   0.00000  Uiso   1.00
Zn1637 Zn    0.83333   0.49999   0.88437   0.00000  Uiso   1.00
Zn1638 Zn    0.83333   0.50001   0.78229   0.00000  Uiso   1.00
O1639  O     0.98876   0.47560   0.77340   0.00000  Uiso   1.00
C1640  C     0.97849   0.43251   0.77229   0.00000  Uiso   1.00
H1641  H     0.68136   0.41544   0.78071   0.00000  Uiso   1.00
H1642  H     0.96080   0.42402   0.73751   0.00000  Uiso   1.00
H1643  H     0.95088   0.42264   0.79641   0.00000  Uiso   1.00
O1644  O     0.67575   0.47633   0.89603   0.00000  Uiso   1.00
C1645  C     0.98051   0.44289   0.91445   0.00000  Uiso   1.00
H1646  H     0.67301   0.42424   0.93814   0.00000  Uiso   1.00
H1647  H     0.96110   0.42113   0.88823   0.00000  Uiso   1.00
H1648  H     0.95214   0.45453   0.93535   0.00000  Uiso   1.00
O1649  O     0.87678   0.37986   0.76262   0.00000  Uiso   1.00
C1650  C     0.84392   0.37687   0.72094   0.00000  Uiso   1.00
H1651  H     0.84267   0.40799   0.70517   0.00000  Uiso   1.00
H1652  H     0.80325   0.36544   0.72394   0.00000  Uiso   1.00
H1653  H     0.86122   0.35713   0.69752   0.00000  Uiso   1.00
O1654  O     0.78149   0.62663   0.88975   0.00000  Uiso   1.00
C1655  C     0.78623   0.63140   0.93706   0.00000  Uiso   1.00
H1656  H     0.82092   0.61646   0.95442   0.00000  Uiso   1.00
H1657  H     0.75196   0.61543   0.94958   0.00000  Uiso   1.00
H1658  H     0.78592   0.66406   0.94651   0.00000  Uiso   1.00
C1659  C     0.87790   0.62736   0.75902   0.00000  Uiso   1.00
H1660  H     0.91951   0.62427   0.76054   0.00000  Uiso   1.00
O1661  O     0.84863   0.61571   0.72567   0.00000  Uiso   1.00
C1662  C     0.87300   0.36532   0.91784   0.00000  Uiso   1.00
H1663  H     0.88621   0.39713   0.92325   0.00000  Uiso   1.00
O1664  O     0.88908   0.33996   0.94657   0.00000  Uiso   1.00
O1665  O     0.90570   0.54690   0.72426   0.00000  Uiso   1.00
C1666  C     0.95815   0.54672   0.71646   0.00000  Uiso   1.00
H1667  H     0.96798   0.57413   0.69571   0.00000  Uiso   1.00
H1668  H     0.96816   0.51770   0.70098   0.00000  Uiso   1.00
H1669  H     0.98313   0.55054   0.74945   0.00000  Uiso   1.00
O1670  O     0.76131   0.45351   0.94424   0.00000  Uiso   1.00
C1671  C     0.77235   0.41161   0.95122   0.00000  Uiso   1.00
H1672  H     0.75038   0.39750   0.97773   0.00000  Uiso   1.00
H1673  H     0.81430   0.40665   0.96078   0.00000  Uiso   1.00
H1674  H     0.75919   0.39525   0.91907   0.00000  Uiso   1.00
C1675  C     0.90936   0.54787   0.95790   0.00000  Uiso   1.00
H1676  H     0.94486   0.53434   0.95117   0.00000  Uiso   1.00
O1677  O     0.90335   0.58435   0.94939   0.00000  Uiso   1.00
C1678  C     0.74883   0.45933   0.70327   0.00000  Uiso   1.00
H1679  H     0.71022   0.46578   0.68666   0.00000  Uiso   1.00
O1680  O     0.75340   0.43328   0.73341   0.00000  Uiso   1.00
C1681  C     0.17080   0.75349   0.83423   0.00000  Uiso   1.00
C1682  C     0.16687   0.91340   0.83276   0.00000  Uiso   1.00
C1683  C     0.06727   0.82906   0.82199   0.00000  Uiso   1.00
C1684  C     0.26562   0.82961   0.84508   0.00000  Uiso   1.00
C1685  C     0.01253   0.81904   0.81645   0.00000  Uiso   1.00
C1686  C     0.31927   0.81937   0.85238   0.00000  Uiso   1.00
C1687  C     0.18989   0.68995   0.79651   0.00000  Uiso   1.00
C1688  C     0.15673   0.97774   0.86995   0.00000  Uiso   1.00
C1689  C     0.19023   0.98046   0.79648   0.00000  Uiso   1.00
C1690  C     0.17290   0.68598   0.87534   0.00000  Uiso   1.00
C1691  C     0.17022   0.95790   0.83206   0.00000  Uiso   1.00
C1692  C     0.17816   0.70936   0.83560   0.00000  Uiso   1.00
C1693  C     0.20513   0.85521   0.69522   0.00000  Uiso   1.00
C1694  C     0.13005   0.81082   0.97189   0.00000  Uiso   1.00
C1695  C     0.20401   0.85607   0.97973   0.00000  Uiso   1.00
C1696  C     0.12805   0.81249   0.68604   0.00000  Uiso   1.00
N1697  N     0.16665   0.83332   0.95240   0.00000  Uiso   1.00
N1698  N     0.16668   0.83334   0.71427   0.00000  Uiso   1.00
O1699  O     0.16666   0.77225   0.87154   0.00000  Uiso   1.00
O1700  O     0.16667   0.89442   0.79513   0.00000  Uiso   1.00
O1701  O     0.16666   0.77226   0.79510   0.00000  Uiso   1.00
O1702  O     0.16667   0.89441   0.87157   0.00000  Uiso   1.00
O1703  O     0.09058   0.83333   0.86261   0.00000  Uiso   1.00
O1704  O     0.24275   0.83334   0.80405   0.00000  Uiso   1.00
O1705  O     0.09058   0.83334   0.78617   0.00000  Uiso   1.00
O1706  O     0.24275   0.83333   0.88050   0.00000  Uiso   1.00
Zn1707 Zn    0.16667   0.83333   0.88437   0.00000  Uiso   1.00
Zn1708 Zn    0.16667   0.83334   0.78229   0.00000  Uiso   1.00
O1709  O     0.32209   0.80894   0.77340   0.00000  Uiso   1.00
C1710  C     0.31182   0.76585   0.77229   0.00000  Uiso   1.00
H1711  H     0.01469   0.74878   0.78071   0.00000  Uiso   1.00
H1712  H     0.29414   0.75735   0.73751   0.00000  Uiso   1.00
H1713  H     0.28421   0.75597   0.79641   0.00000  Uiso   1.00
O1714  O     0.00909   0.80966   0.89603   0.00000  Uiso   1.00
C1715  C     0.31385   0.77622   0.91445   0.00000  Uiso   1.00
H1716  H     0.00634   0.75758   0.93814   0.00000  Uiso   1.00
H1717  H     0.29443   0.75446   0.88823   0.00000  Uiso   1.00
H1718  H     0.28548   0.78787   0.93535   0.00000  Uiso   1.00
O1719  O     0.21011   0.71319   0.76262   0.00000  Uiso   1.00
C1720  C     0.17726   0.71020   0.72094   0.00000  Uiso   1.00
H1721  H     0.17601   0.74132   0.70517   0.00000  Uiso   1.00
H1722  H     0.13658   0.69878   0.72394   0.00000  Uiso   1.00
H1723  H     0.19456   0.69046   0.69752   0.00000  Uiso   1.00
O1724  O     0.11482   0.95996   0.88975   0.00000  Uiso   1.00
C1725  C     0.11957   0.96473   0.93706   0.00000  Uiso   1.00
H1726  H     0.15425   0.94979   0.95442   0.00000  Uiso   1.00
H1727  H     0.08529   0.94877   0.94958   0.00000  Uiso   1.00
H1728  H     0.11925   0.99739   0.94651   0.00000  Uiso   1.00
C1729  C     0.21123   0.96069   0.75902   0.00000  Uiso   1.00
H1730  H     0.25284   0.95760   0.76054   0.00000  Uiso   1.00
O1731  O     0.18196   0.94905   0.72567   0.00000  Uiso   1.00
C1732  C     0.20633   0.69866   0.91784   0.00000  Uiso   1.00
H1733  H     0.21955   0.73046   0.92325   0.00000  Uiso   1.00
O1734  O     0.22242   0.67329   0.94657   0.00000  Uiso   1.00
O1735  O     0.23903   0.88024   0.72426   0.00000  Uiso   1.00
C1736  C     0.29148   0.88005   0.71646   0.00000  Uiso   1.00
H1737  H     0.30131   0.90746   0.69571   0.00000  Uiso   1.00
H1738  H     0.30150   0.85103   0.70098   0.00000  Uiso   1.00
H1739  H     0.31647   0.88387   0.74945   0.00000  Uiso   1.00
O1740  O     0.09464   0.78685   0.94424   0.00000  Uiso   1.00
C1741  C     0.10568   0.74494   0.95122   0.00000  Uiso   1.00
H1742  H     0.08371   0.73084   0.97773   0.00000  Uiso   1.00
H1743  H     0.14763   0.73998   0.96078   0.00000  Uiso   1.00
H1744  H     0.09252   0.72859   0.91907   0.00000  Uiso   1.00
C1745  C     0.24269   0.88120   0.95790   0.00000  Uiso   1.00
H1746  H     0.27820   0.86767   0.95117   0.00000  Uiso   1.00
O1747  O     0.23668   0.91768   0.94939   0.00000  Uiso   1.00
C1748  C     0.08216   0.79266   0.70327   0.00000  Uiso   1.00
H1749  H     0.04355   0.79911   0.68666   0.00000  Uiso   1.00
O1750  O     0.08673   0.76661   0.73341   0.00000  Uiso   1.00
C1751  C     0.50413   0.75349   0.83423   0.00000  Uiso   1.00
C1752  C     0.50020   0.91340   0.83276   0.00000  Uiso   1.00
C1753  C     0.40060   0.82906   0.82199   0.00000  Uiso   1.00
C1754  C     0.59895   0.82961   0.84508   0.00000  Uiso   1.00
C1755  C     0.34586   0.81904   0.81645   0.00000  Uiso   1.00
C1756  C     0.65260   0.81937   0.85238   0.00000  Uiso   1.00
C1757  C     0.52322   0.68995   0.79651   0.00000  Uiso   1.00
C1758  C     0.49006   0.97774   0.86995   0.00000  Uiso   1.00
C1759  C     0.52356   0.98046   0.79648   0.00000  Uiso   1.00
C1760  C     0.50624   0.68598   0.87534   0.00000  Uiso   1.00
C1761  C     0.50355   0.95790   0.83206   0.00000  Uiso   1.00
C1762  C     0.51149   0.70936   0.83560   0.00000  Uiso   1.00
C1763  C     0.53846   0.85521   0.69522   0.00000  Uiso   1.00
C1764  C     0.46338   0.81082   0.97189   0.00000  Uiso   1.00
C1765  C     0.53734   0.85607   0.97973   0.00000  Uiso   1.00
C1766  C     0.46139   0.81249   0.68604   0.00000  Uiso   1.00
N1767  N     0.49999   0.83332   0.95240   0.00000  Uiso   1.00
N1768  N     0.50001   0.83334   0.71427   0.00000  Uiso   1.00
O1769  O     0.50000   0.77225   0.87154   0.00000  Uiso   1.00
O1770  O     0.50000   0.89442   0.79513   0.00000  Uiso   1.00
O1771  O     0.50000   0.77226   0.79510   0.00000  Uiso   1.00
O1772  O     0.50000   0.89441   0.87157   0.00000  Uiso   1.00
O1773  O     0.42392   0.83333   0.86261   0.00000  Uiso   1.00
O1774  O     0.57608   0.83334   0.80405   0.00000  Uiso   1.00
O1775  O     0.42392   0.83334   0.78617   0.00000  Uiso   1.00
O1776  O     0.57608   0.83333   0.88050   0.00000  Uiso   1.00
Zn1777 Zn    0.50000   0.83333   0.88437   0.00000  Uiso   1.00
Zn1778 Zn    0.50000   0.83334   0.78229   0.00000  Uiso   1.00
O1779  O     0.65543   0.80894   0.77340   0.00000  Uiso   1.00
C1780  C     0.64515   0.76585   0.77229   0.00000  Uiso   1.00
H1781  H     0.34802   0.74878   0.78071   0.00000  Uiso   1.00
H1782  H     0.62747   0.75735   0.73751   0.00000  Uiso   1.00
H1783  H     0.61754   0.75597   0.79641   0.00000  Uiso   1.00
O1784  O     0.34242   0.80966   0.89603   0.00000  Uiso   1.00
C1785  C     0.64718   0.77622   0.91445   0.00000  Uiso   1.00
H1786  H     0.33968   0.75758   0.93814   0.00000  Uiso   1.00
H1787  H     0.62776   0.75446   0.88823   0.00000  Uiso   1.00
H1788  H     0.61881   0.78787   0.93535   0.00000  Uiso   1.00
O1789  O     0.54344   0.71319   0.76262   0.00000  Uiso   1.00
C1790  C     0.51059   0.71020   0.72094   0.00000  Uiso   1.00
H1791  H     0.50934   0.74132   0.70517   0.00000  Uiso   1.00
H1792  H     0.46991   0.69878   0.72394   0.00000  Uiso   1.00
H1793  H     0.52789   0.69046   0.69752   0.00000  Uiso   1.00
O1794  O     0.44816   0.95996   0.88975   0.00000  Uiso   1.00
C1795  C     0.45290   0.96473   0.93706   0.00000  Uiso   1.00
H1796  H     0.48759   0.94979   0.95442   0.00000  Uiso   1.00
H1797  H     0.41862   0.94877   0.94958   0.00000  Uiso   1.00
H1798  H     0.45259   0.99739   0.94651   0.00000  Uiso   1.00
C1799  C     0.54456   0.96069   0.75902   0.00000  Uiso   1.00
H1800  H     0.58618   0.95760   0.76054   0.00000  Uiso   1.00
O1801  O     0.51530   0.94905   0.72567   0.00000  Uiso   1.00
C1802  C     0.53966   0.69866   0.91784   0.00000  Uiso   1.00
H1803  H     0.55288   0.73046   0.92325   0.00000  Uiso   1.00
O1804  O     0.55575   0.67329   0.94657   0.00000  Uiso   1.00
O1805  O     0.57237   0.88024   0.72426   0.00000  Uiso   1.00
C1806  C     0.62481   0.88005   0.71646   0.00000  Uiso   1.00
H1807  H     0.63465   0.90746   0.69571   0.00000  Uiso   1.00
H1808  H     0.63483   0.85103   0.70098   0.00000  Uiso   1.00
H1809  H     0.64980   0.88387   0.74945   0.00000  Uiso   1.00
O1810  O     0.42798   0.78685   0.94424   0.00000  Uiso   1.00
C1811  C     0.43901   0.74494   0.95122   0.00000  Uiso   1.00
H1812  H     0.41705   0.73084   0.97773   0.00000  Uiso   1.00
H1813  H     0.48096   0.73998   0.96078   0.00000  Uiso   1.00
H1814  H     0.42585   0.72859   0.91907   0.00000  Uiso   1.00
C1815  C     0.57603   0.88120   0.95790   0.00000  Uiso   1.00
H1816  H     0.61153   0.86767   0.95117   0.00000  Uiso   1.00
O1817  O     0.57001   0.91768   0.94939   0.00000  Uiso   1.00
C1818  C     0.41550   0.79266   0.70327   0.00000  Uiso   1.00
H1819  H     0.37689   0.79911   0.68666   0.00000  Uiso   1.00
O1820  O     0.42006   0.76661   0.73341   0.00000  Uiso   1.00
C1821  C     0.83746   0.75349   0.83423   0.00000  Uiso   1.00
C1822  C     0.83353   0.91340   0.83276   0.00000  Uiso   1.00
C1823  C     0.73394   0.82906   0.82199   0.00000  Uiso   1.00
C1824  C     0.93229   0.82961   0.84508   0.00000  Uiso   1.00
C1825  C     0.67920   0.81904   0.81645   0.00000  Uiso   1.00
C1826  C     0.98594   0.81937   0.85238   0.00000  Uiso   1.00
C1827  C     0.85655   0.68995   0.79651   0.00000  Uiso   1.00
C1828  C     0.82339   0.97774   0.86995   0.00000  Uiso   1.00
C1829  C     0.85690   0.98046   0.79648   0.00000  Uiso   1.00
C1830  C     0.83957   0.68598   0.87534   0.00000  Uiso   1.00
C1831  C     0.83689   0.95790   0.83206   0.00000  Uiso   1.00
C1832  C     0.84482   0.70936   0.83560   0.00000  Uiso   1.00
C1833  C     0.87180   0.85521   0.69522   0.00000  Uiso   1.00
C1834  C     0.79672   0.81082   0.97189   0.00000  Uiso   1.00
C1835  C     0.87067   0.85607   0.97973   0.00000  Uiso   1.00
C1836  C     0.79472   0.81249   0.68604   0.00000  Uiso   1.00
N1837  N     0.83332   0.83332   0.95240   0.00000  Uiso   1.00
N1838  N     0.83335   0.83334   0.71427   0.00000  Uiso   1.00
O1839  O     0.83333   0.77225   0.87154   0.00000  Uiso   1.00
O1840  O     0.83334   0.89442   0.79513   0.00000  Uiso   1.00
O1841  O     0.83333   0.77226   0.79510   0.00000  Uiso   1.00
O1842  O     0.83334   0.89441   0.87157   0.00000  Uiso   1.00
O1843  O     0.75725   0.83333   0.86261   0.00000  Uiso   1.00
O1844  O     0.90942   0.83334   0.80405   0.00000  Uiso   1.00
O1845  O     0.75725   0.83334   0.78617   0.00000  Uiso   1.00
O1846  O     0.90942   0.83333   0.88050   0.00000  Uiso   1.00
Zn1847 Zn    0.83333   0.83333   0.88437   0.00000  Uiso   1.00
Zn1848 Zn    0.83333   0.83334   0.78229   0.00000  Uiso   1.00
O1849  O     0.98876   0.80894   0.77340   0.00000  Uiso   1.00
C1850  C     0.97849   0.76585   0.77229   0.00000  Uiso   1.00
H1851  H     0.68136   0.74878   0.78071   0.00000  Uiso   1.00
H1852  H     0.96080   0.75735   0.73751   0.00000  Uiso   1.00
H1853  H     0.95088   0.75597   0.79641   0.00000  Uiso   1.00
O1854  O     0.67575   0.80966   0.89603   0.00000  Uiso   1.00
C1855  C     0.98051   0.77622   0.91445   0.00000  Uiso   1.00
H1856  H     0.67301   0.75758   0.93814   0.00000  Uiso   1.00
H1857  H     0.96110   0.75446   0.88823   0.00000  Uiso   1.00
H1858  H     0.95214   0.78787   0.93535   0.00000  Uiso   1.00
O1859  O     0.87678   0.71319   0.76262   0.00000  Uiso   1.00
C1860  C     0.84392   0.71020   0.72094   0.00000  Uiso   1.00
H1861  H     0.84267   0.74132   0.70517   0.00000  Uiso   1.00
H1862  H     0.80325   0.69878   0.72394   0.00000  Uiso   1.00
H1863  H     0.86122   0.69046   0.69752   0.00000  Uiso   1.00
O1864  O     0.78149   0.95996   0.88975   0.00000  Uiso   1.00
C1865  C     0.78623   0.96473   0.93706   0.00000  Uiso   1.00
H1866  H     0.82092   0.94979   0.95442   0.00000  Uiso   1.00
H1867  H     0.75196   0.94877   0.94958   0.00000  Uiso   1.00
H1868  H     0.78592   0.99739   0.94651   0.00000  Uiso   1.00
C1869  C     0.87790   0.96069   0.75902   0.00000  Uiso   1.00
H1870  H     0.91951   0.95760   0.76054   0.00000  Uiso   1.00
O1871  O     0.84863   0.94905   0.72567   0.00000  Uiso   1.00
C1872  C     0.87300   0.69866   0.91784   0.00000  Uiso   1.00
H1873  H     0.88621   0.73046   0.92325   0.00000  Uiso   1.00
O1874  O     0.88908   0.67329   0.94657   0.00000  Uiso   1.00
O1875  O     0.90570   0.88024   0.72426   0.00000  Uiso   1.00
C1876  C     0.95815   0.88005   0.71646   0.00000  Uiso   1.00
H1877  H     0.96798   0.90746   0.69571   0.00000  Uiso   1.00
H1878  H     0.96816   0.85103   0.70098   0.00000  Uiso   1.00
H1879  H     0.98313   0.88387   0.74945   0.00000  Uiso   1.00
O1880  O     0.76131   0.78685   0.94424   0.00000  Uiso   1.00
C1881  C     0.77235   0.74494   0.95122   0.00000  Uiso   1.00
H1882  H     0.75038   0.73084   0.97773   0.00000  Uiso   1.00
H1883  H     0.81430   0.73998   0.96078   0.00000  Uiso   1.00
H1884  H     0.75919   0.72859   0.91907   0.00000  Uiso   1.00
C1885  C     0.90936   0.88120   0.95790   0.00000  Uiso   1.00
H1886  H     0.94486   0.86767   0.95117   0.00000  Uiso   1.00
O1887  O     0.90335   0.91768   0.94939   0.00000  Uiso   1.00
C1888  C     0.74883   0.79266   0.70327   0.00000  Uiso   1.00
H1889  H     0.71022   0.79911   0.68666   0.00000  Uiso   1.00
O1890  O     0.75340   0.76661   0.73341   0.00000  Uiso   1.00
loop_
_geom_bond_atom_site_label_1
_geom_bond_atom_site_label_2
_geom_bond_distance
_geom_bond_site_symmetry_2
_ccdc_geom_bond_type
C1     O21     1.295   .     A
C1     C12     1.452   .     S
C1     O19     1.296   .     A
C2     O22     1.296   .     A
C2     C11     1.441   .     S
C2     O20     1.288   .     A
C3     O23     1.284   .     A
C3     C5      1.431   .     S
C3     O25     1.294   .     A
C4     O26     1.285   .     A
C4     O24     1.290   .     A
C4     C6      1.435   .     S
C5     C146    1.346   1_455 S
C5     O169    1.384   1_455 S
C6     C75     1.346   .     S
C6     O104    1.392   .     S
C7     C12     1.408   .     A
C7     O39     1.387   .     S
C7     C429    1.389   1_545 S
C8     C11     1.401   .     A
C8     O44     1.397   .     S
C8     C220    1.398   .     S
C9     C49     1.475   .     S
C9     C11     1.413   .     A
C9     C217    1.389   .     S
C10    C52     1.489   .     S
C10    C12     1.407   .     A
C10    C428    1.398   1_545 S
C13    N18     1.371   .     A
C13    O55     1.392   .     S
C13    C1275   1.447   1_554 S
C14    N17     1.352   .     A
C14    O60     1.372   .     S
C14    C646    1.421   .     S
C15    N17     1.376   .     A
C15    C65     1.469   .     S
C15    C643    1.447   .     S
C16    C68     1.471   .     S
C16    N18     1.379   .     A
C16    C1274   1.421   1_554 S
N17    Zn27    2.022   .     S
N18    Zn28    2.022   .     S
O19    Zn27    2.026   .     S
O20    Zn28    2.026   .     S
O21    Zn28    2.009   .     S
O22    Zn27    2.009   .     S
O23    Zn27    1.996   .     S
O24    Zn28    1.996   .     S
O25    Zn28    1.993   .     S
O26    Zn27    1.993   .     S
O29    C30     1.410   .     S
O29    C75     1.384   .     S
C30    H32     1.109   .     S
C30    H33     1.110   .     S
C30    H101    1.112   .     S
H31    C170    1.112   1_455 S
O34    C146    1.392   1_455 S
O34    C175    1.423   1_455 S
C35    H37     1.116   .     S
C35    H38     1.109   .     S
C35    O104    1.423   .     S
C35    H106    1.099   .     S
H36    C175    1.099   1_455 S
O39    C40     1.411   .     S
C40    H42     1.115   .     S
C40    H41     1.103   .     S
C40    H43     1.108   .     S
O44    C45     1.407   .     S
C45    H46     1.105   .     S
C45    H47     1.109   .     S
C45    H48     1.103   .     S
C49    O51     1.221   .     D
C49    H50     1.085   .     S
C52    H53     1.079   .     S
C52    O54     1.220   .     D
O55    C56     1.411   .     S
C56    H59     1.108   .     S
C56    H57     1.109   .     S
C56    H58     1.114   .     S
O60    C61     1.408   .     S
C61    H64     1.109   .     S
C61    H62     1.109   .     S
C61    H63     1.107   .     S
C65    H66     1.084   .     S
C65    O67     1.218   .     D
C68    O70     1.216   .     D
C68    H69     1.085   .     S
C71    O91     1.295   .     A
C71    C82     1.452   .     S
C71    O89     1.296   .     A
C72    O92     1.296   .     A
C72    C81     1.441   .     S
C72    O90     1.288   .     A
C73    O93     1.284   .     A
C73    C75     1.431   .     S
C73    O95     1.294   .     A
C74    O96     1.285   .     A
C74    O94     1.290   .     A
C74    C76     1.435   .     S
C76    C145    1.346   .     S
C76    O174    1.392   .     S
C77    C82     1.408   .     A
C77    O109    1.387   .     S
C77    C499    1.389   1_545 S
C78    C81     1.401   .     A
C78    O114    1.397   .     S
C78    C290    1.398   .     S
C79    C119    1.475   .     S
C79    C81     1.413   .     A
C79    C287    1.389   .     S
C80    C122    1.489   .     S
C80    C82     1.407   .     A
C80    C498    1.398   1_545 S
C83    N88     1.371   .     A
C83    O125    1.392   .     S
C83    C1345   1.447   1_554 S
C84    N87     1.352   .     A
C84    O130    1.372   .     S
C84    C716    1.421   .     S
C85    N87     1.376   .     A
C85    C135    1.469   .     S
C85    C713    1.447   .     S
C86    C138    1.471   .     S
C86    N88     1.379   .     A
C86    C1344   1.421   1_554 S
N87    Zn97    2.022   .     S
N88    Zn98    2.022   .     S
O89    Zn97    2.026   .     S
O90    Zn98    2.026   .     S
O91    Zn98    2.009   .     S
O92    Zn97    2.009   .     S
O93    Zn97    1.996   .     S
O94    Zn98    1.996   .     S
O95    Zn98    1.993   .     S
O96    Zn97    1.993   .     S
O99    C100    1.410   .     S
O99    C145    1.384   .     S
C100   H102    1.109   .     S
C100   H103    1.110   .     S
C100   H171    1.112   .     S
C105   H107    1.116   .     S
C105   H108    1.109   .     S
C105   O174    1.423   .     S
C105   H176    1.099   .     S
O109   C110    1.411   .     S
C110   H112    1.115   .     S
C110   H111    1.103   .     S
C110   H113    1.108   .     S
O114   C115    1.407   .     S
C115   H116    1.105   .     S
C115   H117    1.109   .     S
C115   H118    1.103   .     S
C119   O121    1.221   .     D
C119   H120    1.085   .     S
C122   H123    1.079   .     S
C122   O124    1.220   .     D
O125   C126    1.411   .     S
C126   H129    1.108   .     S
C126   H127    1.109   .     S
C126   H128    1.114   .     S
O130   C131    1.408   .     S
C131   H134    1.109   .     S
C131   H132    1.109   .     S
C131   H133    1.107   .     S
C135   H136    1.084   .     S
C135   O137    1.218   .     D
C138   O140    1.216   .     D
C138   H139    1.085   .     S
C141   O161    1.295   .     A
C141   C152    1.452   .     S
C141   O159    1.296   .     A
C142   O162    1.296   .     A
C142   C151    1.441   .     S
C142   O160    1.288   .     A
C143   O163    1.284   .     A
C143   C145    1.431   .     S
C143   O165    1.294   .     A
C144   O166    1.285   .     A
C144   O164    1.290   .     A
C144   C146    1.435   .     S
C146   C5      1.346   1_655 S
C146   O34     1.392   1_655 S
C147   C152    1.408   .     A
C147   O179    1.387   .     S
C147   C569    1.389   1_545 S
C148   C151    1.401   .     A
C148   O184    1.397   .     S
C148   C360    1.398   .     S
C149   C189    1.475   .     S
C149   C151    1.413   .     A
C149   C357    1.389   .     S
C150   C192    1.489   .     S
C150   C152    1.407   .     A
C150   C568    1.398   1_545 S
C153   N158    1.371   .     A
C153   O195    1.392   .     S
C153   C1415   1.447   1_554 S
C154   N157    1.352   .     A
C154   O200    1.372   .     S
C154   C786    1.421   .     S
C155   N157    1.376   .     A
C155   C205    1.469   .     S
C155   C783    1.447   .     S
C156   C208    1.471   .     S
C156   N158    1.379   .     A
C156   C1414   1.421   1_554 S
N157   Zn167   2.022   .     S
N158   Zn168   2.022   .     S
O159   Zn167   2.026   .     S
O160   Zn168   2.026   .     S
O161   Zn168   2.009   .     S
O162   Zn167   2.009   .     S
O163   Zn167   1.996   .     S
O164   Zn168   1.996   .     S
O165   Zn168   1.993   .     S
O166   Zn167   1.993   .     S
O169   C170    1.410   .     S
O169   C5      1.384   1_655 S
C170   H172    1.109   .     S
C170   H173    1.110   .     S
C170   H31     1.112   1_655 S
C175   H177    1.116   .     S
C175   H178    1.109   .     S
C175   O34     1.423   1_655 S
C175   H36     1.099   1_655 S
O179   C180    1.411   .     S
C180   H182    1.115   .     S
C180   H181    1.103   .     S
C180   H183    1.108   .     S
O184   C185    1.407   .     S
C185   H186    1.105   .     S
C185   H187    1.109   .     S
C185   H188    1.103   .     S
C189   O191    1.221   .     D
C189   H190    1.085   .     S
C192   H193    1.079   .     S
C192   O194    1.220   .     D
O195   C196    1.411   .     S
C196   H199    1.108   .     S
C196   H197    1.109   .     S
C196   H198    1.114   .     S
O200   C201    1.408   .     S
C201   H204    1.109   .     S
C201   H202    1.109   .     S
C201   H203    1.107   .     S
C205   H206    1.084   .     S
C205   O207    1.218   .     D
C208   O210    1.216   .     D
C208   H209    1.085   .     S
C211   O231    1.295   .     A
C211   C222    1.452   .     S
C211   O229    1.296   .     A
C212   O232    1.296   .     A
C212   C221    1.441   .     S
C212   O230    1.288   .     A
C213   O233    1.284   .     A
C213   C215    1.431   .     S
C213   O235    1.294   .     A
C214   O236    1.285   .     A
C214   O234    1.290   .     A
C214   C216    1.435   .     S
C215   C356    1.346   1_455 S
C215   O379    1.384   1_455 S
C216   C285    1.346   .     S
C216   O314    1.392   .     S
C217   C222    1.408   .     A
C217   O249    1.387   .     S
C218   C221    1.401   .     A
C218   O254    1.397   .     S
C218   C430    1.398   .     S
C219   C259    1.475   .     S
C219   C221    1.413   .     A
C219   C427    1.389   .     S
C220   C262    1.489   .     S
C220   C222    1.407   .     A
C223   N228    1.371   .     A
C223   O265    1.392   .     S
C223   C1485   1.447   1_554 S
C224   N227    1.352   .     A
C224   O270    1.372   .     S
C224   C856    1.421   .     S
C225   N227    1.376   .     A
C225   C275    1.469   .     S
C225   C853    1.447   .     S
C226   C278    1.471   .     S
C226   N228    1.379   .     A
C226   C1484   1.421   1_554 S
N227   Zn237   2.022   .     S
N228   Zn238   2.022   .     S
O229   Zn237   2.026   .     S
O230   Zn238   2.026   .     S
O231   Zn238   2.009   .     S
O232   Zn237   2.009   .     S
O233   Zn237   1.996   .     S
O234   Zn238   1.996   .     S
O235   Zn238   1.993   .     S
O236   Zn237   1.993   .     S
O239   C240    1.410   .     S
O239   C285    1.384   .     S
C240   H242    1.109   .     S
C240   H243    1.110   .     S
C240   H311    1.112   .     S
H241   C380    1.112   1_455 S
O244   C356    1.392   1_455 S
O244   C385    1.423   1_455 S
C245   H247    1.116   .     S
C245   H248    1.109   .     S
C245   O314    1.423   .     S
C245   H316    1.099   .     S
H246   C385    1.099   1_455 S
O249   C250    1.411   .     S
C250   H252    1.115   .     S
C250   H251    1.103   .     S
C250   H253    1.108   .     S
O254   C255    1.407   .     S
C255   H256    1.105   .     S
C255   H257    1.109   .     S
C255   H258    1.103   .     S
C259   O261    1.221   .     D
C259   H260    1.085   .     S
C262   H263    1.079   .     S
C262   O264    1.220   .     D
O265   C266    1.411   .     S
C266   H269    1.108   .     S
C266   H267    1.109   .     S
C266   H268    1.114   .     S
O270   C271    1.408   .     S
C271   H274    1.109   .     S
C271   H272    1.109   .     S
C271   H273    1.107   .     S
C275   H276    1.084   .     S
C275   O277    1.218   .     D
C278   O280    1.216   .     D
C278   H279    1.085   .     S
C281   O301    1.295   .     A
C281   C292    1.452   .     S
C281   O299    1.296   .     A
C282   O302    1.296   .     A
C282   C291    1.441   .     S
C282   O300    1.288   .     A
C283   O303    1.284   .     A
C283   C285    1.431   .     S
C283   O305    1.294   .     A
C284   O306    1.285   .     A
C284   O304    1.290   .     A
C284   C286    1.435   .     S
C286   C355    1.346   .     S
C286   O384    1.392   .     S
C287   C292    1.408   .     A
C287   O319    1.387   .     S
C288   C291    1.401   .     A
C288   O324    1.397   .     S
C288   C500    1.398   .     S
C289   C329    1.475   .     S
C289   C291    1.413   .     A
C289   C497    1.389   .     S
C290   C332    1.489   .     S
C290   C292    1.407   .     A
C293   N298    1.371   .     A
C293   O335    1.392   .     S
C293   C1555   1.447   1_554 S
C294   N297    1.352   .     A
C294   O340    1.372   .     S
C294   C926    1.421   .     S
C295   N297    1.376   .     A
C295   C345    1.469   .     S
C295   C923    1.447   .     S
C296   C348    1.471   .     S
C296   N298    1.379   .     A
C296   C1554   1.421   1_554 S
N297   Zn307   2.022   .     S
N298   Zn308   2.022   .     S
O299   Zn307   2.026   .     S
O300   Zn308   2.026   .     S
O301   Zn308   2.009   .     S
O302   Zn307   2.009   .     S
O303   Zn307   1.996   .     S
O304   Zn308   1.996   .     S
O305   Zn308   1.993   .     S
O306   Zn307   1.993   .     S
O309   C310    1.410   .     S
O309   C355    1.384   .     S
C310   H312    1.109   .     S
C310   H313    1.110   .     S
C310   H381    1.112   .     S
C315   H317    1.116   .     S
C315   H318    1.109   .     S
C315   O384    1.423   .     S
C315   H386    1.099   .     S
O319   C320    1.411   .     S
C320   H322    1.115   .     S
C320   H321    1.103   .     S
C320   H323    1.108   .     S
O324   C325    1.407   .     S
C325   H326    1.105   .     S
C325   H327    1.109   .     S
C325   H328    1.103   .     S
C329   O331    1.221   .     D
C329   H330    1.085   .     S
C332   H333    1.079   .     S
C332   O334    1.220   .     D
O335   C336    1.411   .     S
C336   H339    1.108   .     S
C336   H337    1.109   .     S
C336   H338    1.114   .     S
O340   C341    1.408   .     S
C341   H344    1.109   .     S
C341   H342    1.109   .     S
C341   H343    1.107   .     S
C345   H346    1.084   .     S
C345   O347    1.218   .     D
C348   O350    1.216   .     D
C348   H349    1.085   .     S
C351   O371    1.295   .     A
C351   C362    1.452   .     S
C351   O369    1.296   .     A
C352   O372    1.296   .     A
C352   C361    1.441   .     S
C352   O370    1.288   .     A
C353   O373    1.284   .     A
C353   C355    1.431   .     S
C353   O375    1.294   .     A
C354   O376    1.285   .     A
C354   O374    1.290   .     A
C354   C356    1.435   .     S
C356   C215    1.346   1_655 S
C356   O244    1.392   1_655 S
C357   C362    1.408   .     A
C357   O389    1.387   .     S
C358   C361    1.401   .     A
C358   O394    1.397   .     S
C358   C570    1.398   .     S
C359   C399    1.475   .     S
C359   C361    1.413   .     A
C359   C567    1.389   .     S
C360   C402    1.489   .     S
C360   C362    1.407   .     A
C363   N368    1.371   .     A
C363   O405    1.392   .     S
C363   C1625   1.447   1_554 S
C364   N367    1.352   .     A
C364   O410    1.372   .     S
C364   C996    1.421   .     S
C365   N367    1.376   .     A
C365   C415    1.469   .     S
C365   C993    1.447   .     S
C366   C418    1.471   .     S
C366   N368    1.379   .     A
C366   C1624   1.421   1_554 S
N367   Zn377   2.022   .     S
N368   Zn378   2.022   .     S
O369   Zn377   2.026   .     S
O370   Zn378   2.026   .     S
O371   Zn378   2.009   .     S
O372   Zn377   2.009   .     S
O373   Zn377   1.996   .     S
O374   Zn378   1.996   .     S
O375   Zn378   1.993   .     S
O376   Zn377   1.993   .     S
O379   C380    1.410   .     S
O379   C215    1.384   1_655 S
C380   H382    1.109   .     S
C380   H383    1.110   .     S
C380   H241    1.112   1_655 S
C385   H387    1.116   .     S
C385   H388    1.109   .     S
C385   O244    1.423   1_655 S
C385   H246    1.099   1_655 S
O389   C390    1.411   .     S
C390   H392    1.115   .     S
C390   H391    1.103   .     S
C390   H393    1.108   .     S
O394   C395    1.407   .     S
C395   H396    1.105   .     S
C395   H397    1.109   .     S
C395   H398    1.103   .     S
C399   O401    1.221   .     D
C399   H400    1.085   .     S
C402   H403    1.079   .     S
C402   O404    1.220   .     D
O405   C406    1.411   .     S
C406   H409    1.108   .     S
C406   H407    1.109   .     S
C406   H408    1.114   .     S
O410   C411    1.408   .     S
C411   H414    1.109   .     S
C411   H412    1.109   .     S
C411   H413    1.107   .     S
C415   H416    1.084   .     S
C415   O417    1.218   .     D
C418   O420    1.216   .     D
C418   H419    1.085   .     S
C421   O441    1.295   .     A
C421   C432    1.452   .     S
C421   O439    1.296   .     A
C422   O442    1.296   .     A
C422   C431    1.441   .     S
C422   O440    1.288   .     A
C423   O443    1.284   .     A
C423   C425    1.431   .     S
C423   O445    1.294   .     A
C424   O446    1.285   .     A
C424   O444    1.290   .     A
C424   C426    1.435   .     S
C425   C566    1.346   1_455 S
C425   O589    1.384   1_455 S
C426   C495    1.346   .     S
C426   O524    1.392   .     S
C427   C432    1.408   .     A
C427   O459    1.387   .     S
C428   C431    1.401   .     A
C428   O464    1.397   .     S
C428   C10     1.398   1_565 S
C429   C469    1.475   .     S
C429   C431    1.413   .     A
C429   C7      1.389   1_565 S
C430   C472    1.489   .     S
C430   C432    1.407   .     A
C433   N438    1.371   .     A
C433   O475    1.392   .     S
C433   C1695   1.447   1_554 S
C434   N437    1.352   .     A
C434   O480    1.372   .     S
C434   C1066   1.421   .     S
C435   N437    1.376   .     A
C435   C485    1.469   .     S
C435   C1063   1.447   .     S
C436   C488    1.471   .     S
C436   N438    1.379   .     A
C436   C1694   1.421   1_554 S
N437   Zn447   2.022   .     S
N438   Zn448   2.022   .     S
O439   Zn447   2.026   .     S
O440   Zn448   2.026   .     S
O441   Zn448   2.009   .     S
O442   Zn447   2.009   .     S
O443   Zn447   1.996   .     S
O444   Zn448   1.996   .     S
O445   Zn448   1.993   .     S
O446   Zn447   1.993   .     S
O449   C450    1.410   .     S
O449   C495    1.384   .     S
C450   H452    1.109   .     S
C450   H453    1.110   .     S
C450   H521    1.112   .     S
H451   C590    1.112   1_455 S
O454   C566    1.392   1_455 S
O454   C595    1.423   1_455 S
C455   H457    1.116   .     S
C455   H458    1.109   .     S
C455   O524    1.423   .     S
C455   H526    1.099   .     S
H456   C595    1.099   1_455 S
O459   C460    1.411   .     S
C460   H462    1.115   .     S
C460   H461    1.103   .     S
C460   H463    1.108   .     S
O464   C465    1.407   .     S
C465   H466    1.105   .     S
C465   H467    1.109   .     S
C465   H468    1.103   .     S
C469   O471    1.221   .     D
C469   H470    1.085   .     S
C472   H473    1.079   .     S
C472   O474    1.220   .     D
O475   C476    1.411   .     S
C476   H479    1.108   .     S
C476   H477    1.109   .     S
C476   H478    1.114   .     S
O480   C481    1.408   .     S
C481   H484    1.109   .     S
C481   H482    1.109   .     S
C481   H483    1.107   .     S
C485   H486    1.084   .     S
C485   O487    1.218   .     D
C488   O490    1.216   .     D
C488   H489    1.085   .     S
C491   O511    1.295   .     A
C491   C502    1.452   .     S
C491   O509    1.296   .     A
C492   O512    1.296   .     A
C492   C501    1.441   .     S
C492   O510    1.288   .     A
C493   O513    1.284   .     A
C493   C495    1.431   .     S
C493   O515    1.294   .     A
C494   O516    1.285   .     A
C494   O514    1.290   .     A
C494   C496    1.435   .     S
C496   C565    1.346   .     S
C496   O594    1.392   .     S
C497   C502    1.408   .     A
C497   O529    1.387   .     S
C498   C501    1.401   .     A
C498   O534    1.397   .     S
C498   C80     1.398   1_565 S
C499   C539    1.475   .     S
C499   C501    1.413   .     A
C499   C77     1.389   1_565 S
C500   C542    1.489   .     S
C500   C502    1.407   .     A
C503   N508    1.371   .     A
C503   O545    1.392   .     S
C503   C1765   1.447   1_554 S
C504   N507    1.352   .     A
C504   O550    1.372   .     S
C504   C1136   1.421   .     S
C505   N507    1.376   .     A
C505   C555    1.469   .     S
C505   C1133   1.447   .     S
C506   C558    1.471   .     S
C506   N508    1.379   .     A
C506   C1764   1.421   1_554 S
N507   Zn517   2.022   .     S
N508   Zn518   2.022   .     S
O509   Zn517   2.026   .     S
O510   Zn518   2.026   .     S
O511   Zn518   2.009   .     S
O512   Zn517   2.009   .     S
O513   Zn517   1.996   .     S
O514   Zn518   1.996   .     S
O515   Zn518   1.993   .     S
O516   Zn517   1.993   .     S
O519   C520    1.410   .     S
O519   C565    1.384   .     S
C520   H522    1.109   .     S
C520   H523    1.110   .     S
C520   H591    1.112   .     S
C525   H527    1.116   .     S
C525   H528    1.109   .     S
C525   O594    1.423   .     S
C525   H596    1.099   .     S
O529   C530    1.411   .     S
C530   H532    1.115   .     S
C530   H531    1.103   .     S
C530   H533    1.108   .     S
O534   C535    1.407   .     S
C535   H536    1.105   .     S
C535   H537    1.109   .     S
C535   H538    1.103   .     S
C539   O541    1.221   .     D
C539   H540    1.085   .     S
C542   H543    1.079   .     S
C542   O544    1.220   .     D
O545   C546    1.411   .     S
C546   H549    1.108   .     S
C546   H547    1.109   .     S
C546   H548    1.114   .     S
O550   C551    1.408   .     S
C551   H554    1.109   .     S
C551   H552    1.109   .     S
C551   H553    1.107   .     S
C555   H556    1.084   .     S
C555   O557    1.218   .     D
C558   O560    1.216   .     D
C558   H559    1.085   .     S
C561   O581    1.295   .     A
C561   C572    1.452   .     S
C561   O579    1.296   .     A
C562   O582    1.296   .     A
C562   C571    1.441   .     S
C562   O580    1.288   .     A
C563   O583    1.284   .     A
C563   C565    1.431   .     S
C563   O585    1.294   .     A
C564   O586    1.285   .     A
C564   O584    1.290   .     A
C564   C566    1.435   .     S
C566   C425    1.346   1_655 S
C566   O454    1.392   1_655 S
C567   C572    1.408   .     A
C567   O599    1.387   .     S
C568   C571    1.401   .     A
C568   O604    1.397   .     S
C568   C150    1.398   1_565 S
C569   C609    1.475   .     S
C569   C571    1.413   .     A
C569   C147    1.389   1_565 S
C570   C612    1.489   .     S
C570   C572    1.407   .     A
C573   N578    1.371   .     A
C573   O615    1.392   .     S
C573   C1835   1.447   1_554 S
C574   N577    1.352   .     A
C574   O620    1.372   .     S
C574   C1206   1.421   .     S
C575   N577    1.376   .     A
C575   C625    1.469   .     S
C575   C1203   1.447   .     S
C576   C628    1.471   .     S
C576   N578    1.379   .     A
C576   C1834   1.421   1_554 S
N577   Zn587   2.022   .     S
N578   Zn588   2.022   .     S
O579   Zn587   2.026   .     S
O580   Zn588   2.026   .     S
O581   Zn588   2.009   .     S
O582   Zn587   2.009   .     S
O583   Zn587   1.996   .     S
O584   Zn588   1.996   .     S
O585   Zn588   1.993   .     S
O586   Zn587   1.993   .     S
O589   C590    1.410   .     S
O589   C425    1.384   1_655 S
C590   H592    1.109   .     S
C590   H593    1.110   .     S
C590   H451    1.112   1_655 S
C595   H597    1.116   .     S
C595   H598    1.109   .     S
C595   O454    1.423   1_655 S
C595   H456    1.099   1_655 S
O599   C600    1.411   .     S
C600   H602    1.115   .     S
C600   H601    1.103   .     S
C600   H603    1.108   .     S
O604   C605    1.407   .     S
C605   H606    1.105   .     S
C605   H607    1.109   .     S
C605   H608    1.103   .     S
C609   O611    1.221   .     D
C609   H610    1.085   .     S
C612   H613    1.079   .     S
C612   O614    1.220   .     D
O615   C616    1.411   .     S
C616   H619    1.108   .     S
C616   H617    1.109   .     S
C616   H618    1.114   .     S
O620   C621    1.408   .     S
C621   H624    1.109   .     S
C621   H622    1.109   .     S
C621   H623    1.107   .     S
C625   H626    1.084   .     S
C625   O627    1.218   .     D
C628   O630    1.216   .     D
C628   H629    1.085   .     S
C631   O651    1.295   .     A
C631   C642    1.452   .     S
C631   O649    1.296   .     A
C632   O652    1.296   .     A
C632   C641    1.441   .     S
C632   O650    1.288   .     A
C633   O653    1.284   .     A
C633   C635    1.431   .     S
C633   O655    1.294   .     A
C634   O656    1.285   .     A
C634   O654    1.290   .     A
C634   C636    1.435   .     S
C635   C776    1.346   1_455 S
C635   O799    1.384   1_455 S
C636   C705    1.346   .     S
C636   O734    1.392   .     S
C637   C642    1.408   .     A
C637   O669    1.387   .     S
C637   C1059   1.389   1_545 S
C638   C641    1.401   .     A
C638   O674    1.397   .     S
C638   C850    1.398   .     S
C639   C679    1.475   .     S
C639   C641    1.413   .     A
C639   C847    1.389   .     S
C640   C682    1.489   .     S
C640   C642    1.407   .     A
C640   C1058   1.398   1_545 S
C643   N648    1.371   .     A
C643   O685    1.392   .     S
C644   N647    1.352   .     A
C644   O690    1.372   .     S
C644   C1276   1.421   .     S
C645   N647    1.376   .     A
C645   C695    1.469   .     S
C645   C1273   1.447   .     S
C646   C698    1.471   .     S
C646   N648    1.379   .     A
N647   Zn657   2.022   .     S
N648   Zn658   2.022   .     S
O649   Zn657   2.026   .     S
O650   Zn658   2.026   .     S
O651   Zn658   2.009   .     S
O652   Zn657   2.009   .     S
O653   Zn657   1.996   .     S
O654   Zn658   1.996   .     S
O655   Zn658   1.993   .     S
O656   Zn657   1.993   .     S
O659   C660    1.410   .     S
O659   C705    1.384   .     S
C660   H662    1.109   .     S
C660   H663    1.110   .     S
C660   H731    1.112   .     S
H661   C800    1.112   1_455 S
O664   C776    1.392   1_455 S
O664   C805    1.423   1_455 S
C665   H667    1.116   .     S
C665   H668    1.109   .     S
C665   O734    1.423   .     S
C665   H736    1.099   .     S
H666   C805    1.099   1_455 S
O669   C670    1.411   .     S
C670   H672    1.115   .     S
C670   H671    1.103   .     S
C670   H673    1.108   .     S
O674   C675    1.407   .     S
C675   H676    1.105   .     S
C675   H677    1.109   .     S
C675   H678    1.103   .     S
C679   O681    1.221   .     D
C679   H680    1.085   .     S
C682   H683    1.079   .     S
C682   O684    1.220   .     D
O685   C686    1.411   .     S
C686   H689    1.108   .     S
C686   H687    1.109   .     S
C686   H688    1.114   .     S
O690   C691    1.408   .     S
C691   H694    1.109   .     S
C691   H692    1.109   .     S
C691   H693    1.107   .     S
C695   H696    1.084   .     S
C695   O697    1.218   .     D
C698   O700    1.216   .     D
C698   H699    1.085   .     S
C701   O721    1.295   .     A
C701   C712    1.452   .     S
C701   O719    1.296   .     A
C702   O722    1.296   .     A
C702   C711    1.441   .     S
C702   O720    1.288   .     A
C703   O723    1.284   .     A
C703   C705    1.431   .     S
C703   O725    1.294   .     A
C704   O726    1.285   .     A
C704   O724    1.290   .     A
C704   C706    1.435   .     S
C706   C775    1.346   .     S
C706   O804    1.392   .     S
C707   C712    1.408   .     A
C707   O739    1.387   .     S
C707   C1129   1.389   1_545 S
C708   C711    1.401   .     A
C708   O744    1.397   .     S
C708   C920    1.398   .     S
C709   C749    1.475   .     S
C709   C711    1.413   .     A
C709   C917    1.389   .     S
C710   C752    1.489   .     S
C710   C712    1.407   .     A
C710   C1128   1.398   1_545 S
C713   N718    1.371   .     A
C713   O755    1.392   .     S
C714   N717    1.352   .     A
C714   O760    1.372   .     S
C714   C1346   1.421   .     S
C715   N717    1.376   .     A
C715   C765    1.469   .     S
C715   C1343   1.447   .     S
C716   C768    1.471   .     S
C716   N718    1.379   .     A
N717   Zn727   2.022   .     S
N718   Zn728   2.022   .     S
O719   Zn727   2.026   .     S
O720   Zn728   2.026   .     S
O721   Zn728   2.009   .     S
O722   Zn727   2.009   .     S
O723   Zn727   1.996   .     S
O724   Zn728   1.996   .     S
O725   Zn728   1.993   .     S
O726   Zn727   1.993   .     S
O729   C730    1.410   .     S
O729   C775    1.384   .     S
C730   H732    1.109   .     S
C730   H733    1.110   .     S
C730   H801    1.112   .     S
C735   H737    1.116   .     S
C735   H738    1.109   .     S
C735   O804    1.423   .     S
C735   H806    1.099   .     S
O739   C740    1.411   .     S
C740   H742    1.115   .     S
C740   H741    1.103   .     S
C740   H743    1.108   .     S
O744   C745    1.407   .     S
C745   H746    1.105   .     S
C745   H747    1.109   .     S
C745   H748    1.103   .     S
C749   O751    1.221   .     D
C749   H750    1.085   .     S
C752   H753    1.079   .     S
C752   O754    1.220   .     D
O755   C756    1.411   .     S
C756   H759    1.108   .     S
C756   H757    1.109   .     S
C756   H758    1.114   .     S
O760   C761    1.408   .     S
C761   H764    1.109   .     S
C761   H762    1.109   .     S
C761   H763    1.107   .     S
C765   H766    1.084   .     S
C765   O767    1.218   .     D
C768   O770    1.216   .     D
C768   H769    1.085   .     S
C771   O791    1.295   .     A
C771   C782    1.452   .     S
C771   O789    1.296   .     A
C772   O792    1.296   .     A
C772   C781    1.441   .     S
C772   O790    1.288   .     A
C773   O793    1.284   .     A
C773   C775    1.431   .     S
C773   O795    1.294   .     A
C774   O796    1.285   .     A
C774   O794    1.290   .     A
C774   C776    1.435   .     S
C776   C635    1.346   1_655 S
C776   O664    1.392   1_655 S
C777   C782    1.408   .     A
C777   O809    1.387   .     S
C777   C1199   1.389   1_545 S
C778   C781    1.401   .     A
C778   O814    1.397   .     S
C778   C990    1.398   .     S
C779   C819    1.475   .     S
C779   C781    1.413   .     A
C779   C987    1.389   .     S
C780   C822    1.489   .     S
C780   C782    1.407   .     A
C780   C1198   1.398   1_545 S
C783   N788    1.371   .     A
C783   O825    1.392   .     S
C784   N787    1.352   .     A
C784   O830    1.372   .     S
C784   C1416   1.421   .     S
C785   N787    1.376   .     A
C785   C835    1.469   .     S
C785   C1413   1.447   .     S
C786   C838    1.471   .     S
C786   N788    1.379   .     A
N787   Zn797   2.022   .     S
N788   Zn798   2.022   .     S
O789   Zn797   2.026   .     S
O790   Zn798   2.026   .     S
O791   Zn798   2.009   .     S
O792   Zn797   2.009   .     S
O793   Zn797   1.996   .     S
O794   Zn798   1.996   .     S
O795   Zn798   1.993   .     S
O796   Zn797   1.993   .     S
O799   C800    1.410   .     S
O799   C635    1.384   1_655 S
C800   H802    1.109   .     S
C800   H803    1.110   .     S
C800   H661    1.112   1_655 S
C805   H807    1.116   .     S
C805   H808    1.109   .     S
C805   O664    1.423   1_655 S
C805   H666    1.099   1_655 S
O809   C810    1.411   .     S
C810   H812    1.115   .     S
C810   H811    1.103   .     S
C810   H813    1.108   .     S
O814   C815    1.407   .     S
C815   H816    1.105   .     S
C815   H817    1.109   .     S
C815   H818    1.103   .     S
C819   O821    1.221   .     D
C819   H820    1.085   .     S
C822   H823    1.079   .     S
C822   O824    1.220   .     D
O825   C826    1.411   .     S
C826   H829    1.108   .     S
C826   H827    1.109   .     S
C826   H828    1.114   .     S
O830   C831    1.408   .     S
C831   H834    1.109   .     S
C831   H832    1.109   .     S
C831   H833    1.107   .     S
C835   H836    1.084   .     S
C835   O837    1.218   .     D
C838   O840    1.216   .     D
C838   H839    1.085   .     S
C841   O861    1.295   .     A
C841   C852    1.452   .     S
C841   O859    1.296   .     A
C842   O862    1.296   .     A
C842   C851    1.441   .     S
C842   O860    1.288   .     A
C843   O863    1.284   .     A
C843   C845    1.431   .     S
C843   O865    1.294   .     A
C844   O866    1.285   .     A
C844   O864    1.290   .     A
C844   C846    1.435   .     S
C845   C986    1.346   1_455 S
C845   O1009   1.384   1_455 S
C846   C915    1.346   .     S
C846   O944    1.392   .     S
C847   C852    1.408   .     A
C847   O879    1.387   .     S
C848   C851    1.401   .     A
C848   O884    1.397   .     S
C848   C1060   1.398   .     S
C849   C889    1.475   .     S
C849   C851    1.413   .     A
C849   C1057   1.389   .     S
C850   C892    1.489   .     S
C850   C852    1.407   .     A
C853   N858    1.371   .     A
C853   O895    1.392   .     S
C854   N857    1.352   .     A
C854   O900    1.372   .     S
C854   C1486   1.421   .     S
C855   N857    1.376   .     A
C855   C905    1.469   .     S
C855   C1483   1.447   .     S
C856   C908    1.471   .     S
C856   N858    1.379   .     A
N857   Zn867   2.022   .     S
N858   Zn868   2.022   .     S
O859   Zn867   2.026   .     S
O860   Zn868   2.026   .     S
O861   Zn868   2.009   .     S
O862   Zn867   2.009   .     S
O863   Zn867   1.996   .     S
O864   Zn868   1.996   .     S
O865   Zn868   1.993   .     S
O866   Zn867   1.993   .     S
O869   C870    1.410   .     S
O869   C915    1.384   .     S
C870   H872    1.109   .     S
C870   H873    1.110   .     S
C870   H941    1.112   .     S
H871   C1010   1.112   1_455 S
O874   C986    1.392   1_455 S
O874   C1015   1.423   1_455 S
C875   H877    1.116   .     S
C875   H878    1.109   .     S
C875   O944    1.423   .     S
C875   H946    1.099   .     S
H876   C1015   1.099   1_455 S
O879   C880    1.411   .     S
C880   H882    1.115   .     S
C880   H881    1.103   .     S
C880   H883    1.108   .     S
O884   C885    1.407   .     S
C885   H886    1.105   .     S
C885   H887    1.109   .     S
C885   H888    1.103   .     S
C889   O891    1.221   .     D
C889   H890    1.085   .     S
C892   H893    1.079   .     S
C892   O894    1.220   .     D
O895   C896    1.411   .     S
C896   H899    1.108   .     S
C896   H897    1.109   .     S
C896   H898    1.114   .     S
O900   C901    1.408   .     S
C901   H904    1.109   .     S
C901   H902    1.109   .     S
C901   H903    1.107   .     S
C905   H906    1.084   .     S
C905   O907    1.218   .     D
C908   O910    1.216   .     D
C908   H909    1.085   .     S
C911   O931    1.295   .     A
C911   C922    1.452   .     S
C911   O929    1.296   .     A
C912   O932    1.296   .     A
C912   C921    1.441   .     S
C912   O930    1.288   .     A
C913   O933    1.284   .     A
C913   C915    1.431   .     S
C913   O935    1.294   .     A
C914   O936    1.285   .     A
C914   O934    1.290   .     A
C914   C916    1.435   .     S
C916   C985    1.346   .     S
C916   O1014   1.392   .     S
C917   C922    1.408   .     A
C917   O949    1.387   .     S
C918   C921    1.401   .     A
C918   O954    1.397   .     S
C918   C1130   1.398   .     S
C919   C959    1.475   .     S
C919   C921    1.413   .     A
C919   C1127   1.389   .     S
C920   C962    1.489   .     S
C920   C922    1.407   .     A
C923   N928    1.371   .     A
C923   O965    1.392   .     S
C924   N927    1.352   .     A
C924   O970    1.372   .     S
C924   C1556   1.421   .     S
C925   N927    1.376   .     A
C925   C975    1.469   .     S
C925   C1553   1.447   .     S
C926   C978    1.471   .     S
C926   N928    1.379   .     A
N927   Zn937   2.022   .     S
N928   Zn938   2.022   .     S
O929   Zn937   2.026   .     S
O930   Zn938   2.026   .     S
O931   Zn938   2.009   .     S
O932   Zn937   2.009   .     S
O933   Zn937   1.996   .     S
O934   Zn938   1.996   .     S
O935   Zn938   1.993   .     S
O936   Zn937   1.993   .     S
O939   C940    1.410   .     S
O939   C985    1.384   .     S
C940   H942    1.109   .     S
C940   H943    1.110   .     S
C940   H1011   1.112   .     S
C945   H947    1.116   .     S
C945   H948    1.109   .     S
C945   O1014   1.423   .     S
C945   H1016   1.099   .     S
O949   C950    1.411   .     S
C950   H952    1.115   .     S
C950   H951    1.103   .     S
C950   H953    1.108   .     S
O954   C955    1.407   .     S
C955   H956    1.105   .     S
C955   H957    1.109   .     S
C955   H958    1.103   .     S
C959   O961    1.221   .     D
C959   H960    1.085   .     S
C962   H963    1.079   .     S
C962   O964    1.220   .     D
O965   C966    1.411   .     S
C966   H969    1.108   .     S
C966   H967    1.109   .     S
C966   H968    1.114   .     S
O970   C971    1.408   .     S
C971   H974    1.109   .     S
C971   H972    1.109   .     S
C971   H973    1.107   .     S
C975   H976    1.084   .     S
C975   O977    1.218   .     D
C978   O980    1.216   .     D
C978   H979    1.085   .     S
C981   O1001   1.295   .     A
C981   C992    1.452   .     S
C981   O999    1.296   .     A
C982   O1002   1.296   .     A
C982   C991    1.441   .     S
C982   O1000   1.288   .     A
C983   O1003   1.284   .     A
C983   C985    1.431   .     S
C983   O1005   1.294   .     A
C984   O1006   1.285   .     A
C984   O1004   1.290   .     A
C984   C986    1.435   .     S
C986   C845    1.346   1_655 S
C986   O874    1.392   1_655 S
C987   C992    1.408   .     A
C987   O1019   1.387   .     S
C988   C991    1.401   .     A
C988   O1024   1.397   .     S
C988   C1200   1.398   .     S
C989   C1029   1.475   .     S
C989   C991    1.413   .     A
C989   C1197   1.389   .     S
C990   C1032   1.489   .     S
C990   C992    1.407   .     A
C993   N998    1.371   .     A
C993   O1035   1.392   .     S
C994   N997    1.352   .     A
C994   O1040   1.372   .     S
C994   C1626   1.421   .     S
C995   N997    1.376   .     A
C995   C1045   1.469   .     S
C995   C1623   1.447   .     S
C996   C1048   1.471   .     S
C996   N998    1.379   .     A
N997   Zn1007  2.022   .     S
N998   Zn1008  2.022   .     S
O999   Zn1007  2.026   .     S
O1000  Zn1008  2.026   .     S
O1001  Zn1008  2.009   .     S
O1002  Zn1007  2.009   .     S
O1003  Zn1007  1.996   .     S
O1004  Zn1008  1.996   .     S
O1005  Zn1008  1.993   .     S
O1006  Zn1007  1.993   .     S
O1009  C1010   1.410   .     S
O1009  C845    1.384   1_655 S
C1010  H1012   1.109   .     S
C1010  H1013   1.110   .     S
C1010  H871    1.112   1_655 S
C1015  H1017   1.116   .     S
C1015  H1018   1.109   .     S
C1015  O874    1.423   1_655 S
C1015  H876    1.099   1_655 S
O1019  C1020   1.411   .     S
C1020  H1022   1.115   .     S
C1020  H1021   1.103   .     S
C1020  H1023   1.108   .     S
O1024  C1025   1.407   .     S
C1025  H1026   1.105   .     S
C1025  H1027   1.109   .     S
C1025  H1028   1.103   .     S
C1029  O1031   1.221   .     D
C1029  H1030   1.085   .     S
C1032  H1033   1.079   .     S
C1032  O1034   1.220   .     D
O1035  C1036   1.411   .     S
C1036  H1039   1.108   .     S
C1036  H1037   1.109   .     S
C1036  H1038   1.114   .     S
O1040  C1041   1.408   .     S
C1041  H1044   1.109   .     S
C1041  H1042   1.109   .     S
C1041  H1043   1.107   .     S
C1045  H1046   1.084   .     S
C1045  O1047   1.218   .     D
C1048  O1050   1.216   .     D
C1048  H1049   1.085   .     S
C1051  O1071   1.295   .     A
C1051  C1062   1.452   .     S
C1051  O1069   1.296   .     A
C1052  O1072   1.296   .     A
C1052  C1061   1.441   .     S
C1052  O1070   1.288   .     A
C1053  O1073   1.284   .     A
C1053  C1055   1.431   .     S
C1053  O1075   1.294   .     A
C1054  O1076   1.285   .     A
C1054  O1074   1.290   .     A
C1054  C1056   1.435   .     S
C1055  C1196   1.346   1_455 S
C1055  O1219   1.384   1_455 S
C1056  C1125   1.346   .     S
C1056  O1154   1.392   .     S
C1057  C1062   1.408   .     A
C1057  O1089   1.387   .     S
C1058  C1061   1.401   .     A
C1058  O1094   1.397   .     S
C1058  C640    1.398   1_565 S
C1059  C1099   1.475   .     S
C1059  C1061   1.413   .     A
C1059  C637    1.389   1_565 S
C1060  C1102   1.489   .     S
C1060  C1062   1.407   .     A
C1063  N1068   1.371   .     A
C1063  O1105   1.392   .     S
C1064  N1067   1.352   .     A
C1064  O1110   1.372   .     S
C1064  C1696   1.421   .     S
C1065  N1067   1.376   .     A
C1065  C1115   1.469   .     S
C1065  C1693   1.447   .     S
C1066  C1118   1.471   .     S
C1066  N1068   1.379   .     A
N1067  Zn1077  2.022   .     S
N1068  Zn1078  2.022   .     S
O1069  Zn1077  2.026   .     S
O1070  Zn1078  2.026   .     S
O1071  Zn1078  2.009   .     S
O1072  Zn1077  2.009   .     S
O1073  Zn1077  1.996   .     S
O1074  Zn1078  1.996   .     S
O1075  Zn1078  1.993   .     S
O1076  Zn1077  1.993   .     S
O1079  C1080   1.410   .     S
O1079  C1125   1.384   .     S
C1080  H1082   1.109   .     S
C1080  H1083   1.110   .     S
C1080  H1151   1.112   .     S
H1081  C1220   1.112   1_455 S
O1084  C1196   1.392   1_455 S
O1084  C1225   1.423   1_455 S
C1085  H1087   1.116   .     S
C1085  H1088   1.109   .     S
C1085  O1154   1.423   .     S
C1085  H1156   1.099   .     S
H1086  C1225   1.099   1_455 S
O1089  C1090   1.411   .     S
C1090  H1092   1.115   .     S
C1090  H1091   1.103   .     S
C1090  H1093   1.108   .     S
O1094  C1095   1.407   .     S
C1095  H1096   1.105   .     S
C1095  H1097   1.109   .     S
C1095  H1098   1.103   .     S
C1099  O1101   1.221   .     D
C1099  H1100   1.085   .     S
C1102  H1103   1.079   .     S
C1102  O1104   1.220   .     D
O1105  C1106   1.411   .     S
C1106  H1109   1.108   .     S
C1106  H1107   1.109   .     S
C1106  H1108   1.114   .     S
O1110  C1111   1.408   .     S
C1111  H1114   1.109   .     S
C1111  H1112   1.109   .     S
C1111  H1113   1.107   .     S
C1115  H1116   1.084   .     S
C1115  O1117   1.218   .     D
C1118  O1120   1.216   .     D
C1118  H1119   1.085   .     S
C1121  O1141   1.295   .     A
C1121  C1132   1.452   .     S
C1121  O1139   1.296   .     A
C1122  O1142   1.296   .     A
C1122  C1131   1.441   .     S
C1122  O1140   1.288   .     A
C1123  O1143   1.284   .     A
C1123  C1125   1.431   .     S
C1123  O1145   1.294   .     A
C1124  O1146   1.285   .     A
C1124  O1144   1.290   .     A
C1124  C1126   1.435   .     S
C1126  C1195   1.346   .     S
C1126  O1224   1.392   .     S
C1127  C1132   1.408   .     A
C1127  O1159   1.387   .     S
C1128  C1131   1.401   .     A
C1128  O1164   1.397   .     S
C1128  C710    1.398   1_565 S
C1129  C1169   1.475   .     S
C1129  C1131   1.413   .     A
C1129  C707    1.389   1_565 S
C1130  C1172   1.489   .     S
C1130  C1132   1.407   .     A
C1133  N1138   1.371   .     A
C1133  O1175   1.392   .     S
C1134  N1137   1.352   .     A
C1134  O1180   1.372   .     S
C1134  C1766   1.421   .     S
C1135  N1137   1.376   .     A
C1135  C1185   1.469   .     S
C1135  C1763   1.447   .     S
C1136  C1188   1.471   .     S
C1136  N1138   1.379   .     A
N1137  Zn1147  2.022   .     S
N1138  Zn1148  2.022   .     S
O1139  Zn1147  2.026   .     S
O1140  Zn1148  2.026   .     S
O1141  Zn1148  2.009   .     S
O1142  Zn1147  2.009   .     S
O1143  Zn1147  1.996   .     S
O1144  Zn1148  1.996   .     S
O1145  Zn1148  1.993   .     S
O1146  Zn1147  1.993   .     S
O1149  C1150   1.410   .     S
O1149  C1195   1.384   .     S
C1150  H1152   1.109   .     S
C1150  H1153   1.110   .     S
C1150  H1221   1.112   .     S
C1155  H1157   1.116   .     S
C1155  H1158   1.109   .     S
C1155  O1224   1.423   .     S
C1155  H1226   1.099   .     S
O1159  C1160   1.411   .     S
C1160  H1162   1.115   .     S
C1160  H1161   1.103   .     S
C1160  H1163   1.108   .     S
O1164  C1165   1.407   .     S
C1165  H1166   1.105   .     S
C1165  H1167   1.109   .     S
C1165  H1168   1.103   .     S
C1169  O1171   1.221   .     D
C1169  H1170   1.085   .     S
C1172  H1173   1.079   .     S
C1172  O1174   1.220   .     D
O1175  C1176   1.411   .     S
C1176  H1179   1.108   .     S
C1176  H1177   1.109   .     S
C1176  H1178   1.114   .     S
O1180  C1181   1.408   .     S
C1181  H1184   1.109   .     S
C1181  H1182   1.109   .     S
C1181  H1183   1.107   .     S
C1185  H1186   1.084   .     S
C1185  O1187   1.218   .     D
C1188  O1190   1.216   .     D
C1188  H1189   1.085   .     S
C1191  O1211   1.295   .     A
C1191  C1202   1.452   .     S
C1191  O1209   1.296   .     A
C1192  O1212   1.296   .     A
C1192  C1201   1.441   .     S
C1192  O1210   1.288   .     A
C1193  O1213   1.284   .     A
C1193  C1195   1.431   .     S
C1193  O1215   1.294   .     A
C1194  O1216   1.285   .     A
C1194  O1214   1.290   .     A
C1194  C1196   1.435   .     S
C1196  C1055   1.346   1_655 S
C1196  O1084   1.392   1_655 S
C1197  C1202   1.408   .     A
C1197  O1229   1.387   .     S
C1198  C1201   1.401   .     A
C1198  O1234   1.397   .     S
C1198  C780    1.398   1_565 S
C1199  C1239   1.475   .     S
C1199  C1201   1.413   .     A
C1199  C777    1.389   1_565 S
C1200  C1242   1.489   .     S
C1200  C1202   1.407   .     A
C1203  N1208   1.371   .     A
C1203  O1245   1.392   .     S
C1204  N1207   1.352   .     A
C1204  O1250   1.372   .     S
C1204  C1836   1.421   .     S
C1205  N1207   1.376   .     A
C1205  C1255   1.469   .     S
C1205  C1833   1.447   .     S
C1206  C1258   1.471   .     S
C1206  N1208   1.379   .     A
N1207  Zn1217  2.022   .     S
N1208  Zn1218  2.022   .     S
O1209  Zn1217  2.026   .     S
O1210  Zn1218  2.026   .     S
O1211  Zn1218  2.009   .     S
O1212  Zn1217  2.009   .     S
O1213  Zn1217  1.996   .     S
O1214  Zn1218  1.996   .     S
O1215  Zn1218  1.993   .     S
O1216  Zn1217  1.993   .     S
O1219  C1220   1.410   .     S
O1219  C1055   1.384   1_655 S
C1220  H1222   1.109   .     S
C1220  H1223   1.110   .     S
C1220  H1081   1.112   1_655 S
C1225  H1227   1.116   .     S
C1225  H1228   1.109   .     S
C1225  O1084   1.423   1_655 S
C1225  H1086   1.099   1_655 S
O1229  C1230   1.411   .     S
C1230  H1232   1.115   .     S
C1230  H1231   1.103   .     S
C1230  H1233   1.108   .     S
O1234  C1235   1.407   .     S
C1235  H1236   1.105   .     S
C1235  H1237   1.109   .     S
C1235  H1238   1.103   .     S
C1239  O1241   1.221   .     D
C1239  H1240   1.085   .     S
C1242  H1243   1.079   .     S
C1242  O1244   1.220   .     D
O1245  C1246   1.411   .     S
C1246  H1249   1.108   .     S
C1246  H1247   1.109   .     S
C1246  H1248   1.114   .     S
O1250  C1251   1.408   .     S
C1251  H1254   1.109   .     S
C1251  H1252   1.109   .     S
C1251  H1253   1.107   .     S
C1255  H1256   1.084   .     S
C1255  O1257   1.218   .     D
C1258  O1260   1.216   .     D
C1258  H1259   1.085   .     S
C1261  O1281   1.295   .     A
C1261  C1272   1.452   .     S
C1261  O1279   1.296   .     A
C1262  O1282   1.296   .     A
C1262  C1271   1.441   .     S
C1262  O1280   1.288   .     A
C1263  O1283   1.284   .     A
C1263  C1265   1.431   .     S
C1263  O1285   1.294   .     A
C1264  O1286   1.285   .     A
C1264  O1284   1.290   .     A
C1264  C1266   1.435   .     S
C1265  C1406   1.346   1_455 S
C1265  O1429   1.384   1_455 S
C1266  C1335   1.346   .     S
C1266  O1364   1.392   .     S
C1267  C1272   1.408   .     A
C1267  O1299   1.387   .     S
C1267  C1689   1.389   1_545 S
C1268  C1271   1.401   .     A
C1268  O1304   1.397   .     S
C1268  C1480   1.398   .     S
C1269  C1309   1.475   .     S
C1269  C1271   1.413   .     A
C1269  C1477   1.389   .     S
C1270  C1312   1.489   .     S
C1270  C1272   1.407   .     A
C1270  C1688   1.398   1_545 S
C1273  N1278   1.371   .     A
C1273  O1315   1.392   .     S
C1274  N1277   1.352   .     A
C1274  O1320   1.372   .     S
C1274  C16     1.421   1_556 S
C1275  N1277   1.376   .     A
C1275  C1325   1.469   .     S
C1275  C13     1.447   1_556 S
C1276  C1328   1.471   .     S
C1276  N1278   1.379   .     A
N1277  Zn1287  2.022   .     S
N1278  Zn1288  2.022   .     S
O1279  Zn1287  2.026   .     S
O1280  Zn1288  2.026   .     S
O1281  Zn1288  2.009   .     S
O1282  Zn1287  2.009   .     S
O1283  Zn1287  1.996   .     S
O1284  Zn1288  1.996   .     S
O1285  Zn1288  1.993   .     S
O1286  Zn1287  1.993   .     S
O1289  C1290   1.410   .     S
O1289  C1335   1.384   .     S
C1290  H1292   1.109   .     S
C1290  H1293   1.110   .     S
C1290  H1361   1.112   .     S
H1291  C1430   1.112   1_455 S
O1294  C1406   1.392   1_455 S
O1294  C1435   1.423   1_455 S
C1295  H1297   1.116   .     S
C1295  H1298   1.109   .     S
C1295  O1364   1.423   .     S
C1295  H1366   1.099   .     S
H1296  C1435   1.099   1_455 S
O1299  C1300   1.411   .     S
C1300  H1302   1.115   .     S
C1300  H1301   1.103   .     S
C1300  H1303   1.108   .     S
O1304  C1305   1.407   .     S
C1305  H1306   1.105   .     S
C1305  H1307   1.109   .     S
C1305  H1308   1.103   .     S
C1309  O1311   1.221   .     D
C1309  H1310   1.085   .     S
C1312  H1313   1.079   .     S
C1312  O1314   1.220   .     D
O1315  C1316   1.411   .     S
C1316  H1319   1.108   .     S
C1316  H1317   1.109   .     S
C1316  H1318   1.114   .     S
O1320  C1321   1.408   .     S
C1321  H1324   1.109   .     S
C1321  H1322   1.109   .     S
C1321  H1323   1.107   .     S
C1325  H1326   1.084   .     S
C1325  O1327   1.218   .     D
C1328  O1330   1.216   .     D
C1328  H1329   1.085   .     S
C1331  O1351   1.295   .     A
C1331  C1342   1.452   .     S
C1331  O1349   1.296   .     A
C1332  O1352   1.296   .     A
C1332  C1341   1.441   .     S
C1332  O1350   1.288   .     A
C1333  O1353   1.284   .     A
C1333  C1335   1.431   .     S
C1333  O1355   1.294   .     A
C1334  O1356   1.285   .     A
C1334  O1354   1.290   .     A
C1334  C1336   1.435   .     S
C1336  C1405   1.346   .     S
C1336  O1434   1.392   .     S
C1337  C1342   1.408   .     A
C1337  O1369   1.387   .     S
C1337  C1759   1.389   1_545 S
C1338  C1341   1.401   .     A
C1338  O1374   1.397   .     S
C1338  C1550   1.398   .     S
C1339  C1379   1.475   .     S
C1339  C1341   1.413   .     A
C1339  C1547   1.389   .     S
C1340  C1382   1.489   .     S
C1340  C1342   1.407   .     A
C1340  C1758   1.398   1_545 S
C1343  N1348   1.371   .     A
C1343  O1385   1.392   .     S
C1344  N1347   1.352   .     A
C1344  O1390   1.372   .     S
C1344  C86     1.421   1_556 S
C1345  N1347   1.376   .     A
C1345  C1395   1.469   .     S
C1345  C83     1.447   1_556 S
C1346  C1398   1.471   .     S
C1346  N1348   1.379   .     A
N1347  Zn1357  2.022   .     S
N1348  Zn1358  2.022   .     S
O1349  Zn1357  2.026   .     S
O1350  Zn1358  2.026   .     S
O1351  Zn1358  2.009   .     S
O1352  Zn1357  2.009   .     S
O1353  Zn1357  1.996   .     S
O1354  Zn1358  1.996   .     S
O1355  Zn1358  1.993   .     S
O1356  Zn1357  1.993   .     S
O1359  C1360   1.410   .     S
O1359  C1405   1.384   .     S
C1360  H1362   1.109   .     S
C1360  H1363   1.110   .     S
C1360  H1431   1.112   .     S
C1365  H1367   1.116   .     S
C1365  H1368   1.109   .     S
C1365  O1434   1.423   .     S
C1365  H1436   1.099   .     S
O1369  C1370   1.411   .     S
C1370  H1372   1.115   .     S
C1370  H1371   1.103   .     S
C1370  H1373   1.108   .     S
O1374  C1375   1.407   .     S
C1375  H1376   1.105   .     S
C1375  H1377   1.109   .     S
C1375  H1378   1.103   .     S
C1379  O1381   1.221   .     D
C1379  H1380   1.085   .     S
C1382  H1383   1.079   .     S
C1382  O1384   1.220   .     D
O1385  C1386   1.411   .     S
C1386  H1389   1.108   .     S
C1386  H1387   1.109   .     S
C1386  H1388   1.114   .     S
O1390  C1391   1.408   .     S
C1391  H1394   1.109   .     S
C1391  H1392   1.109   .     S
C1391  H1393   1.107   .     S
C1395  H1396   1.084   .     S
C1395  O1397   1.218   .     D
C1398  O1400   1.216   .     D
C1398  H1399   1.085   .     S
C1401  O1421   1.295   .     A
C1401  C1412   1.452   .     S
C1401  O1419   1.296   .     A
C1402  O1422   1.296   .     A
C1402  C1411   1.441   .     S
C1402  O1420   1.288   .     A
C1403  O1423   1.284   .     A
C1403  C1405   1.431   .     S
C1403  O1425   1.294   .     A
C1404  O1426   1.285   .     A
C1404  O1424   1.290   .     A
C1404  C1406   1.435   .     S
C1406  C1265   1.346   1_655 S
C1406  O1294   1.392   1_655 S
C1407  C1412   1.408   .     A
C1407  O1439   1.387   .     S
C1407  C1829   1.389   1_545 S
C1408  C1411   1.401   .     A
C1408  O1444   1.397   .     S
C1408  C1620   1.398   .     S
C1409  C1449   1.475   .     S
C1409  C1411   1.413   .     A
C1409  C1617   1.389   .     S
C1410  C1452   1.489   .     S
C1410  C1412   1.407   .     A
C1410  C1828   1.398   1_545 S
C1413  N1418   1.371   .     A
C1413  O1455   1.392   .     S
C1414  N1417   1.352   .     A
C1414  O1460   1.372   .     S
C1414  C156    1.421   1_556 S
C1415  N1417   1.376   .     A
C1415  C1465   1.469   .     S
C1415  C153    1.447   1_556 S
C1416  C1468   1.471   .     S
C1416  N1418   1.379   .     A
N1417  Zn1427  2.022   .     S
N1418  Zn1428  2.022   .     S
O1419  Zn1427  2.026   .     S
O1420  Zn1428  2.026   .     S
O1421  Zn1428  2.009   .     S
O1422  Zn1427  2.009   .     S
O1423  Zn1427  1.996   .     S
O1424  Zn1428  1.996   .     S
O1425  Zn1428  1.993   .     S
O1426  Zn1427  1.993   .     S
O1429  C1430   1.410   .     S
O1429  C1265   1.384   1_655 S
C1430  H1432   1.109   .     S
C1430  H1433   1.110   .     S
C1430  H1291   1.112   1_655 S
C1435  H1437   1.116   .     S
C1435  H1438   1.109   .     S
C1435  O1294   1.423   1_655 S
C1435  H1296   1.099   1_655 S
O1439  C1440   1.411   .     S
C1440  H1442   1.115   .     S
C1440  H1441   1.103   .     S
C1440  H1443   1.108   .     S
O1444  C1445   1.407   .     S
C1445  H1446   1.105   .     S
C1445  H1447   1.109   .     S
C1445  H1448   1.103   .     S
C1449  O1451   1.221   .     D
C1449  H1450   1.085   .     S
C1452  H1453   1.079   .     S
C1452  O1454   1.220   .     D
O1455  C1456   1.411   .     S
C1456  H1459   1.108   .     S
C1456  H1457   1.109   .     S
C1456  H1458   1.114   .     S
O1460  C1461   1.408   .     S
C1461  H1464   1.109   .     S
C1461  H1462   1.109   .     S
C1461  H1463   1.107   .     S
C1465  H1466   1.084   .     S
C1465  O1467   1.218   .     D
C1468  O1470   1.216   .     D
C1468  H1469   1.085   .     S
C1471  O1491   1.295   .     A
C1471  C1482   1.452   .     S
C1471  O1489   1.296   .     A
C1472  O1492   1.296   .     A
C1472  C1481   1.441   .     S
C1472  O1490   1.288   .     A
C1473  O1493   1.284   .     A
C1473  C1475   1.431   .     S
C1473  O1495   1.294   .     A
C1474  O1496   1.285   .     A
C1474  O1494   1.290   .     A
C1474  C1476   1.435   .     S
C1475  C1616   1.346   1_455 S
C1475  O1639   1.384   1_455 S
C1476  C1545   1.346   .     S
C1476  O1574   1.392   .     S
C1477  C1482   1.408   .     A
C1477  O1509   1.387   .     S
C1478  C1481   1.401   .     A
C1478  O1514   1.397   .     S
C1478  C1690   1.398   .     S
C1479  C1519   1.475   .     S
C1479  C1481   1.413   .     A
C1479  C1687   1.389   .     S
C1480  C1522   1.489   .     S
C1480  C1482   1.407   .     A
C1483  N1488   1.371   .     A
C1483  O1525   1.392   .     S
C1484  N1487   1.352   .     A
C1484  O1530   1.372   .     S
C1484  C226    1.421   1_556 S
C1485  N1487   1.376   .     A
C1485  C1535   1.469   .     S
C1485  C223    1.447   1_556 S
C1486  C1538   1.471   .     S
C1486  N1488   1.379   .     A
N1487  Zn1497  2.022   .     S
N1488  Zn1498  2.022   .     S
O1489  Zn1497  2.026   .     S
O1490  Zn1498  2.026   .     S
O1491  Zn1498  2.009   .     S
O1492  Zn1497  2.009   .     S
O1493  Zn1497  1.996   .     S
O1494  Zn1498  1.996   .     S
O1495  Zn1498  1.993   .     S
O1496  Zn1497  1.993   .     S
O1499  C1500   1.410   .     S
O1499  C1545   1.384   .     S
C1500  H1502   1.109   .     S
C1500  H1503   1.110   .     S
C1500  H1571   1.112   .     S
H1501  C1640   1.112   1_455 S
O1504  C1616   1.392   1_455 S
O1504  C1645   1.423   1_455 S
C1505  H1507   1.116   .     S
C1505  H1508   1.109   .     S
C1505  O1574   1.423   .     S
C1505  H1576   1.099   .     S
H1506  C1645   1.099   1_455 S
O1509  C1510   1.411   .     S
C1510  H1512   1.115   .     S
C1510  H1511   1.103   .     S
C1510  H1513   1.108   .     S
O1514  C1515   1.407   .     S
C1515  H1516   1.105   .     S
C1515  H1517   1.109   .     S
C1515  H1518   1.103   .     S
C1519  O1521   1.221   .     D
C1519  H1520   1.085   .     S
C1522  H1523   1.079   .     S
C1522  O1524   1.220   .     D
O1525  C1526   1.411   .     S
C1526  H1529   1.108   .     S
C1526  H1527   1.109   .     S
C1526  H1528   1.114   .     S
O1530  C1531   1.408   .     S
C1531  H1534   1.109   .     S
C1531  H1532   1.109   .     S
C1531  H1533   1.107   .     S
C1535  H1536   1.084   .     S
C1535  O1537   1.218   .     D
C1538  O1540   1.216   .     D
C1538  H1539   1.085   .     S
C1541  O1561   1.295   .     A
C1541  C1552   1.452   .     S
C1541  O1559   1.296   .     A
C1542  O1562   1.296   .     A
C1542  C1551   1.441   .     S
C1542  O1560   1.288   .     A
C1543  O1563   1.284   .     A
C1543  C1545   1.431   .     S
C1543  O1565   1.294   .     A
C1544  O1566   1.285   .     A
C1544  O1564   1.290   .     A
C1544  C1546   1.435   .     S
C1546  C1615   1.346   .     S
C1546  O1644   1.392   .     S
C1547  C1552   1.408   .     A
C1547  O1579   1.387   .     S
C1548  C1551   1.401   .     A
C1548  O1584   1.397   .     S
C1548  C1760   1.398   .     S
C1549  C1589   1.475   .     S
C1549  C1551   1.413   .     A
C1549  C1757   1.389   .     S
C1550  C1592   1.489   .     S
C1550  C1552   1.407   .     A
C1553  N1558   1.371   .     A
C1553  O1595   1.392   .     S
C1554  N1557   1.352   .     A
C1554  O1600   1.372   .     S
C1554  C296    1.421   1_556 S
C1555  N1557   1.376   .     A
C1555  C1605   1.469   .     S
C1555  C293    1.447   1_556 S
C1556  C1608   1.471   .     S
C1556  N1558   1.379   .     A
N1557  Zn1567  2.022   .     S
N1558  Zn1568  2.022   .     S
O1559  Zn1567  2.026   .     S
O1560  Zn1568  2.026   .     S
O1561  Zn1568  2.009   .     S
O1562  Zn1567  2.009   .     S
O1563  Zn1567  1.996   .     S
O1564  Zn1568  1.996   .     S
O1565  Zn1568  1.993   .     S
O1566  Zn1567  1.993   .     S
O1569  C1570   1.410   .     S
O1569  C1615   1.384   .     S
C1570  H1572   1.109   .     S
C1570  H1573   1.110   .     S
C1570  H1641   1.112   .     S
C1575  H1577   1.116   .     S
C1575  H1578   1.109   .     S
C1575  O1644   1.423   .     S
C1575  H1646   1.099   .     S
O1579  C1580   1.411   .     S
C1580  H1582   1.115   .     S
C1580  H1581   1.103   .     S
C1580  H1583   1.108   .     S
O1584  C1585   1.407   .     S
C1585  H1586   1.105   .     S
C1585  H1587   1.109   .     S
C1585  H1588   1.103   .     S
C1589  O1591   1.221   .     D
C1589  H1590   1.085   .     S
C1592  H1593   1.079   .     S
C1592  O1594   1.220   .     D
O1595  C1596   1.411   .     S
C1596  H1599   1.108   .     S
C1596  H1597   1.109   .     S
C1596  H1598   1.114   .     S
O1600  C1601   1.408   .     S
C1601  H1604   1.109   .     S
C1601  H1602   1.109   .     S
C1601  H1603   1.107   .     S
C1605  H1606   1.084   .     S
C1605  O1607   1.218   .     D
C1608  O1610   1.216   .     D
C1608  H1609   1.085   .     S
C1611  O1631   1.295   .     A
C1611  C1622   1.452   .     S
C1611  O1629   1.296   .     A
C1612  O1632   1.296   .     A
C1612  C1621   1.441   .     S
C1612  O1630   1.288   .     A
C1613  O1633   1.284   .     A
C1613  C1615   1.431   .     S
C1613  O1635   1.294   .     A
C1614  O1636   1.285   .     A
C1614  O1634   1.290   .     A
C1614  C1616   1.435   .     S
C1616  C1475   1.346   1_655 S
C1616  O1504   1.392   1_655 S
C1617  C1622   1.408   .     A
C1617  O1649   1.387   .     S
C1618  C1621   1.401   .     A
C1618  O1654   1.397   .     S
C1618  C1830   1.398   .     S
C1619  C1659   1.475   .     S
C1619  C1621   1.413   .     A
C1619  C1827   1.389   .     S
C1620  C1662   1.489   .     S
C1620  C1622   1.407   .     A
C1623  N1628   1.371   .     A
C1623  O1665   1.392   .     S
C1624  N1627   1.352   .     A
C1624  O1670   1.372   .     S
C1624  C366    1.421   1_556 S
C1625  N1627   1.376   .     A
C1625  C1675   1.469   .     S
C1625  C363    1.447   1_556 S
C1626  C1678   1.471   .     S
C1626  N1628   1.379   .     A
N1627  Zn1637  2.022   .     S
N1628  Zn1638  2.022   .     S
O1629  Zn1637  2.026   .     S
O1630  Zn1638  2.026   .     S
O1631  Zn1638  2.009   .     S
O1632  Zn1637  2.009   .     S
O1633  Zn1637  1.996   .     S
O1634  Zn1638  1.996   .     S
O1635  Zn1638  1.993   .     S
O1636  Zn1637  1.993   .     S
O1639  C1640   1.410   .     S
O1639  C1475   1.384   1_655 S
C1640  H1642   1.109   .     S
C1640  H1643   1.110   .     S
C1640  H1501   1.112   1_655 S
C1645  H1647   1.116   .     S
C1645  H1648   1.109   .     S
C1645  O1504   1.423   1_655 S
C1645  H1506   1.099   1_655 S
O1649  C1650   1.411   .     S
C1650  H1652   1.115   .     S
C1650  H1651   1.103   .     S
C1650  H1653   1.108   .     S
O1654  C1655   1.407   .     S
C1655  H1656   1.105   .     S
C1655  H1657   1.109   .     S
C1655  H1658   1.103   .     S
C1659  O1661   1.221   .     D
C1659  H1660   1.085   .     S
C1662  H1663   1.079   .     S
C1662  O1664   1.220   .     D
O1665  C1666   1.411   .     S
C1666  H1669   1.108   .     S
C1666  H1667   1.109   .     S
C1666  H1668   1.114   .     S
O1670  C1671   1.408   .     S
C1671  H1674   1.109   .     S
C1671  H1672   1.109   .     S
C1671  H1673   1.107   .     S
C1675  H1676   1.084   .     S
C1675  O1677   1.218   .     D
C1678  O1680   1.216   .     D
C1678  H1679   1.085   .     S
C1681  O1701   1.295   .     A
C1681  C1692   1.452   .     S
C1681  O1699   1.296   .     A
C1682  O1702   1.296   .     A
C1682  C1691   1.441   .     S
C1682  O1700   1.288   .     A
C1683  O1703   1.284   .     A
C1683  C1685   1.431   .     S
C1683  O1705   1.294   .     A
C1684  O1706   1.285   .     A
C1684  O1704   1.290   .     A
C1684  C1686   1.435   .     S
C1685  C1826   1.346   1_455 S
C1685  O1849   1.384   1_455 S
C1686  C1755   1.346   .     S
C1686  O1784   1.392   .     S
C1687  C1692   1.408   .     A
C1687  O1719   1.387   .     S
C1688  C1691   1.401   .     A
C1688  O1724   1.397   .     S
C1688  C1270   1.398   1_565 S
C1689  C1729   1.475   .     S
C1689  C1691   1.413   .     A
C1689  C1267   1.389   1_565 S
C1690  C1732   1.489   .     S
C1690  C1692   1.407   .     A
C1693  N1698   1.371   .     A
C1693  O1735   1.392   .     S
C1694  N1697   1.352   .     A
C1694  O1740   1.372   .     S
C1694  C436    1.421   1_556 S
C1695  N1697   1.376   .     A
C1695  C1745   1.469   .     S
C1695  C433    1.447   1_556 S
C1696  C1748   1.471   .     S
C1696  N1698   1.379   .     A
N1697  Zn1707  2.022   .     S
N1698  Zn1708  2.022   .     S
O1699  Zn1707  2.026   .     S
O1700  Zn1708  2.026   .     S
O1701  Zn1708  2.009   .     S
O1702  Zn1707  2.009   .     S
O1703  Zn1707  1.996   .     S
O1704  Zn1708  1.996   .     S
O1705  Zn1708  1.993   .     S
O1706  Zn1707  1.993   .     S
O1709  C1710   1.410   .     S
O1709  C1755   1.384   .     S
C1710  H1712   1.109   .     S
C1710  H1713   1.110   .     S
C1710  H1781   1.112   .     S
H1711  C1850   1.112   1_455 S
O1714  C1826   1.392   1_455 S
O1714  C1855   1.423   1_455 S
C1715  H1717   1.116   .     S
C1715  H1718   1.109   .     S
C1715  O1784   1.423   .     S
C1715  H1786   1.099   .     S
H1716  C1855   1.099   1_455 S
O1719  C1720   1.411   .     S
C1720  H1722   1.115   .     S
C1720  H1721   1.103   .     S
C1720  H1723   1.108   .     S
O1724  C1725   1.407   .     S
C1725  H1726   1.105   .     S
C1725  H1727   1.109   .     S
C1725  H1728   1.103   .     S
C1729  O1731   1.221   .     D
C1729  H1730   1.085   .     S
C1732  H1733   1.079   .     S
C1732  O1734   1.220   .     D
O1735  C1736   1.411   .     S
C1736  H1739   1.108   .     S
C1736  H1737   1.109   .     S
C1736  H1738   1.114   .     S
O1740  C1741   1.408   .     S
C1741  H1744   1.109   .     S
C1741  H1742   1.109   .     S
C1741  H1743   1.107   .     S
C1745  H1746   1.084   .     S
C1745  O1747   1.218   .     D
C1748  O1750   1.216   .     D
C1748  H1749   1.085   .     S
C1751  O1771   1.295   .     A
C1751  C1762   1.452   .     S
C1751  O1769   1.296   .     A
C1752  O1772   1.296   .     A
C1752  C1761   1.441   .     S
C1752  O1770   1.288   .     A
C1753  O1773   1.284   .     A
C1753  C1755   1.431   .     S
C1753  O1775   1.294   .     A
C1754  O1776   1.285   .     A
C1754  O1774   1.290   .     A
C1754  C1756   1.435   .     S
C1756  C1825   1.346   .     S
C1756  O1854   1.392   .     S
C1757  C1762   1.408   .     A
C1757  O1789   1.387   .     S
C1758  C1761   1.401   .     A
C1758  O1794   1.397   .     S
C1758  C1340   1.398   1_565 S
C1759  C1799   1.475   .     S
C1759  C1761   1.413   .     A
C1759  C1337   1.389   1_565 S
C1760  C1802   1.489   .     S
C1760  C1762   1.407   .     A
C1763  N1768   1.371   .     A
C1763  O1805   1.392   .     S
C1764  N1767   1.352   .     A
C1764  O1810   1.372   .     S
C1764  C506    1.421   1_556 S
C1765  N1767   1.376   .     A
C1765  C1815   1.469   .     S
C1765  C503    1.447   1_556 S
C1766  C1818   1.471   .     S
C1766  N1768   1.379   .     A
N1767  Zn1777  2.022   .     S
N1768  Zn1778  2.022   .     S
O1769  Zn1777  2.026   .     S
O1770  Zn1778  2.026   .     S
O1771  Zn1778  2.009   .     S
O1772  Zn1777  2.009   .     S
O1773  Zn1777  1.996   .     S
O1774  Zn1778  1.996   .     S
O1775  Zn1778  1.993   .     S
O1776  Zn1777  1.993   .     S
O1779  C1780   1.410   .     S
O1779  C1825   1.384   .     S
C1780  H1782   1.109   .     S
C1780  H1783   1.110   .     S
C1780  H1851   1.112   .     S
C1785  H1787   1.116   .     S
C1785  H1788   1.109   .     S
C1785  O1854   1.423   .     S
C1785  H1856   1.099   .     S
O1789  C1790   1.411   .     S
C1790  H1792   1.115   .     S
C1790  H1791   1.103   .     S
C1790  H1793   1.108   .     S
O1794  C1795   1.407   .     S
C1795  H1796   1.105   .     S
C1795  H1797   1.109   .     S
C1795  H1798   1.103   .     S
C1799  O1801   1.221   .     D
C1799  H1800   1.085   .     S
C1802  H1803   1.079   .     S
C1802  O1804   1.220   .     D
O1805  C1806   1.411   .     S
C1806  H1809   1.108   .     S
C1806  H1807   1.109   .     S
C1806  H1808   1.114   .     S
O1810  C1811   1.408   .     S
C1811  H1814   1.109   .     S
C1811  H1812   1.109   .     S
C1811  H1813   1.107   .     S
C1815  H1816   1.084   .     S
C1815  O1817   1.218   .     D
C1818  O1820   1.216   .     D
C1818  H1819   1.085   .     S
C1821  O1841   1.295   .     A
C1821  C1832   1.452   .     S
C1821  O1839   1.296   .     A
C1822  O1842   1.296   .     A
C1822  C1831   1.441   .     S
C1822  O1840   1.288   .     A
C1823  O1843   1.284   .     A
C1823  C1825   1.431   .     S
C1823  O1845   1.294   .     A
C1824  O1846   1.285   .     A
C1824  O1844   1.290   .     A
C1824  C1826   1.435   .     S
C1826  C1685   1.346   1_655 S
C1826  O1714   1.392   1_655 S
C1827  C1832   1.408   .     A
C1827  O1859   1.387   .     S
C1828  C1831   1.401   .     A
C1828  O1864   1.397   .     S
C1828  C1410   1.398   1_565 S
C1829  C1869   1.475   .     S
C1829  C1831   1.413   .     A
C1829  C1407   1.389   1_565 S
C1830  C1872   1.489   .     S
C1830  C1832   1.407   .     A
C1833  N1838   1.371   .     A
C1833  O1875   1.392   .     S
C1834  N1837   1.352   .     A
C1834  O1880   1.372   .     S
C1834  C576    1.421   1_556 S
C1835  N1837   1.376   .     A
C1835  C1885   1.469   .     S
C1835  C573    1.447   1_556 S
C1836  C1888   1.471   .     S
C1836  N1838   1.379   .     A
N1837  Zn1847  2.022   .     S
N1838  Zn1848  2.022   .     S
O1839  Zn1847  2.026   .     S
O1840  Zn1848  2.026   .     S
O1841  Zn1848  2.009   .     S
O1842  Zn1847  2.009   .     S
O1843  Zn1847  1.996   .     S
O1844  Zn1848  1.996   .     S
O1845  Zn1848  1.993   .     S
O1846  Zn1847  1.993   .     S
O1849  C1850   1.410   .     S
O1849  C1685   1.384   1_655 S
C1850  H1852   1.109   .     S
C1850  H1853   1.110   .     S
C1850  H1711   1.112   1_655 S
C1855  H1857   1.116   .     S
C1855  H1858   1.109   .     S
C1855  O1714   1.423   1_655 S
C1855  H1716   1.099   1_655 S
O1859  C1860   1.411   .     S
C1860  H1862   1.115   .     S
C1860  H1861   1.103   .     S
C1860  H1863   1.108   .     S
O1864  C1865   1.407   .     S
C1865  H1866   1.105   .     S
C1865  H1867   1.109   .     S
C1865  H1868   1.103   .     S
C1869  O1871   1.221   .     D
C1869  H1870   1.085   .     S
C1872  H1873   1.079   .     S
C1872  O1874   1.220   .     D
O1875  C1876   1.411   .     S
C1876  H1879   1.108   .     S
C1876  H1877   1.109   .     S
C1876  H1878   1.114   .     S
O1880  C1881   1.408   .     S
C1881  H1884   1.109   .     S
C1881  H1882   1.109   .     S
C1881  H1883   1.107   .     S
C1885  H1886   1.084   .     S
C1885  O1887   1.218   .     D
C1888  O1890   1.216   .     D
C1888  H1889   1.085   .     S
