data_str_m3_o1_o5_pcu_sym.31
_audit_creation_date              2020-01-03
_audit_creation_method            'Materials Studio'
_symmetry_space_group_name_H-M    'P1'
_symmetry_Int_Tables_number       1
_symmetry_cell_setting            triclinic
loop_
_symmetry_equiv_pos_as_xyz
  x,y,z
_cell_length_a                    31.9276
_cell_length_b                    29.6213
_cell_length_c                    26.7522
_cell_angle_alpha                 90.0509
_cell_angle_beta                  89.9281
_cell_angle_gamma                 90.1458
loop_
_atom_site_label
_atom_site_type_symbol
_atom_site_fract_x
_atom_site_fract_y
_atom_site_fract_z
_atom_site_U_iso_or_equiv
_atom_site_adp_type
_atom_site_occupancy
C1     C     0.08687   0.16660   0.16679   0.00000  Uiso   1.00
C2     C     0.02159   0.17681   0.21193   0.00000  Uiso   1.00
C3     C     0.29066   0.16694   0.16628   0.00000  Uiso   1.00
C4     C     0.04267   0.16639   0.16705   0.00000  Uiso   1.00
C5     C     0.19353   0.02404   0.19659   0.00000  Uiso   1.00
C6     C     0.13981   0.30929   0.13674   0.00000  Uiso   1.00
C7     C     0.13981   0.02385   0.13674   0.00000  Uiso   1.00
C8     C     0.19353   0.30948   0.19660   0.00000  Uiso   1.00
C9     C     0.04760   0.14531   0.07520   0.00000  Uiso   1.00
C10    C     0.28573   0.18802   0.25813   0.00000  Uiso   1.00
C11    C     0.28817   0.14697   0.07313   0.00000  Uiso   1.00
C12    C     0.24647   0.16674   0.16655   0.00000  Uiso   1.00
C13    C     0.04516   0.18637   0.26020   0.00000  Uiso   1.00
C14    C     0.16639   0.16666   0.07290   0.00000  Uiso   1.00
C15    C     0.16695   0.16668   0.26044   0.00000  Uiso   1.00
C16    C     0.16656   0.16665   0.02179   0.00000  Uiso   1.00
C17    C     0.16677   0.16668   0.31154   0.00000  Uiso   1.00
C18    C     0.02209   0.15602   0.12194   0.00000  Uiso   1.00
C19    C     0.31125   0.17731   0.21139   0.00000  Uiso   1.00
C20    C     0.31174   0.15652   0.12141   0.00000  Uiso   1.00
H21    H     0.21503   0.04219   0.22057   0.00000  Uiso   1.00
H22    H     0.30457   0.19573   0.29166   0.00000  Uiso   1.00
H23    H     0.25376   0.14946   0.07636   0.00000  Uiso   1.00
H24    H     0.29761   0.17189   0.04430   0.00000  Uiso   1.00
H25    H     0.29523   0.11225   0.05997   0.00000  Uiso   1.00
H26    H     0.07957   0.18387   0.25697   0.00000  Uiso   1.00
H27    H     0.03811   0.22108   0.27337   0.00000  Uiso   1.00
H28    H     0.03572   0.16145   0.28903   0.00000  Uiso   1.00
H29    H     0.11830   0.29114   0.11277   0.00000  Uiso   1.00
H30    H     0.11830   0.04185   0.11277   0.00000  Uiso   1.00
H31    H     0.21503   0.29149   0.22056   0.00000  Uiso   1.00
H32    H     0.06750   0.11527   0.08198   0.00000  Uiso   1.00
H33    H     0.02876   0.13760   0.04168   0.00000  Uiso   1.00
H34    H     0.06799   0.17453   0.06578   0.00000  Uiso   1.00
H35    H     0.26583   0.21806   0.25136   0.00000  Uiso   1.00
H36    H     0.26535   0.15880   0.26755   0.00000  Uiso   1.00
N37    N     0.16667   0.28573   0.16667   0.00000  Uiso   1.00
N38    N     0.16667   0.04760   0.16667   0.00000  Uiso   1.00
O39    O     0.10559   0.20487   0.16666   0.00000  Uiso   1.00
O40    O     0.22774   0.12846   0.16667   0.00000  Uiso   1.00
O41    O     0.22774   0.20487   0.16667   0.00000  Uiso   1.00
O42    O     0.10559   0.12846   0.16666   0.00000  Uiso   1.00
O43    O     0.16667   0.20488   0.09511   0.00000  Uiso   1.00
O44    O     0.16666   0.12845   0.23822   0.00000  Uiso   1.00
O45    O     0.16666   0.20488   0.23822   0.00000  Uiso   1.00
O46    O     0.16667   0.12845   0.09511   0.00000  Uiso   1.00
Zn47   Zn    0.16667   0.21771   0.16667   0.00000  Uiso   1.00
Zn48   Zn    0.16667   0.11563   0.16667   0.00000  Uiso   1.00
C49    C     0.42020   0.16660   0.16679   0.00000  Uiso   1.00
C50    C     0.35493   0.17681   0.21193   0.00000  Uiso   1.00
C51    C     0.62400   0.16694   0.16628   0.00000  Uiso   1.00
C52    C     0.37600   0.16639   0.16705   0.00000  Uiso   1.00
C53    C     0.52686   0.02404   0.19659   0.00000  Uiso   1.00
C54    C     0.47314   0.30929   0.13674   0.00000  Uiso   1.00
C55    C     0.47314   0.02385   0.13674   0.00000  Uiso   1.00
C56    C     0.52686   0.30948   0.19660   0.00000  Uiso   1.00
C57    C     0.38094   0.14531   0.07520   0.00000  Uiso   1.00
C58    C     0.61906   0.18802   0.25813   0.00000  Uiso   1.00
C59    C     0.62151   0.14697   0.07313   0.00000  Uiso   1.00
C60    C     0.57980   0.16674   0.16655   0.00000  Uiso   1.00
C61    C     0.37849   0.18637   0.26020   0.00000  Uiso   1.00
C62    C     0.49972   0.16666   0.07290   0.00000  Uiso   1.00
C63    C     0.50028   0.16668   0.26044   0.00000  Uiso   1.00
C64    C     0.49989   0.16665   0.02179   0.00000  Uiso   1.00
C65    C     0.50011   0.16668   0.31154   0.00000  Uiso   1.00
C66    C     0.35542   0.15602   0.12194   0.00000  Uiso   1.00
C67    C     0.64458   0.17731   0.21139   0.00000  Uiso   1.00
C68    C     0.64507   0.15652   0.12141   0.00000  Uiso   1.00
H69    H     0.54836   0.04219   0.22057   0.00000  Uiso   1.00
H70    H     0.63791   0.19573   0.29166   0.00000  Uiso   1.00
H71    H     0.58710   0.14946   0.07636   0.00000  Uiso   1.00
H72    H     0.63094   0.17189   0.04430   0.00000  Uiso   1.00
H73    H     0.62856   0.11225   0.05997   0.00000  Uiso   1.00
H74    H     0.41290   0.18387   0.25697   0.00000  Uiso   1.00
H75    H     0.37144   0.22108   0.27337   0.00000  Uiso   1.00
H76    H     0.36906   0.16145   0.28903   0.00000  Uiso   1.00
H77    H     0.45164   0.29114   0.11277   0.00000  Uiso   1.00
H78    H     0.45164   0.04185   0.11277   0.00000  Uiso   1.00
H79    H     0.54836   0.29149   0.22056   0.00000  Uiso   1.00
H80    H     0.40083   0.11527   0.08198   0.00000  Uiso   1.00
H81    H     0.36210   0.13760   0.04168   0.00000  Uiso   1.00
H82    H     0.40132   0.17453   0.06578   0.00000  Uiso   1.00
H83    H     0.59917   0.21806   0.25136   0.00000  Uiso   1.00
H84    H     0.59868   0.15880   0.26755   0.00000  Uiso   1.00
N85    N     0.50000   0.28573   0.16667   0.00000  Uiso   1.00
N86    N     0.50000   0.04760   0.16667   0.00000  Uiso   1.00
O87    O     0.43892   0.20487   0.16666   0.00000  Uiso   1.00
O88    O     0.56108   0.12846   0.16667   0.00000  Uiso   1.00
O89    O     0.56108   0.20487   0.16667   0.00000  Uiso   1.00
O90    O     0.43892   0.12846   0.16666   0.00000  Uiso   1.00
O91    O     0.50000   0.20488   0.09511   0.00000  Uiso   1.00
O92    O     0.50000   0.12845   0.23822   0.00000  Uiso   1.00
O93    O     0.50000   0.20488   0.23822   0.00000  Uiso   1.00
O94    O     0.50000   0.12845   0.09511   0.00000  Uiso   1.00
Zn95   Zn    0.50000   0.21771   0.16667   0.00000  Uiso   1.00
Zn96   Zn    0.50000   0.11563   0.16667   0.00000  Uiso   1.00
C97    C     0.75353   0.16660   0.16679   0.00000  Uiso   1.00
C98    C     0.68826   0.17681   0.21193   0.00000  Uiso   1.00
C99    C     0.95733   0.16694   0.16628   0.00000  Uiso   1.00
C100   C     0.70934   0.16639   0.16705   0.00000  Uiso   1.00
C101   C     0.86019   0.02404   0.19659   0.00000  Uiso   1.00
C102   C     0.80647   0.30929   0.13674   0.00000  Uiso   1.00
C103   C     0.80647   0.02385   0.13674   0.00000  Uiso   1.00
C104   C     0.86019   0.30948   0.19660   0.00000  Uiso   1.00
C105   C     0.71427   0.14531   0.07520   0.00000  Uiso   1.00
C106   C     0.95240   0.18802   0.25813   0.00000  Uiso   1.00
C107   C     0.95484   0.14697   0.07313   0.00000  Uiso   1.00
C108   C     0.91313   0.16674   0.16655   0.00000  Uiso   1.00
C109   C     0.71183   0.18637   0.26020   0.00000  Uiso   1.00
C110   C     0.83306   0.16666   0.07290   0.00000  Uiso   1.00
C111   C     0.83361   0.16668   0.26044   0.00000  Uiso   1.00
C112   C     0.83323   0.16665   0.02179   0.00000  Uiso   1.00
C113   C     0.83344   0.16668   0.31154   0.00000  Uiso   1.00
C114   C     0.68875   0.15602   0.12194   0.00000  Uiso   1.00
C115   C     0.97791   0.17731   0.21139   0.00000  Uiso   1.00
C116   C     0.97841   0.15652   0.12141   0.00000  Uiso   1.00
H117   H     0.88170   0.04219   0.22057   0.00000  Uiso   1.00
H118   H     0.97124   0.19573   0.29166   0.00000  Uiso   1.00
H119   H     0.92043   0.14946   0.07636   0.00000  Uiso   1.00
H120   H     0.96428   0.17189   0.04430   0.00000  Uiso   1.00
H121   H     0.96189   0.11225   0.05997   0.00000  Uiso   1.00
H122   H     0.74624   0.18387   0.25697   0.00000  Uiso   1.00
H123   H     0.70477   0.22108   0.27337   0.00000  Uiso   1.00
H124   H     0.70239   0.16145   0.28903   0.00000  Uiso   1.00
H125   H     0.78497   0.29114   0.11277   0.00000  Uiso   1.00
H126   H     0.78497   0.04185   0.11277   0.00000  Uiso   1.00
H127   H     0.88170   0.29149   0.22056   0.00000  Uiso   1.00
H128   H     0.73417   0.11527   0.08198   0.00000  Uiso   1.00
H129   H     0.69543   0.13760   0.04168   0.00000  Uiso   1.00
H130   H     0.73465   0.17453   0.06578   0.00000  Uiso   1.00
H131   H     0.93250   0.21806   0.25136   0.00000  Uiso   1.00
H132   H     0.93201   0.15880   0.26755   0.00000  Uiso   1.00
N133   N     0.83333   0.28573   0.16667   0.00000  Uiso   1.00
N134   N     0.83333   0.04760   0.16667   0.00000  Uiso   1.00
O135   O     0.77226   0.20487   0.16666   0.00000  Uiso   1.00
O136   O     0.89441   0.12846   0.16667   0.00000  Uiso   1.00
O137   O     0.89441   0.20487   0.16667   0.00000  Uiso   1.00
O138   O     0.77226   0.12846   0.16666   0.00000  Uiso   1.00
O139   O     0.83334   0.20488   0.09511   0.00000  Uiso   1.00
O140   O     0.83333   0.12845   0.23822   0.00000  Uiso   1.00
O141   O     0.83333   0.20488   0.23822   0.00000  Uiso   1.00
O142   O     0.83334   0.12845   0.09511   0.00000  Uiso   1.00
Zn143  Zn    0.83333   0.21771   0.16667   0.00000  Uiso   1.00
Zn144  Zn    0.83333   0.11563   0.16667   0.00000  Uiso   1.00
C145   C     0.08687   0.49993   0.16679   0.00000  Uiso   1.00
C146   C     0.02159   0.51015   0.21193   0.00000  Uiso   1.00
C147   C     0.29066   0.50027   0.16628   0.00000  Uiso   1.00
C148   C     0.04267   0.49973   0.16705   0.00000  Uiso   1.00
C149   C     0.19353   0.35737   0.19659   0.00000  Uiso   1.00
C150   C     0.13981   0.64263   0.13674   0.00000  Uiso   1.00
C151   C     0.13981   0.35718   0.13674   0.00000  Uiso   1.00
C152   C     0.19353   0.64282   0.19660   0.00000  Uiso   1.00
C153   C     0.04760   0.47864   0.07520   0.00000  Uiso   1.00
C154   C     0.28573   0.52136   0.25813   0.00000  Uiso   1.00
C155   C     0.28817   0.48030   0.07313   0.00000  Uiso   1.00
C156   C     0.24647   0.50007   0.16655   0.00000  Uiso   1.00
C157   C     0.04516   0.51970   0.26020   0.00000  Uiso   1.00
C158   C     0.16639   0.49999   0.07290   0.00000  Uiso   1.00
C159   C     0.16695   0.50001   0.26044   0.00000  Uiso   1.00
C160   C     0.16656   0.49998   0.02179   0.00000  Uiso   1.00
C161   C     0.16677   0.50002   0.31154   0.00000  Uiso   1.00
C162   C     0.02209   0.48935   0.12194   0.00000  Uiso   1.00
C163   C     0.31125   0.51065   0.21139   0.00000  Uiso   1.00
C164   C     0.31174   0.48985   0.12141   0.00000  Uiso   1.00
H165   H     0.21503   0.37552   0.22057   0.00000  Uiso   1.00
H166   H     0.30457   0.52906   0.29166   0.00000  Uiso   1.00
H167   H     0.25376   0.48280   0.07636   0.00000  Uiso   1.00
H168   H     0.29761   0.50522   0.04430   0.00000  Uiso   1.00
H169   H     0.29523   0.44558   0.05997   0.00000  Uiso   1.00
H170   H     0.07957   0.51720   0.25697   0.00000  Uiso   1.00
H171   H     0.03811   0.55442   0.27337   0.00000  Uiso   1.00
H172   H     0.03572   0.49478   0.28903   0.00000  Uiso   1.00
H173   H     0.11830   0.62448   0.11277   0.00000  Uiso   1.00
H174   H     0.11830   0.37518   0.11277   0.00000  Uiso   1.00
H175   H     0.21503   0.62482   0.22056   0.00000  Uiso   1.00
H176   H     0.06750   0.44861   0.08198   0.00000  Uiso   1.00
H177   H     0.02876   0.47094   0.04168   0.00000  Uiso   1.00
H178   H     0.06799   0.50786   0.06578   0.00000  Uiso   1.00
H179   H     0.26583   0.55139   0.25136   0.00000  Uiso   1.00
H180   H     0.26535   0.49214   0.26755   0.00000  Uiso   1.00
N181   N     0.16667   0.61907   0.16667   0.00000  Uiso   1.00
N182   N     0.16667   0.38093   0.16667   0.00000  Uiso   1.00
O183   O     0.10559   0.53821   0.16666   0.00000  Uiso   1.00
O184   O     0.22774   0.46179   0.16667   0.00000  Uiso   1.00
O185   O     0.22774   0.53821   0.16667   0.00000  Uiso   1.00
O186   O     0.10559   0.46179   0.16666   0.00000  Uiso   1.00
O187   O     0.16667   0.53821   0.09511   0.00000  Uiso   1.00
O188   O     0.16666   0.46179   0.23822   0.00000  Uiso   1.00
O189   O     0.16666   0.53821   0.23822   0.00000  Uiso   1.00
O190   O     0.16667   0.46179   0.09511   0.00000  Uiso   1.00
Zn191  Zn    0.16667   0.55104   0.16667   0.00000  Uiso   1.00
Zn192  Zn    0.16667   0.44896   0.16667   0.00000  Uiso   1.00
C193   C     0.42020   0.49993   0.16679   0.00000  Uiso   1.00
C194   C     0.35493   0.51015   0.21193   0.00000  Uiso   1.00
C195   C     0.62400   0.50027   0.16628   0.00000  Uiso   1.00
C196   C     0.37600   0.49973   0.16705   0.00000  Uiso   1.00
C197   C     0.52686   0.35737   0.19659   0.00000  Uiso   1.00
C198   C     0.47314   0.64263   0.13674   0.00000  Uiso   1.00
C199   C     0.47314   0.35718   0.13674   0.00000  Uiso   1.00
C200   C     0.52686   0.64282   0.19660   0.00000  Uiso   1.00
C201   C     0.38094   0.47864   0.07520   0.00000  Uiso   1.00
C202   C     0.61906   0.52136   0.25813   0.00000  Uiso   1.00
C203   C     0.62151   0.48030   0.07313   0.00000  Uiso   1.00
C204   C     0.57980   0.50007   0.16655   0.00000  Uiso   1.00
C205   C     0.37849   0.51970   0.26020   0.00000  Uiso   1.00
C206   C     0.49972   0.49999   0.07290   0.00000  Uiso   1.00
C207   C     0.50028   0.50001   0.26044   0.00000  Uiso   1.00
C208   C     0.49989   0.49998   0.02179   0.00000  Uiso   1.00
C209   C     0.50011   0.50002   0.31154   0.00000  Uiso   1.00
C210   C     0.35542   0.48935   0.12194   0.00000  Uiso   1.00
C211   C     0.64458   0.51065   0.21139   0.00000  Uiso   1.00
C212   C     0.64507   0.48985   0.12141   0.00000  Uiso   1.00
H213   H     0.54836   0.37552   0.22057   0.00000  Uiso   1.00
H214   H     0.63791   0.52906   0.29166   0.00000  Uiso   1.00
H215   H     0.58710   0.48280   0.07636   0.00000  Uiso   1.00
H216   H     0.63094   0.50522   0.04430   0.00000  Uiso   1.00
H217   H     0.62856   0.44558   0.05997   0.00000  Uiso   1.00
H218   H     0.41290   0.51720   0.25697   0.00000  Uiso   1.00
H219   H     0.37144   0.55442   0.27337   0.00000  Uiso   1.00
H220   H     0.36906   0.49478   0.28903   0.00000  Uiso   1.00
H221   H     0.45164   0.62448   0.11277   0.00000  Uiso   1.00
H222   H     0.45164   0.37518   0.11277   0.00000  Uiso   1.00
H223   H     0.54836   0.62482   0.22056   0.00000  Uiso   1.00
H224   H     0.40083   0.44861   0.08198   0.00000  Uiso   1.00
H225   H     0.36210   0.47094   0.04168   0.00000  Uiso   1.00
H226   H     0.40132   0.50786   0.06578   0.00000  Uiso   1.00
H227   H     0.59917   0.55139   0.25136   0.00000  Uiso   1.00
H228   H     0.59868   0.49214   0.26755   0.00000  Uiso   1.00
N229   N     0.50000   0.61907   0.16667   0.00000  Uiso   1.00
N230   N     0.50000   0.38093   0.16667   0.00000  Uiso   1.00
O231   O     0.43892   0.53821   0.16666   0.00000  Uiso   1.00
O232   O     0.56108   0.46179   0.16667   0.00000  Uiso   1.00
O233   O     0.56108   0.53821   0.16667   0.00000  Uiso   1.00
O234   O     0.43892   0.46179   0.16666   0.00000  Uiso   1.00
O235   O     0.50000   0.53821   0.09511   0.00000  Uiso   1.00
O236   O     0.50000   0.46179   0.23822   0.00000  Uiso   1.00
O237   O     0.50000   0.53821   0.23822   0.00000  Uiso   1.00
O238   O     0.50000   0.46179   0.09511   0.00000  Uiso   1.00
Zn239  Zn    0.50000   0.55104   0.16667   0.00000  Uiso   1.00
Zn240  Zn    0.50000   0.44896   0.16667   0.00000  Uiso   1.00
C241   C     0.75353   0.49993   0.16679   0.00000  Uiso   1.00
C242   C     0.68826   0.51015   0.21193   0.00000  Uiso   1.00
C243   C     0.95733   0.50027   0.16628   0.00000  Uiso   1.00
C244   C     0.70934   0.49973   0.16705   0.00000  Uiso   1.00
C245   C     0.86019   0.35737   0.19659   0.00000  Uiso   1.00
C246   C     0.80647   0.64263   0.13674   0.00000  Uiso   1.00
C247   C     0.80647   0.35718   0.13674   0.00000  Uiso   1.00
C248   C     0.86019   0.64282   0.19660   0.00000  Uiso   1.00
C249   C     0.71427   0.47864   0.07520   0.00000  Uiso   1.00
C250   C     0.95240   0.52136   0.25813   0.00000  Uiso   1.00
C251   C     0.95484   0.48030   0.07313   0.00000  Uiso   1.00
C252   C     0.91313   0.50007   0.16655   0.00000  Uiso   1.00
C253   C     0.71183   0.51970   0.26020   0.00000  Uiso   1.00
C254   C     0.83306   0.49999   0.07290   0.00000  Uiso   1.00
C255   C     0.83361   0.50001   0.26044   0.00000  Uiso   1.00
C256   C     0.83323   0.49998   0.02179   0.00000  Uiso   1.00
C257   C     0.83344   0.50002   0.31154   0.00000  Uiso   1.00
C258   C     0.68875   0.48935   0.12194   0.00000  Uiso   1.00
C259   C     0.97791   0.51065   0.21139   0.00000  Uiso   1.00
C260   C     0.97841   0.48985   0.12141   0.00000  Uiso   1.00
H261   H     0.88170   0.37552   0.22057   0.00000  Uiso   1.00
H262   H     0.97124   0.52906   0.29166   0.00000  Uiso   1.00
H263   H     0.92043   0.48280   0.07636   0.00000  Uiso   1.00
H264   H     0.96428   0.50522   0.04430   0.00000  Uiso   1.00
H265   H     0.96189   0.44558   0.05997   0.00000  Uiso   1.00
H266   H     0.74624   0.51720   0.25697   0.00000  Uiso   1.00
H267   H     0.70477   0.55442   0.27337   0.00000  Uiso   1.00
H268   H     0.70239   0.49478   0.28903   0.00000  Uiso   1.00
H269   H     0.78497   0.62448   0.11277   0.00000  Uiso   1.00
H270   H     0.78497   0.37518   0.11277   0.00000  Uiso   1.00
H271   H     0.88170   0.62482   0.22056   0.00000  Uiso   1.00
H272   H     0.73417   0.44861   0.08198   0.00000  Uiso   1.00
H273   H     0.69543   0.47094   0.04168   0.00000  Uiso   1.00
H274   H     0.73465   0.50786   0.06578   0.00000  Uiso   1.00
H275   H     0.93250   0.55139   0.25136   0.00000  Uiso   1.00
H276   H     0.93201   0.49214   0.26755   0.00000  Uiso   1.00
N277   N     0.83333   0.61907   0.16667   0.00000  Uiso   1.00
N278   N     0.83333   0.38093   0.16667   0.00000  Uiso   1.00
O279   O     0.77226   0.53821   0.16666   0.00000  Uiso   1.00
O280   O     0.89441   0.46179   0.16667   0.00000  Uiso   1.00
O281   O     0.89441   0.53821   0.16667   0.00000  Uiso   1.00
O282   O     0.77226   0.46179   0.16666   0.00000  Uiso   1.00
O283   O     0.83334   0.53821   0.09511   0.00000  Uiso   1.00
O284   O     0.83333   0.46179   0.23822   0.00000  Uiso   1.00
O285   O     0.83333   0.53821   0.23822   0.00000  Uiso   1.00
O286   O     0.83334   0.46179   0.09511   0.00000  Uiso   1.00
Zn287  Zn    0.83333   0.55104   0.16667   0.00000  Uiso   1.00
Zn288  Zn    0.83333   0.44896   0.16667   0.00000  Uiso   1.00
C289   C     0.08687   0.83326   0.16679   0.00000  Uiso   1.00
C290   C     0.02159   0.84348   0.21193   0.00000  Uiso   1.00
C291   C     0.29066   0.83361   0.16628   0.00000  Uiso   1.00
C292   C     0.04267   0.83306   0.16705   0.00000  Uiso   1.00
C293   C     0.19353   0.69071   0.19659   0.00000  Uiso   1.00
C294   C     0.13981   0.97596   0.13674   0.00000  Uiso   1.00
C295   C     0.13981   0.69052   0.13674   0.00000  Uiso   1.00
C296   C     0.19353   0.97615   0.19660   0.00000  Uiso   1.00
C297   C     0.04760   0.81198   0.07520   0.00000  Uiso   1.00
C298   C     0.28573   0.85469   0.25813   0.00000  Uiso   1.00
C299   C     0.28817   0.81363   0.07313   0.00000  Uiso   1.00
C300   C     0.24647   0.83340   0.16655   0.00000  Uiso   1.00
C301   C     0.04516   0.85303   0.26020   0.00000  Uiso   1.00
C302   C     0.16639   0.83332   0.07290   0.00000  Uiso   1.00
C303   C     0.16695   0.83334   0.26044   0.00000  Uiso   1.00
C304   C     0.16656   0.83332   0.02179   0.00000  Uiso   1.00
C305   C     0.16677   0.83335   0.31154   0.00000  Uiso   1.00
C306   C     0.02209   0.82269   0.12194   0.00000  Uiso   1.00
C307   C     0.31125   0.84398   0.21139   0.00000  Uiso   1.00
C308   C     0.31174   0.82319   0.12141   0.00000  Uiso   1.00
H309   H     0.21503   0.70885   0.22057   0.00000  Uiso   1.00
H310   H     0.30457   0.86240   0.29166   0.00000  Uiso   1.00
H311   H     0.25376   0.81613   0.07636   0.00000  Uiso   1.00
H312   H     0.29761   0.83855   0.04430   0.00000  Uiso   1.00
H313   H     0.29523   0.77892   0.05997   0.00000  Uiso   1.00
H314   H     0.07957   0.85054   0.25697   0.00000  Uiso   1.00
H315   H     0.03811   0.88775   0.27337   0.00000  Uiso   1.00
H316   H     0.03572   0.82811   0.28903   0.00000  Uiso   1.00
H317   H     0.11830   0.95781   0.11277   0.00000  Uiso   1.00
H318   H     0.11830   0.70851   0.11277   0.00000  Uiso   1.00
H319   H     0.21503   0.95815   0.22056   0.00000  Uiso   1.00
H320   H     0.06750   0.78194   0.08198   0.00000  Uiso   1.00
H321   H     0.02876   0.80427   0.04168   0.00000  Uiso   1.00
H322   H     0.06799   0.84120   0.06578   0.00000  Uiso   1.00
H323   H     0.26583   0.88473   0.25136   0.00000  Uiso   1.00
H324   H     0.26535   0.82547   0.26755   0.00000  Uiso   1.00
N325   N     0.16667   0.95240   0.16667   0.00000  Uiso   1.00
N326   N     0.16667   0.71427   0.16667   0.00000  Uiso   1.00
O327   O     0.10559   0.87154   0.16666   0.00000  Uiso   1.00
O328   O     0.22774   0.79513   0.16667   0.00000  Uiso   1.00
O329   O     0.22774   0.87154   0.16667   0.00000  Uiso   1.00
O330   O     0.10559   0.79513   0.16666   0.00000  Uiso   1.00
O331   O     0.16667   0.87155   0.09511   0.00000  Uiso   1.00
O332   O     0.16666   0.79512   0.23822   0.00000  Uiso   1.00
O333   O     0.16666   0.87155   0.23822   0.00000  Uiso   1.00
O334   O     0.16667   0.79512   0.09511   0.00000  Uiso   1.00
Zn335  Zn    0.16667   0.88437   0.16667   0.00000  Uiso   1.00
Zn336  Zn    0.16667   0.78229   0.16667   0.00000  Uiso   1.00
C337   C     0.42020   0.83326   0.16679   0.00000  Uiso   1.00
C338   C     0.35493   0.84348   0.21193   0.00000  Uiso   1.00
C339   C     0.62400   0.83361   0.16628   0.00000  Uiso   1.00
C340   C     0.37600   0.83306   0.16705   0.00000  Uiso   1.00
C341   C     0.52686   0.69071   0.19659   0.00000  Uiso   1.00
C342   C     0.47314   0.97596   0.13674   0.00000  Uiso   1.00
C343   C     0.47314   0.69052   0.13674   0.00000  Uiso   1.00
C344   C     0.52686   0.97615   0.19660   0.00000  Uiso   1.00
C345   C     0.38094   0.81198   0.07520   0.00000  Uiso   1.00
C346   C     0.61906   0.85469   0.25813   0.00000  Uiso   1.00
C347   C     0.62151   0.81363   0.07313   0.00000  Uiso   1.00
C348   C     0.57980   0.83340   0.16655   0.00000  Uiso   1.00
C349   C     0.37849   0.85303   0.26020   0.00000  Uiso   1.00
C350   C     0.49972   0.83332   0.07290   0.00000  Uiso   1.00
C351   C     0.50028   0.83334   0.26044   0.00000  Uiso   1.00
C352   C     0.49989   0.83332   0.02179   0.00000  Uiso   1.00
C353   C     0.50011   0.83335   0.31154   0.00000  Uiso   1.00
C354   C     0.35542   0.82269   0.12194   0.00000  Uiso   1.00
C355   C     0.64458   0.84398   0.21139   0.00000  Uiso   1.00
C356   C     0.64507   0.82319   0.12141   0.00000  Uiso   1.00
H357   H     0.54836   0.70885   0.22057   0.00000  Uiso   1.00
H358   H     0.63791   0.86240   0.29166   0.00000  Uiso   1.00
H359   H     0.58710   0.81613   0.07636   0.00000  Uiso   1.00
H360   H     0.63094   0.83855   0.04430   0.00000  Uiso   1.00
H361   H     0.62856   0.77892   0.05997   0.00000  Uiso   1.00
H362   H     0.41290   0.85054   0.25697   0.00000  Uiso   1.00
H363   H     0.37144   0.88775   0.27337   0.00000  Uiso   1.00
H364   H     0.36906   0.82811   0.28903   0.00000  Uiso   1.00
H365   H     0.45164   0.95781   0.11277   0.00000  Uiso   1.00
H366   H     0.45164   0.70851   0.11277   0.00000  Uiso   1.00
H367   H     0.54836   0.95815   0.22056   0.00000  Uiso   1.00
H368   H     0.40083   0.78194   0.08198   0.00000  Uiso   1.00
H369   H     0.36210   0.80427   0.04168   0.00000  Uiso   1.00
H370   H     0.40132   0.84120   0.06578   0.00000  Uiso   1.00
H371   H     0.59917   0.88473   0.25136   0.00000  Uiso   1.00
H372   H     0.59868   0.82547   0.26755   0.00000  Uiso   1.00
N373   N     0.50000   0.95240   0.16667   0.00000  Uiso   1.00
N374   N     0.50000   0.71427   0.16667   0.00000  Uiso   1.00
O375   O     0.43892   0.87154   0.16666   0.00000  Uiso   1.00
O376   O     0.56108   0.79513   0.16667   0.00000  Uiso   1.00
O377   O     0.56108   0.87154   0.16667   0.00000  Uiso   1.00
O378   O     0.43892   0.79513   0.16666   0.00000  Uiso   1.00
O379   O     0.50000   0.87155   0.09511   0.00000  Uiso   1.00
O380   O     0.50000   0.79512   0.23822   0.00000  Uiso   1.00
O381   O     0.50000   0.87155   0.23822   0.00000  Uiso   1.00
O382   O     0.50000   0.79512   0.09511   0.00000  Uiso   1.00
Zn383  Zn    0.50000   0.88437   0.16667   0.00000  Uiso   1.00
Zn384  Zn    0.50000   0.78229   0.16667   0.00000  Uiso   1.00
C385   C     0.75353   0.83326   0.16679   0.00000  Uiso   1.00
C386   C     0.68826   0.84348   0.21193   0.00000  Uiso   1.00
C387   C     0.95733   0.83361   0.16628   0.00000  Uiso   1.00
C388   C     0.70934   0.83306   0.16705   0.00000  Uiso   1.00
C389   C     0.86019   0.69071   0.19659   0.00000  Uiso   1.00
C390   C     0.80647   0.97596   0.13674   0.00000  Uiso   1.00
C391   C     0.80647   0.69052   0.13674   0.00000  Uiso   1.00
C392   C     0.86019   0.97615   0.19660   0.00000  Uiso   1.00
C393   C     0.71427   0.81198   0.07520   0.00000  Uiso   1.00
C394   C     0.95240   0.85469   0.25813   0.00000  Uiso   1.00
C395   C     0.95484   0.81363   0.07313   0.00000  Uiso   1.00
C396   C     0.91313   0.83340   0.16655   0.00000  Uiso   1.00
C397   C     0.71183   0.85303   0.26020   0.00000  Uiso   1.00
C398   C     0.83306   0.83332   0.07290   0.00000  Uiso   1.00
C399   C     0.83361   0.83334   0.26044   0.00000  Uiso   1.00
C400   C     0.83323   0.83332   0.02179   0.00000  Uiso   1.00
C401   C     0.83344   0.83335   0.31154   0.00000  Uiso   1.00
C402   C     0.68875   0.82269   0.12194   0.00000  Uiso   1.00
C403   C     0.97791   0.84398   0.21139   0.00000  Uiso   1.00
C404   C     0.97841   0.82319   0.12141   0.00000  Uiso   1.00
H405   H     0.88170   0.70885   0.22057   0.00000  Uiso   1.00
H406   H     0.97124   0.86240   0.29166   0.00000  Uiso   1.00
H407   H     0.92043   0.81613   0.07636   0.00000  Uiso   1.00
H408   H     0.96428   0.83855   0.04430   0.00000  Uiso   1.00
H409   H     0.96189   0.77892   0.05997   0.00000  Uiso   1.00
H410   H     0.74624   0.85054   0.25697   0.00000  Uiso   1.00
H411   H     0.70477   0.88775   0.27337   0.00000  Uiso   1.00
H412   H     0.70239   0.82811   0.28903   0.00000  Uiso   1.00
H413   H     0.78497   0.95781   0.11277   0.00000  Uiso   1.00
H414   H     0.78497   0.70851   0.11277   0.00000  Uiso   1.00
H415   H     0.88170   0.95815   0.22056   0.00000  Uiso   1.00
H416   H     0.73417   0.78194   0.08198   0.00000  Uiso   1.00
H417   H     0.69543   0.80427   0.04168   0.00000  Uiso   1.00
H418   H     0.73465   0.84120   0.06578   0.00000  Uiso   1.00
H419   H     0.93250   0.88473   0.25136   0.00000  Uiso   1.00
H420   H     0.93201   0.82547   0.26755   0.00000  Uiso   1.00
N421   N     0.83333   0.95240   0.16667   0.00000  Uiso   1.00
N422   N     0.83333   0.71427   0.16667   0.00000  Uiso   1.00
O423   O     0.77226   0.87154   0.16666   0.00000  Uiso   1.00
O424   O     0.89441   0.79513   0.16667   0.00000  Uiso   1.00
O425   O     0.89441   0.87154   0.16667   0.00000  Uiso   1.00
O426   O     0.77226   0.79513   0.16666   0.00000  Uiso   1.00
O427   O     0.83334   0.87155   0.09511   0.00000  Uiso   1.00
O428   O     0.83333   0.79512   0.23822   0.00000  Uiso   1.00
O429   O     0.83333   0.87155   0.23822   0.00000  Uiso   1.00
O430   O     0.83334   0.79512   0.09511   0.00000  Uiso   1.00
Zn431  Zn    0.83333   0.88437   0.16667   0.00000  Uiso   1.00
Zn432  Zn    0.83333   0.78229   0.16667   0.00000  Uiso   1.00
C433   C     0.08687   0.16660   0.50012   0.00000  Uiso   1.00
C434   C     0.02159   0.17681   0.54526   0.00000  Uiso   1.00
C435   C     0.29066   0.16694   0.49961   0.00000  Uiso   1.00
C436   C     0.04267   0.16639   0.50039   0.00000  Uiso   1.00
C437   C     0.19353   0.02404   0.52993   0.00000  Uiso   1.00
C438   C     0.13981   0.30929   0.47007   0.00000  Uiso   1.00
C439   C     0.13981   0.02385   0.47007   0.00000  Uiso   1.00
C440   C     0.19353   0.30948   0.52993   0.00000  Uiso   1.00
C441   C     0.04760   0.14531   0.40854   0.00000  Uiso   1.00
C442   C     0.28573   0.18802   0.59146   0.00000  Uiso   1.00
C443   C     0.28817   0.14697   0.40647   0.00000  Uiso   1.00
C444   C     0.24647   0.16674   0.49988   0.00000  Uiso   1.00
C445   C     0.04516   0.18637   0.59353   0.00000  Uiso   1.00
C446   C     0.16639   0.16666   0.40623   0.00000  Uiso   1.00
C447   C     0.16695   0.16668   0.59377   0.00000  Uiso   1.00
C448   C     0.16656   0.16665   0.35512   0.00000  Uiso   1.00
C449   C     0.16677   0.16668   0.64488   0.00000  Uiso   1.00
C450   C     0.02209   0.15602   0.45528   0.00000  Uiso   1.00
C451   C     0.31125   0.17731   0.54472   0.00000  Uiso   1.00
C452   C     0.31174   0.15652   0.45474   0.00000  Uiso   1.00
H453   H     0.21503   0.04219   0.55390   0.00000  Uiso   1.00
H454   H     0.30457   0.19573   0.62499   0.00000  Uiso   1.00
H455   H     0.25376   0.14946   0.40970   0.00000  Uiso   1.00
H456   H     0.29761   0.17189   0.37764   0.00000  Uiso   1.00
H457   H     0.29523   0.11225   0.39330   0.00000  Uiso   1.00
H458   H     0.07957   0.18387   0.59030   0.00000  Uiso   1.00
H459   H     0.03811   0.22108   0.60670   0.00000  Uiso   1.00
H460   H     0.03572   0.16145   0.62236   0.00000  Uiso   1.00
H461   H     0.11830   0.29114   0.44610   0.00000  Uiso   1.00
H462   H     0.11830   0.04185   0.44610   0.00000  Uiso   1.00
H463   H     0.21503   0.29149   0.55390   0.00000  Uiso   1.00
H464   H     0.06750   0.11527   0.41531   0.00000  Uiso   1.00
H465   H     0.02876   0.13760   0.37501   0.00000  Uiso   1.00
H466   H     0.06799   0.17453   0.39911   0.00000  Uiso   1.00
H467   H     0.26583   0.21806   0.58469   0.00000  Uiso   1.00
H468   H     0.26535   0.15880   0.60089   0.00000  Uiso   1.00
N469   N     0.16667   0.28573   0.50000   0.00000  Uiso   1.00
N470   N     0.16667   0.04760   0.50000   0.00000  Uiso   1.00
O471   O     0.10559   0.20487   0.50000   0.00000  Uiso   1.00
O472   O     0.22774   0.12846   0.50000   0.00000  Uiso   1.00
O473   O     0.22774   0.20487   0.50000   0.00000  Uiso   1.00
O474   O     0.10559   0.12846   0.50000   0.00000  Uiso   1.00
O475   O     0.16667   0.20488   0.42845   0.00000  Uiso   1.00
O476   O     0.16666   0.12845   0.57155   0.00000  Uiso   1.00
O477   O     0.16666   0.20488   0.57155   0.00000  Uiso   1.00
O478   O     0.16667   0.12845   0.42845   0.00000  Uiso   1.00
Zn479  Zn    0.16667   0.21771   0.50000   0.00000  Uiso   1.00
Zn480  Zn    0.16667   0.11563   0.50000   0.00000  Uiso   1.00
C481   C     0.42020   0.16660   0.50012   0.00000  Uiso   1.00
C482   C     0.35493   0.17681   0.54526   0.00000  Uiso   1.00
C483   C     0.62400   0.16694   0.49961   0.00000  Uiso   1.00
C484   C     0.37600   0.16639   0.50039   0.00000  Uiso   1.00
C485   C     0.52686   0.02404   0.52993   0.00000  Uiso   1.00
C486   C     0.47314   0.30929   0.47007   0.00000  Uiso   1.00
C487   C     0.47314   0.02385   0.47007   0.00000  Uiso   1.00
C488   C     0.52686   0.30948   0.52993   0.00000  Uiso   1.00
C489   C     0.38094   0.14531   0.40854   0.00000  Uiso   1.00
C490   C     0.61906   0.18802   0.59146   0.00000  Uiso   1.00
C491   C     0.62151   0.14697   0.40647   0.00000  Uiso   1.00
C492   C     0.57980   0.16674   0.49988   0.00000  Uiso   1.00
C493   C     0.37849   0.18637   0.59353   0.00000  Uiso   1.00
C494   C     0.49972   0.16666   0.40623   0.00000  Uiso   1.00
C495   C     0.50028   0.16668   0.59377   0.00000  Uiso   1.00
C496   C     0.49989   0.16665   0.35512   0.00000  Uiso   1.00
C497   C     0.50011   0.16668   0.64488   0.00000  Uiso   1.00
C498   C     0.35542   0.15602   0.45528   0.00000  Uiso   1.00
C499   C     0.64458   0.17731   0.54472   0.00000  Uiso   1.00
C500   C     0.64507   0.15652   0.45474   0.00000  Uiso   1.00
H501   H     0.54836   0.04219   0.55390   0.00000  Uiso   1.00
H502   H     0.63791   0.19573   0.62499   0.00000  Uiso   1.00
H503   H     0.58710   0.14946   0.40970   0.00000  Uiso   1.00
H504   H     0.63094   0.17189   0.37764   0.00000  Uiso   1.00
H505   H     0.62856   0.11225   0.39330   0.00000  Uiso   1.00
H506   H     0.41290   0.18387   0.59030   0.00000  Uiso   1.00
H507   H     0.37144   0.22108   0.60670   0.00000  Uiso   1.00
H508   H     0.36906   0.16145   0.62236   0.00000  Uiso   1.00
H509   H     0.45164   0.29114   0.44610   0.00000  Uiso   1.00
H510   H     0.45164   0.04185   0.44610   0.00000  Uiso   1.00
H511   H     0.54836   0.29149   0.55390   0.00000  Uiso   1.00
H512   H     0.40083   0.11527   0.41531   0.00000  Uiso   1.00
H513   H     0.36210   0.13760   0.37501   0.00000  Uiso   1.00
H514   H     0.40132   0.17453   0.39911   0.00000  Uiso   1.00
H515   H     0.59917   0.21806   0.58469   0.00000  Uiso   1.00
H516   H     0.59868   0.15880   0.60089   0.00000  Uiso   1.00
N517   N     0.50000   0.28573   0.50000   0.00000  Uiso   1.00
N518   N     0.50000   0.04760   0.50000   0.00000  Uiso   1.00
O519   O     0.43892   0.20487   0.50000   0.00000  Uiso   1.00
O520   O     0.56108   0.12846   0.50000   0.00000  Uiso   1.00
O521   O     0.56108   0.20487   0.50000   0.00000  Uiso   1.00
O522   O     0.43892   0.12846   0.50000   0.00000  Uiso   1.00
O523   O     0.50000   0.20488   0.42845   0.00000  Uiso   1.00
O524   O     0.50000   0.12845   0.57155   0.00000  Uiso   1.00
O525   O     0.50000   0.20488   0.57155   0.00000  Uiso   1.00
O526   O     0.50000   0.12845   0.42845   0.00000  Uiso   1.00
Zn527  Zn    0.50000   0.21771   0.50000   0.00000  Uiso   1.00
Zn528  Zn    0.50000   0.11563   0.50000   0.00000  Uiso   1.00
C529   C     0.75353   0.16660   0.50012   0.00000  Uiso   1.00
C530   C     0.68826   0.17681   0.54526   0.00000  Uiso   1.00
C531   C     0.95733   0.16694   0.49961   0.00000  Uiso   1.00
C532   C     0.70934   0.16639   0.50039   0.00000  Uiso   1.00
C533   C     0.86019   0.02404   0.52993   0.00000  Uiso   1.00
C534   C     0.80647   0.30929   0.47007   0.00000  Uiso   1.00
C535   C     0.80647   0.02385   0.47007   0.00000  Uiso   1.00
C536   C     0.86019   0.30948   0.52993   0.00000  Uiso   1.00
C537   C     0.71427   0.14531   0.40854   0.00000  Uiso   1.00
C538   C     0.95240   0.18802   0.59146   0.00000  Uiso   1.00
C539   C     0.95484   0.14697   0.40647   0.00000  Uiso   1.00
C540   C     0.91313   0.16674   0.49988   0.00000  Uiso   1.00
C541   C     0.71183   0.18637   0.59353   0.00000  Uiso   1.00
C542   C     0.83306   0.16666   0.40623   0.00000  Uiso   1.00
C543   C     0.83361   0.16668   0.59377   0.00000  Uiso   1.00
C544   C     0.83323   0.16665   0.35512   0.00000  Uiso   1.00
C545   C     0.83344   0.16668   0.64488   0.00000  Uiso   1.00
C546   C     0.68875   0.15602   0.45528   0.00000  Uiso   1.00
C547   C     0.97791   0.17731   0.54472   0.00000  Uiso   1.00
C548   C     0.97841   0.15652   0.45474   0.00000  Uiso   1.00
H549   H     0.88170   0.04219   0.55390   0.00000  Uiso   1.00
H550   H     0.97124   0.19573   0.62499   0.00000  Uiso   1.00
H551   H     0.92043   0.14946   0.40970   0.00000  Uiso   1.00
H552   H     0.96428   0.17189   0.37764   0.00000  Uiso   1.00
H553   H     0.96189   0.11225   0.39330   0.00000  Uiso   1.00
H554   H     0.74624   0.18387   0.59030   0.00000  Uiso   1.00
H555   H     0.70477   0.22108   0.60670   0.00000  Uiso   1.00
H556   H     0.70239   0.16145   0.62236   0.00000  Uiso   1.00
H557   H     0.78497   0.29114   0.44610   0.00000  Uiso   1.00
H558   H     0.78497   0.04185   0.44610   0.00000  Uiso   1.00
H559   H     0.88170   0.29149   0.55390   0.00000  Uiso   1.00
H560   H     0.73417   0.11527   0.41531   0.00000  Uiso   1.00
H561   H     0.69543   0.13760   0.37501   0.00000  Uiso   1.00
H562   H     0.73465   0.17453   0.39911   0.00000  Uiso   1.00
H563   H     0.93250   0.21806   0.58469   0.00000  Uiso   1.00
H564   H     0.93201   0.15880   0.60089   0.00000  Uiso   1.00
N565   N     0.83333   0.28573   0.50000   0.00000  Uiso   1.00
N566   N     0.83333   0.04760   0.50000   0.00000  Uiso   1.00
O567   O     0.77226   0.20487   0.50000   0.00000  Uiso   1.00
O568   O     0.89441   0.12846   0.50000   0.00000  Uiso   1.00
O569   O     0.89441   0.20487   0.50000   0.00000  Uiso   1.00
O570   O     0.77226   0.12846   0.50000   0.00000  Uiso   1.00
O571   O     0.83334   0.20488   0.42845   0.00000  Uiso   1.00
O572   O     0.83333   0.12845   0.57155   0.00000  Uiso   1.00
O573   O     0.83333   0.20488   0.57155   0.00000  Uiso   1.00
O574   O     0.83334   0.12845   0.42845   0.00000  Uiso   1.00
Zn575  Zn    0.83333   0.21771   0.50000   0.00000  Uiso   1.00
Zn576  Zn    0.83333   0.11563   0.50000   0.00000  Uiso   1.00
C577   C     0.08687   0.49993   0.50012   0.00000  Uiso   1.00
C578   C     0.02159   0.51015   0.54526   0.00000  Uiso   1.00
C579   C     0.29066   0.50027   0.49961   0.00000  Uiso   1.00
C580   C     0.04267   0.49973   0.50039   0.00000  Uiso   1.00
C581   C     0.19353   0.35737   0.52993   0.00000  Uiso   1.00
C582   C     0.13981   0.64263   0.47007   0.00000  Uiso   1.00
C583   C     0.13981   0.35718   0.47007   0.00000  Uiso   1.00
C584   C     0.19353   0.64282   0.52993   0.00000  Uiso   1.00
C585   C     0.04760   0.47864   0.40854   0.00000  Uiso   1.00
C586   C     0.28573   0.52136   0.59146   0.00000  Uiso   1.00
C587   C     0.28817   0.48030   0.40647   0.00000  Uiso   1.00
C588   C     0.24647   0.50007   0.49988   0.00000  Uiso   1.00
C589   C     0.04516   0.51970   0.59353   0.00000  Uiso   1.00
C590   C     0.16639   0.49999   0.40623   0.00000  Uiso   1.00
C591   C     0.16695   0.50001   0.59377   0.00000  Uiso   1.00
C592   C     0.16656   0.49998   0.35512   0.00000  Uiso   1.00
C593   C     0.16677   0.50002   0.64488   0.00000  Uiso   1.00
C594   C     0.02209   0.48935   0.45528   0.00000  Uiso   1.00
C595   C     0.31125   0.51065   0.54472   0.00000  Uiso   1.00
C596   C     0.31174   0.48985   0.45474   0.00000  Uiso   1.00
H597   H     0.21503   0.37552   0.55390   0.00000  Uiso   1.00
H598   H     0.30457   0.52906   0.62499   0.00000  Uiso   1.00
H599   H     0.25376   0.48280   0.40970   0.00000  Uiso   1.00
H600   H     0.29761   0.50522   0.37764   0.00000  Uiso   1.00
H601   H     0.29523   0.44558   0.39330   0.00000  Uiso   1.00
H602   H     0.07957   0.51720   0.59030   0.00000  Uiso   1.00
H603   H     0.03811   0.55442   0.60670   0.00000  Uiso   1.00
H604   H     0.03572   0.49478   0.62236   0.00000  Uiso   1.00
H605   H     0.11830   0.62448   0.44610   0.00000  Uiso   1.00
H606   H     0.11830   0.37518   0.44610   0.00000  Uiso   1.00
H607   H     0.21503   0.62482   0.55390   0.00000  Uiso   1.00
H608   H     0.06750   0.44861   0.41531   0.00000  Uiso   1.00
H609   H     0.02876   0.47094   0.37501   0.00000  Uiso   1.00
H610   H     0.06799   0.50786   0.39911   0.00000  Uiso   1.00
H611   H     0.26583   0.55139   0.58469   0.00000  Uiso   1.00
H612   H     0.26535   0.49214   0.60089   0.00000  Uiso   1.00
N613   N     0.16667   0.61907   0.50000   0.00000  Uiso   1.00
N614   N     0.16667   0.38093   0.50000   0.00000  Uiso   1.00
O615   O     0.10559   0.53821   0.50000   0.00000  Uiso   1.00
O616   O     0.22774   0.46179   0.50000   0.00000  Uiso   1.00
O617   O     0.22774   0.53821   0.50000   0.00000  Uiso   1.00
O618   O     0.10559   0.46179   0.50000   0.00000  Uiso   1.00
O619   O     0.16667   0.53821   0.42845   0.00000  Uiso   1.00
O620   O     0.16666   0.46179   0.57155   0.00000  Uiso   1.00
O621   O     0.16666   0.53821   0.57155   0.00000  Uiso   1.00
O622   O     0.16667   0.46179   0.42845   0.00000  Uiso   1.00
Zn623  Zn    0.16667   0.55104   0.50000   0.00000  Uiso   1.00
Zn624  Zn    0.16667   0.44896   0.50000   0.00000  Uiso   1.00
C625   C     0.42020   0.49993   0.50012   0.00000  Uiso   1.00
C626   C     0.35493   0.51015   0.54526   0.00000  Uiso   1.00
C627   C     0.62400   0.50027   0.49961   0.00000  Uiso   1.00
C628   C     0.37600   0.49973   0.50039   0.00000  Uiso   1.00
C629   C     0.52686   0.35737   0.52993   0.00000  Uiso   1.00
C630   C     0.47314   0.64263   0.47007   0.00000  Uiso   1.00
C631   C     0.47314   0.35718   0.47007   0.00000  Uiso   1.00
C632   C     0.52686   0.64282   0.52993   0.00000  Uiso   1.00
C633   C     0.38094   0.47864   0.40854   0.00000  Uiso   1.00
C634   C     0.61906   0.52136   0.59146   0.00000  Uiso   1.00
C635   C     0.62151   0.48030   0.40647   0.00000  Uiso   1.00
C636   C     0.57980   0.50007   0.49988   0.00000  Uiso   1.00
C637   C     0.37849   0.51970   0.59353   0.00000  Uiso   1.00
C638   C     0.49972   0.49999   0.40623   0.00000  Uiso   1.00
C639   C     0.50028   0.50001   0.59377   0.00000  Uiso   1.00
C640   C     0.49989   0.49998   0.35512   0.00000  Uiso   1.00
C641   C     0.50011   0.50002   0.64488   0.00000  Uiso   1.00
C642   C     0.35542   0.48935   0.45528   0.00000  Uiso   1.00
C643   C     0.64458   0.51065   0.54472   0.00000  Uiso   1.00
C644   C     0.64507   0.48985   0.45474   0.00000  Uiso   1.00
H645   H     0.54836   0.37552   0.55390   0.00000  Uiso   1.00
H646   H     0.63791   0.52906   0.62499   0.00000  Uiso   1.00
H647   H     0.58710   0.48280   0.40970   0.00000  Uiso   1.00
H648   H     0.63094   0.50522   0.37764   0.00000  Uiso   1.00
H649   H     0.62856   0.44558   0.39330   0.00000  Uiso   1.00
H650   H     0.41290   0.51720   0.59030   0.00000  Uiso   1.00
H651   H     0.37144   0.55442   0.60670   0.00000  Uiso   1.00
H652   H     0.36906   0.49478   0.62236   0.00000  Uiso   1.00
H653   H     0.45164   0.62448   0.44610   0.00000  Uiso   1.00
H654   H     0.45164   0.37518   0.44610   0.00000  Uiso   1.00
H655   H     0.54836   0.62482   0.55390   0.00000  Uiso   1.00
H656   H     0.40083   0.44861   0.41531   0.00000  Uiso   1.00
H657   H     0.36210   0.47094   0.37501   0.00000  Uiso   1.00
H658   H     0.40132   0.50786   0.39911   0.00000  Uiso   1.00
H659   H     0.59917   0.55139   0.58469   0.00000  Uiso   1.00
H660   H     0.59868   0.49214   0.60089   0.00000  Uiso   1.00
N661   N     0.50000   0.61907   0.50000   0.00000  Uiso   1.00
N662   N     0.50000   0.38093   0.50000   0.00000  Uiso   1.00
O663   O     0.43892   0.53821   0.50000   0.00000  Uiso   1.00
O664   O     0.56108   0.46179   0.50000   0.00000  Uiso   1.00
O665   O     0.56108   0.53821   0.50000   0.00000  Uiso   1.00
O666   O     0.43892   0.46179   0.50000   0.00000  Uiso   1.00
O667   O     0.50000   0.53821   0.42845   0.00000  Uiso   1.00
O668   O     0.50000   0.46179   0.57155   0.00000  Uiso   1.00
O669   O     0.50000   0.53821   0.57155   0.00000  Uiso   1.00
O670   O     0.50000   0.46179   0.42845   0.00000  Uiso   1.00
Zn671  Zn    0.50000   0.55104   0.50000   0.00000  Uiso   1.00
Zn672  Zn    0.50000   0.44896   0.50000   0.00000  Uiso   1.00
C673   C     0.75353   0.49993   0.50012   0.00000  Uiso   1.00
C674   C     0.68826   0.51015   0.54526   0.00000  Uiso   1.00
C675   C     0.95733   0.50027   0.49961   0.00000  Uiso   1.00
C676   C     0.70934   0.49973   0.50039   0.00000  Uiso   1.00
C677   C     0.86019   0.35737   0.52993   0.00000  Uiso   1.00
C678   C     0.80647   0.64263   0.47007   0.00000  Uiso   1.00
C679   C     0.80647   0.35718   0.47007   0.00000  Uiso   1.00
C680   C     0.86019   0.64282   0.52993   0.00000  Uiso   1.00
C681   C     0.71427   0.47864   0.40854   0.00000  Uiso   1.00
C682   C     0.95240   0.52136   0.59146   0.00000  Uiso   1.00
C683   C     0.95484   0.48030   0.40647   0.00000  Uiso   1.00
C684   C     0.91313   0.50007   0.49988   0.00000  Uiso   1.00
C685   C     0.71183   0.51970   0.59353   0.00000  Uiso   1.00
C686   C     0.83306   0.49999   0.40623   0.00000  Uiso   1.00
C687   C     0.83361   0.50001   0.59377   0.00000  Uiso   1.00
C688   C     0.83323   0.49998   0.35512   0.00000  Uiso   1.00
C689   C     0.83344   0.50002   0.64488   0.00000  Uiso   1.00
C690   C     0.68875   0.48935   0.45528   0.00000  Uiso   1.00
C691   C     0.97791   0.51065   0.54472   0.00000  Uiso   1.00
C692   C     0.97841   0.48985   0.45474   0.00000  Uiso   1.00
H693   H     0.88170   0.37552   0.55390   0.00000  Uiso   1.00
H694   H     0.97124   0.52906   0.62499   0.00000  Uiso   1.00
H695   H     0.92043   0.48280   0.40970   0.00000  Uiso   1.00
H696   H     0.96428   0.50522   0.37764   0.00000  Uiso   1.00
H697   H     0.96189   0.44558   0.39330   0.00000  Uiso   1.00
H698   H     0.74624   0.51720   0.59030   0.00000  Uiso   1.00
H699   H     0.70477   0.55442   0.60670   0.00000  Uiso   1.00
H700   H     0.70239   0.49478   0.62236   0.00000  Uiso   1.00
H701   H     0.78497   0.62448   0.44610   0.00000  Uiso   1.00
H702   H     0.78497   0.37518   0.44610   0.00000  Uiso   1.00
H703   H     0.88170   0.62482   0.55390   0.00000  Uiso   1.00
H704   H     0.73417   0.44861   0.41531   0.00000  Uiso   1.00
H705   H     0.69543   0.47094   0.37501   0.00000  Uiso   1.00
H706   H     0.73465   0.50786   0.39911   0.00000  Uiso   1.00
H707   H     0.93250   0.55139   0.58469   0.00000  Uiso   1.00
H708   H     0.93201   0.49214   0.60089   0.00000  Uiso   1.00
N709   N     0.83333   0.61907   0.50000   0.00000  Uiso   1.00
N710   N     0.83333   0.38093   0.50000   0.00000  Uiso   1.00
O711   O     0.77226   0.53821   0.50000   0.00000  Uiso   1.00
O712   O     0.89441   0.46179   0.50000   0.00000  Uiso   1.00
O713   O     0.89441   0.53821   0.50000   0.00000  Uiso   1.00
O714   O     0.77226   0.46179   0.50000   0.00000  Uiso   1.00
O715   O     0.83334   0.53821   0.42845   0.00000  Uiso   1.00
O716   O     0.83333   0.46179   0.57155   0.00000  Uiso   1.00
O717   O     0.83333   0.53821   0.57155   0.00000  Uiso   1.00
O718   O     0.83334   0.46179   0.42845   0.00000  Uiso   1.00
Zn719  Zn    0.83333   0.55104   0.50000   0.00000  Uiso   1.00
Zn720  Zn    0.83333   0.44896   0.50000   0.00000  Uiso   1.00
C721   C     0.08687   0.83326   0.50012   0.00000  Uiso   1.00
C722   C     0.02159   0.84348   0.54526   0.00000  Uiso   1.00
C723   C     0.29066   0.83361   0.49961   0.00000  Uiso   1.00
C724   C     0.04267   0.83306   0.50039   0.00000  Uiso   1.00
C725   C     0.19353   0.69071   0.52993   0.00000  Uiso   1.00
C726   C     0.13981   0.97596   0.47007   0.00000  Uiso   1.00
C727   C     0.13981   0.69052   0.47007   0.00000  Uiso   1.00
C728   C     0.19353   0.97615   0.52993   0.00000  Uiso   1.00
C729   C     0.04760   0.81198   0.40854   0.00000  Uiso   1.00
C730   C     0.28573   0.85469   0.59146   0.00000  Uiso   1.00
C731   C     0.28817   0.81363   0.40647   0.00000  Uiso   1.00
C732   C     0.24647   0.83340   0.49988   0.00000  Uiso   1.00
C733   C     0.04516   0.85303   0.59353   0.00000  Uiso   1.00
C734   C     0.16639   0.83332   0.40623   0.00000  Uiso   1.00
C735   C     0.16695   0.83334   0.59377   0.00000  Uiso   1.00
C736   C     0.16656   0.83332   0.35512   0.00000  Uiso   1.00
C737   C     0.16677   0.83335   0.64488   0.00000  Uiso   1.00
C738   C     0.02209   0.82269   0.45528   0.00000  Uiso   1.00
C739   C     0.31125   0.84398   0.54472   0.00000  Uiso   1.00
C740   C     0.31174   0.82319   0.45474   0.00000  Uiso   1.00
H741   H     0.21503   0.70885   0.55390   0.00000  Uiso   1.00
H742   H     0.30457   0.86240   0.62499   0.00000  Uiso   1.00
H743   H     0.25376   0.81613   0.40970   0.00000  Uiso   1.00
H744   H     0.29761   0.83855   0.37764   0.00000  Uiso   1.00
H745   H     0.29523   0.77892   0.39330   0.00000  Uiso   1.00
H746   H     0.07957   0.85054   0.59030   0.00000  Uiso   1.00
H747   H     0.03811   0.88775   0.60670   0.00000  Uiso   1.00
H748   H     0.03572   0.82811   0.62236   0.00000  Uiso   1.00
H749   H     0.11830   0.95781   0.44610   0.00000  Uiso   1.00
H750   H     0.11830   0.70851   0.44610   0.00000  Uiso   1.00
H751   H     0.21503   0.95815   0.55390   0.00000  Uiso   1.00
H752   H     0.06750   0.78194   0.41531   0.00000  Uiso   1.00
H753   H     0.02876   0.80427   0.37501   0.00000  Uiso   1.00
H754   H     0.06799   0.84120   0.39911   0.00000  Uiso   1.00
H755   H     0.26583   0.88473   0.58469   0.00000  Uiso   1.00
H756   H     0.26535   0.82547   0.60089   0.00000  Uiso   1.00
N757   N     0.16667   0.95240   0.50000   0.00000  Uiso   1.00
N758   N     0.16667   0.71427   0.50000   0.00000  Uiso   1.00
O759   O     0.10559   0.87154   0.50000   0.00000  Uiso   1.00
O760   O     0.22774   0.79513   0.50000   0.00000  Uiso   1.00
O761   O     0.22774   0.87154   0.50000   0.00000  Uiso   1.00
O762   O     0.10559   0.79513   0.50000   0.00000  Uiso   1.00
O763   O     0.16667   0.87155   0.42845   0.00000  Uiso   1.00
O764   O     0.16666   0.79512   0.57155   0.00000  Uiso   1.00
O765   O     0.16666   0.87155   0.57155   0.00000  Uiso   1.00
O766   O     0.16667   0.79512   0.42845   0.00000  Uiso   1.00
Zn767  Zn    0.16667   0.88437   0.50000   0.00000  Uiso   1.00
Zn768  Zn    0.16667   0.78229   0.50000   0.00000  Uiso   1.00
C769   C     0.42020   0.83326   0.50012   0.00000  Uiso   1.00
C770   C     0.35493   0.84348   0.54526   0.00000  Uiso   1.00
C771   C     0.62400   0.83361   0.49961   0.00000  Uiso   1.00
C772   C     0.37600   0.83306   0.50039   0.00000  Uiso   1.00
C773   C     0.52686   0.69071   0.52993   0.00000  Uiso   1.00
C774   C     0.47314   0.97596   0.47007   0.00000  Uiso   1.00
C775   C     0.47314   0.69052   0.47007   0.00000  Uiso   1.00
C776   C     0.52686   0.97615   0.52993   0.00000  Uiso   1.00
C777   C     0.38094   0.81198   0.40854   0.00000  Uiso   1.00
C778   C     0.61906   0.85469   0.59146   0.00000  Uiso   1.00
C779   C     0.62151   0.81363   0.40647   0.00000  Uiso   1.00
C780   C     0.57980   0.83340   0.49988   0.00000  Uiso   1.00
C781   C     0.37849   0.85303   0.59353   0.00000  Uiso   1.00
C782   C     0.49972   0.83332   0.40623   0.00000  Uiso   1.00
C783   C     0.50028   0.83334   0.59377   0.00000  Uiso   1.00
C784   C     0.49989   0.83332   0.35512   0.00000  Uiso   1.00
C785   C     0.50011   0.83335   0.64488   0.00000  Uiso   1.00
C786   C     0.35542   0.82269   0.45528   0.00000  Uiso   1.00
C787   C     0.64458   0.84398   0.54472   0.00000  Uiso   1.00
C788   C     0.64507   0.82319   0.45474   0.00000  Uiso   1.00
H789   H     0.54836   0.70885   0.55390   0.00000  Uiso   1.00
H790   H     0.63791   0.86240   0.62499   0.00000  Uiso   1.00
H791   H     0.58710   0.81613   0.40970   0.00000  Uiso   1.00
H792   H     0.63094   0.83855   0.37764   0.00000  Uiso   1.00
H793   H     0.62856   0.77892   0.39330   0.00000  Uiso   1.00
H794   H     0.41290   0.85054   0.59030   0.00000  Uiso   1.00
H795   H     0.37144   0.88775   0.60670   0.00000  Uiso   1.00
H796   H     0.36906   0.82811   0.62236   0.00000  Uiso   1.00
H797   H     0.45164   0.95781   0.44610   0.00000  Uiso   1.00
H798   H     0.45164   0.70851   0.44610   0.00000  Uiso   1.00
H799   H     0.54836   0.95815   0.55390   0.00000  Uiso   1.00
H800   H     0.40083   0.78194   0.41531   0.00000  Uiso   1.00
H801   H     0.36210   0.80427   0.37501   0.00000  Uiso   1.00
H802   H     0.40132   0.84120   0.39911   0.00000  Uiso   1.00
H803   H     0.59917   0.88473   0.58469   0.00000  Uiso   1.00
H804   H     0.59868   0.82547   0.60089   0.00000  Uiso   1.00
N805   N     0.50000   0.95240   0.50000   0.00000  Uiso   1.00
N806   N     0.50000   0.71427   0.50000   0.00000  Uiso   1.00
O807   O     0.43892   0.87154   0.50000   0.00000  Uiso   1.00
O808   O     0.56108   0.79513   0.50000   0.00000  Uiso   1.00
O809   O     0.56108   0.87154   0.50000   0.00000  Uiso   1.00
O810   O     0.43892   0.79513   0.50000   0.00000  Uiso   1.00
O811   O     0.50000   0.87155   0.42845   0.00000  Uiso   1.00
O812   O     0.50000   0.79512   0.57155   0.00000  Uiso   1.00
O813   O     0.50000   0.87155   0.57155   0.00000  Uiso   1.00
O814   O     0.50000   0.79512   0.42845   0.00000  Uiso   1.00
Zn815  Zn    0.50000   0.88437   0.50000   0.00000  Uiso   1.00
Zn816  Zn    0.50000   0.78229   0.50000   0.00000  Uiso   1.00
C817   C     0.75353   0.83326   0.50012   0.00000  Uiso   1.00
C818   C     0.68826   0.84348   0.54526   0.00000  Uiso   1.00
C819   C     0.95733   0.83361   0.49961   0.00000  Uiso   1.00
C820   C     0.70934   0.83306   0.50039   0.00000  Uiso   1.00
C821   C     0.86019   0.69071   0.52993   0.00000  Uiso   1.00
C822   C     0.80647   0.97596   0.47007   0.00000  Uiso   1.00
C823   C     0.80647   0.69052   0.47007   0.00000  Uiso   1.00
C824   C     0.86019   0.97615   0.52993   0.00000  Uiso   1.00
C825   C     0.71427   0.81198   0.40854   0.00000  Uiso   1.00
C826   C     0.95240   0.85469   0.59146   0.00000  Uiso   1.00
C827   C     0.95484   0.81363   0.40647   0.00000  Uiso   1.00
C828   C     0.91313   0.83340   0.49988   0.00000  Uiso   1.00
C829   C     0.71183   0.85303   0.59353   0.00000  Uiso   1.00
C830   C     0.83306   0.83332   0.40623   0.00000  Uiso   1.00
C831   C     0.83361   0.83334   0.59377   0.00000  Uiso   1.00
C832   C     0.83323   0.83332   0.35512   0.00000  Uiso   1.00
C833   C     0.83344   0.83335   0.64488   0.00000  Uiso   1.00
C834   C     0.68875   0.82269   0.45528   0.00000  Uiso   1.00
C835   C     0.97791   0.84398   0.54472   0.00000  Uiso   1.00
C836   C     0.97841   0.82319   0.45474   0.00000  Uiso   1.00
H837   H     0.88170   0.70885   0.55390   0.00000  Uiso   1.00
H838   H     0.97124   0.86240   0.62499   0.00000  Uiso   1.00
H839   H     0.92043   0.81613   0.40970   0.00000  Uiso   1.00
H840   H     0.96428   0.83855   0.37764   0.00000  Uiso   1.00
H841   H     0.96189   0.77892   0.39330   0.00000  Uiso   1.00
H842   H     0.74624   0.85054   0.59030   0.00000  Uiso   1.00
H843   H     0.70477   0.88775   0.60670   0.00000  Uiso   1.00
H844   H     0.70239   0.82811   0.62236   0.00000  Uiso   1.00
H845   H     0.78497   0.95781   0.44610   0.00000  Uiso   1.00
H846   H     0.78497   0.70851   0.44610   0.00000  Uiso   1.00
H847   H     0.88170   0.95815   0.55390   0.00000  Uiso   1.00
H848   H     0.73417   0.78194   0.41531   0.00000  Uiso   1.00
H849   H     0.69543   0.80427   0.37501   0.00000  Uiso   1.00
H850   H     0.73465   0.84120   0.39911   0.00000  Uiso   1.00
H851   H     0.93250   0.88473   0.58469   0.00000  Uiso   1.00
H852   H     0.93201   0.82547   0.60089   0.00000  Uiso   1.00
N853   N     0.83333   0.95240   0.50000   0.00000  Uiso   1.00
N854   N     0.83333   0.71427   0.50000   0.00000  Uiso   1.00
O855   O     0.77226   0.87154   0.50000   0.00000  Uiso   1.00
O856   O     0.89441   0.79513   0.50000   0.00000  Uiso   1.00
O857   O     0.89441   0.87154   0.50000   0.00000  Uiso   1.00
O858   O     0.77226   0.79513   0.50000   0.00000  Uiso   1.00
O859   O     0.83334   0.87155   0.42845   0.00000  Uiso   1.00
O860   O     0.83333   0.79512   0.57155   0.00000  Uiso   1.00
O861   O     0.83333   0.87155   0.57155   0.00000  Uiso   1.00
O862   O     0.83334   0.79512   0.42845   0.00000  Uiso   1.00
Zn863  Zn    0.83333   0.88437   0.50000   0.00000  Uiso   1.00
Zn864  Zn    0.83333   0.78229   0.50000   0.00000  Uiso   1.00
C865   C     0.08687   0.16660   0.83345   0.00000  Uiso   1.00
C866   C     0.02159   0.17681   0.87859   0.00000  Uiso   1.00
C867   C     0.29066   0.16694   0.83295   0.00000  Uiso   1.00
C868   C     0.04267   0.16639   0.83372   0.00000  Uiso   1.00
C869   C     0.19353   0.02404   0.86326   0.00000  Uiso   1.00
C870   C     0.13981   0.30929   0.80341   0.00000  Uiso   1.00
C871   C     0.13981   0.02385   0.80340   0.00000  Uiso   1.00
C872   C     0.19353   0.30948   0.86326   0.00000  Uiso   1.00
C873   C     0.04760   0.14531   0.74187   0.00000  Uiso   1.00
C874   C     0.28573   0.18802   0.92480   0.00000  Uiso   1.00
C875   C     0.28817   0.14697   0.73980   0.00000  Uiso   1.00
C876   C     0.24647   0.16674   0.83321   0.00000  Uiso   1.00
C877   C     0.04516   0.18637   0.92687   0.00000  Uiso   1.00
C878   C     0.16639   0.16666   0.73956   0.00000  Uiso   1.00
C879   C     0.16695   0.16668   0.92710   0.00000  Uiso   1.00
C880   C     0.16656   0.16665   0.68846   0.00000  Uiso   1.00
C881   C     0.16677   0.16668   0.97821   0.00000  Uiso   1.00
C882   C     0.02209   0.15602   0.78861   0.00000  Uiso   1.00
C883   C     0.31125   0.17731   0.87806   0.00000  Uiso   1.00
C884   C     0.31174   0.15652   0.78807   0.00000  Uiso   1.00
H885   H     0.21503   0.04219   0.88723   0.00000  Uiso   1.00
H886   H     0.30457   0.19573   0.95832   0.00000  Uiso   1.00
H887   H     0.25376   0.14946   0.74303   0.00000  Uiso   1.00
H888   H     0.29761   0.17189   0.71097   0.00000  Uiso   1.00
H889   H     0.29523   0.11225   0.72663   0.00000  Uiso   1.00
H890   H     0.07957   0.18387   0.92364   0.00000  Uiso   1.00
H891   H     0.03811   0.22108   0.94003   0.00000  Uiso   1.00
H892   H     0.03572   0.16145   0.95570   0.00000  Uiso   1.00
H893   H     0.11830   0.29114   0.77943   0.00000  Uiso   1.00
H894   H     0.11830   0.04185   0.77944   0.00000  Uiso   1.00
H895   H     0.21503   0.29149   0.88723   0.00000  Uiso   1.00
H896   H     0.06750   0.11527   0.74864   0.00000  Uiso   1.00
H897   H     0.02876   0.13760   0.70834   0.00000  Uiso   1.00
H898   H     0.06799   0.17453   0.73245   0.00000  Uiso   1.00
H899   H     0.26583   0.21806   0.91802   0.00000  Uiso   1.00
H900   H     0.26535   0.15880   0.93422   0.00000  Uiso   1.00
N901   N     0.16667   0.28573   0.83333   0.00000  Uiso   1.00
N902   N     0.16667   0.04760   0.83333   0.00000  Uiso   1.00
O903   O     0.10559   0.20487   0.83333   0.00000  Uiso   1.00
O904   O     0.22774   0.12846   0.83334   0.00000  Uiso   1.00
O905   O     0.22774   0.20487   0.83334   0.00000  Uiso   1.00
O906   O     0.10559   0.12846   0.83333   0.00000  Uiso   1.00
O907   O     0.16667   0.20488   0.76178   0.00000  Uiso   1.00
O908   O     0.16666   0.12845   0.90489   0.00000  Uiso   1.00
O909   O     0.16666   0.20488   0.90489   0.00000  Uiso   1.00
O910   O     0.16667   0.12845   0.76178   0.00000  Uiso   1.00
Zn911  Zn    0.16667   0.21771   0.83333   0.00000  Uiso   1.00
Zn912  Zn    0.16667   0.11563   0.83333   0.00000  Uiso   1.00
C913   C     0.42020   0.16660   0.83345   0.00000  Uiso   1.00
C914   C     0.35493   0.17681   0.87859   0.00000  Uiso   1.00
C915   C     0.62400   0.16694   0.83295   0.00000  Uiso   1.00
C916   C     0.37600   0.16639   0.83372   0.00000  Uiso   1.00
C917   C     0.52686   0.02404   0.86326   0.00000  Uiso   1.00
C918   C     0.47314   0.30929   0.80341   0.00000  Uiso   1.00
C919   C     0.47314   0.02385   0.80340   0.00000  Uiso   1.00
C920   C     0.52686   0.30948   0.86326   0.00000  Uiso   1.00
C921   C     0.38094   0.14531   0.74187   0.00000  Uiso   1.00
C922   C     0.61906   0.18802   0.92480   0.00000  Uiso   1.00
C923   C     0.62151   0.14697   0.73980   0.00000  Uiso   1.00
C924   C     0.57980   0.16674   0.83321   0.00000  Uiso   1.00
C925   C     0.37849   0.18637   0.92687   0.00000  Uiso   1.00
C926   C     0.49972   0.16666   0.73956   0.00000  Uiso   1.00
C927   C     0.50028   0.16668   0.92710   0.00000  Uiso   1.00
C928   C     0.49989   0.16665   0.68846   0.00000  Uiso   1.00
C929   C     0.50011   0.16668   0.97821   0.00000  Uiso   1.00
C930   C     0.35542   0.15602   0.78861   0.00000  Uiso   1.00
C931   C     0.64458   0.17731   0.87806   0.00000  Uiso   1.00
C932   C     0.64507   0.15652   0.78807   0.00000  Uiso   1.00
H933   H     0.54836   0.04219   0.88723   0.00000  Uiso   1.00
H934   H     0.63791   0.19573   0.95832   0.00000  Uiso   1.00
H935   H     0.58710   0.14946   0.74303   0.00000  Uiso   1.00
H936   H     0.63094   0.17189   0.71097   0.00000  Uiso   1.00
H937   H     0.62856   0.11225   0.72663   0.00000  Uiso   1.00
H938   H     0.41290   0.18387   0.92364   0.00000  Uiso   1.00
H939   H     0.37144   0.22108   0.94003   0.00000  Uiso   1.00
H940   H     0.36906   0.16145   0.95570   0.00000  Uiso   1.00
H941   H     0.45164   0.29114   0.77943   0.00000  Uiso   1.00
H942   H     0.45164   0.04185   0.77944   0.00000  Uiso   1.00
H943   H     0.54836   0.29149   0.88723   0.00000  Uiso   1.00
H944   H     0.40083   0.11527   0.74864   0.00000  Uiso   1.00
H945   H     0.36210   0.13760   0.70834   0.00000  Uiso   1.00
H946   H     0.40132   0.17453   0.73245   0.00000  Uiso   1.00
H947   H     0.59917   0.21806   0.91802   0.00000  Uiso   1.00
H948   H     0.59868   0.15880   0.93422   0.00000  Uiso   1.00
N949   N     0.50000   0.28573   0.83333   0.00000  Uiso   1.00
N950   N     0.50000   0.04760   0.83333   0.00000  Uiso   1.00
O951   O     0.43892   0.20487   0.83333   0.00000  Uiso   1.00
O952   O     0.56108   0.12846   0.83334   0.00000  Uiso   1.00
O953   O     0.56108   0.20487   0.83334   0.00000  Uiso   1.00
O954   O     0.43892   0.12846   0.83333   0.00000  Uiso   1.00
O955   O     0.50000   0.20488   0.76178   0.00000  Uiso   1.00
O956   O     0.50000   0.12845   0.90489   0.00000  Uiso   1.00
O957   O     0.50000   0.20488   0.90489   0.00000  Uiso   1.00
O958   O     0.50000   0.12845   0.76178   0.00000  Uiso   1.00
Zn959  Zn    0.50000   0.21771   0.83333   0.00000  Uiso   1.00
Zn960  Zn    0.50000   0.11563   0.83333   0.00000  Uiso   1.00
C961   C     0.75353   0.16660   0.83345   0.00000  Uiso   1.00
C962   C     0.68826   0.17681   0.87859   0.00000  Uiso   1.00
C963   C     0.95733   0.16694   0.83295   0.00000  Uiso   1.00
C964   C     0.70934   0.16639   0.83372   0.00000  Uiso   1.00
C965   C     0.86019   0.02404   0.86326   0.00000  Uiso   1.00
C966   C     0.80647   0.30929   0.80341   0.00000  Uiso   1.00
C967   C     0.80647   0.02385   0.80340   0.00000  Uiso   1.00
C968   C     0.86019   0.30948   0.86326   0.00000  Uiso   1.00
C969   C     0.71427   0.14531   0.74187   0.00000  Uiso   1.00
C970   C     0.95240   0.18802   0.92480   0.00000  Uiso   1.00
C971   C     0.95484   0.14697   0.73980   0.00000  Uiso   1.00
C972   C     0.91313   0.16674   0.83321   0.00000  Uiso   1.00
C973   C     0.71183   0.18637   0.92687   0.00000  Uiso   1.00
C974   C     0.83306   0.16666   0.73956   0.00000  Uiso   1.00
C975   C     0.83361   0.16668   0.92710   0.00000  Uiso   1.00
C976   C     0.83323   0.16665   0.68846   0.00000  Uiso   1.00
C977   C     0.83344   0.16668   0.97821   0.00000  Uiso   1.00
C978   C     0.68875   0.15602   0.78861   0.00000  Uiso   1.00
C979   C     0.97791   0.17731   0.87806   0.00000  Uiso   1.00
C980   C     0.97841   0.15652   0.78807   0.00000  Uiso   1.00
H981   H     0.88170   0.04219   0.88723   0.00000  Uiso   1.00
H982   H     0.97124   0.19573   0.95832   0.00000  Uiso   1.00
H983   H     0.92043   0.14946   0.74303   0.00000  Uiso   1.00
H984   H     0.96428   0.17189   0.71097   0.00000  Uiso   1.00
H985   H     0.96189   0.11225   0.72663   0.00000  Uiso   1.00
H986   H     0.74624   0.18387   0.92364   0.00000  Uiso   1.00
H987   H     0.70477   0.22108   0.94003   0.00000  Uiso   1.00
H988   H     0.70239   0.16145   0.95570   0.00000  Uiso   1.00
H989   H     0.78497   0.29114   0.77943   0.00000  Uiso   1.00
H990   H     0.78497   0.04185   0.77944   0.00000  Uiso   1.00
H991   H     0.88170   0.29149   0.88723   0.00000  Uiso   1.00
H992   H     0.73417   0.11527   0.74864   0.00000  Uiso   1.00
H993   H     0.69543   0.13760   0.70834   0.00000  Uiso   1.00
H994   H     0.73465   0.17453   0.73245   0.00000  Uiso   1.00
H995   H     0.93250   0.21806   0.91802   0.00000  Uiso   1.00
H996   H     0.93201   0.15880   0.93422   0.00000  Uiso   1.00
N997   N     0.83333   0.28573   0.83333   0.00000  Uiso   1.00
N998   N     0.83333   0.04760   0.83333   0.00000  Uiso   1.00
O999   O     0.77226   0.20487   0.83333   0.00000  Uiso   1.00
O1000  O     0.89441   0.12846   0.83334   0.00000  Uiso   1.00
O1001  O     0.89441   0.20487   0.83334   0.00000  Uiso   1.00
O1002  O     0.77226   0.12846   0.83333   0.00000  Uiso   1.00
O1003  O     0.83334   0.20488   0.76178   0.00000  Uiso   1.00
O1004  O     0.83333   0.12845   0.90489   0.00000  Uiso   1.00
O1005  O     0.83333   0.20488   0.90489   0.00000  Uiso   1.00
O1006  O     0.83334   0.12845   0.76178   0.00000  Uiso   1.00
Zn1007 Zn    0.83333   0.21771   0.83333   0.00000  Uiso   1.00
Zn1008 Zn    0.83333   0.11563   0.83333   0.00000  Uiso   1.00
C1009  C     0.08687   0.49993   0.83345   0.00000  Uiso   1.00
C1010  C     0.02159   0.51015   0.87859   0.00000  Uiso   1.00
C1011  C     0.29066   0.50027   0.83295   0.00000  Uiso   1.00
C1012  C     0.04267   0.49973   0.83372   0.00000  Uiso   1.00
C1013  C     0.19353   0.35737   0.86326   0.00000  Uiso   1.00
C1014  C     0.13981   0.64263   0.80341   0.00000  Uiso   1.00
C1015  C     0.13981   0.35718   0.80340   0.00000  Uiso   1.00
C1016  C     0.19353   0.64282   0.86326   0.00000  Uiso   1.00
C1017  C     0.04760   0.47864   0.74187   0.00000  Uiso   1.00
C1018  C     0.28573   0.52136   0.92480   0.00000  Uiso   1.00
C1019  C     0.28817   0.48030   0.73980   0.00000  Uiso   1.00
C1020  C     0.24647   0.50007   0.83321   0.00000  Uiso   1.00
C1021  C     0.04516   0.51970   0.92687   0.00000  Uiso   1.00
C1022  C     0.16639   0.49999   0.73956   0.00000  Uiso   1.00
C1023  C     0.16695   0.50001   0.92710   0.00000  Uiso   1.00
C1024  C     0.16656   0.49998   0.68846   0.00000  Uiso   1.00
C1025  C     0.16677   0.50002   0.97821   0.00000  Uiso   1.00
C1026  C     0.02209   0.48935   0.78861   0.00000  Uiso   1.00
C1027  C     0.31125   0.51065   0.87806   0.00000  Uiso   1.00
C1028  C     0.31174   0.48985   0.78807   0.00000  Uiso   1.00
H1029  H     0.21503   0.37552   0.88723   0.00000  Uiso   1.00
H1030  H     0.30457   0.52906   0.95832   0.00000  Uiso   1.00
H1031  H     0.25376   0.48280   0.74303   0.00000  Uiso   1.00
H1032  H     0.29761   0.50522   0.71097   0.00000  Uiso   1.00
H1033  H     0.29523   0.44558   0.72663   0.00000  Uiso   1.00
H1034  H     0.07957   0.51720   0.92364   0.00000  Uiso   1.00
H1035  H     0.03811   0.55442   0.94003   0.00000  Uiso   1.00
H1036  H     0.03572   0.49478   0.95570   0.00000  Uiso   1.00
H1037  H     0.11830   0.62448   0.77943   0.00000  Uiso   1.00
H1038  H     0.11830   0.37518   0.77944   0.00000  Uiso   1.00
H1039  H     0.21503   0.62482   0.88723   0.00000  Uiso   1.00
H1040  H     0.06750   0.44861   0.74864   0.00000  Uiso   1.00
H1041  H     0.02876   0.47094   0.70834   0.00000  Uiso   1.00
H1042  H     0.06799   0.50786   0.73245   0.00000  Uiso   1.00
H1043  H     0.26583   0.55139   0.91802   0.00000  Uiso   1.00
H1044  H     0.26535   0.49214   0.93422   0.00000  Uiso   1.00
N1045  N     0.16667   0.61907   0.83333   0.00000  Uiso   1.00
N1046  N     0.16667   0.38093   0.83333   0.00000  Uiso   1.00
O1047  O     0.10559   0.53821   0.83333   0.00000  Uiso   1.00
O1048  O     0.22774   0.46179   0.83334   0.00000  Uiso   1.00
O1049  O     0.22774   0.53821   0.83334   0.00000  Uiso   1.00
O1050  O     0.10559   0.46179   0.83333   0.00000  Uiso   1.00
O1051  O     0.16667   0.53821   0.76178   0.00000  Uiso   1.00
O1052  O     0.16666   0.46179   0.90489   0.00000  Uiso   1.00
O1053  O     0.16666   0.53821   0.90489   0.00000  Uiso   1.00
O1054  O     0.16667   0.46179   0.76178   0.00000  Uiso   1.00
Zn1055 Zn    0.16667   0.55104   0.83333   0.00000  Uiso   1.00
Zn1056 Zn    0.16667   0.44896   0.83333   0.00000  Uiso   1.00
C1057  C     0.42020   0.49993   0.83345   0.00000  Uiso   1.00
C1058  C     0.35493   0.51015   0.87859   0.00000  Uiso   1.00
C1059  C     0.62400   0.50027   0.83295   0.00000  Uiso   1.00
C1060  C     0.37600   0.49973   0.83372   0.00000  Uiso   1.00
C1061  C     0.52686   0.35737   0.86326   0.00000  Uiso   1.00
C1062  C     0.47314   0.64263   0.80341   0.00000  Uiso   1.00
C1063  C     0.47314   0.35718   0.80340   0.00000  Uiso   1.00
C1064  C     0.52686   0.64282   0.86326   0.00000  Uiso   1.00
C1065  C     0.38094   0.47864   0.74187   0.00000  Uiso   1.00
C1066  C     0.61906   0.52136   0.92480   0.00000  Uiso   1.00
C1067  C     0.62151   0.48030   0.73980   0.00000  Uiso   1.00
C1068  C     0.57980   0.50007   0.83321   0.00000  Uiso   1.00
C1069  C     0.37849   0.51970   0.92687   0.00000  Uiso   1.00
C1070  C     0.49972   0.49999   0.73956   0.00000  Uiso   1.00
C1071  C     0.50028   0.50001   0.92710   0.00000  Uiso   1.00
C1072  C     0.49989   0.49998   0.68846   0.00000  Uiso   1.00
C1073  C     0.50011   0.50002   0.97821   0.00000  Uiso   1.00
C1074  C     0.35542   0.48935   0.78861   0.00000  Uiso   1.00
C1075  C     0.64458   0.51065   0.87806   0.00000  Uiso   1.00
C1076  C     0.64507   0.48985   0.78807   0.00000  Uiso   1.00
H1077  H     0.54836   0.37552   0.88723   0.00000  Uiso   1.00
H1078  H     0.63791   0.52906   0.95832   0.00000  Uiso   1.00
H1079  H     0.58710   0.48280   0.74303   0.00000  Uiso   1.00
H1080  H     0.63094   0.50522   0.71097   0.00000  Uiso   1.00
H1081  H     0.62856   0.44558   0.72663   0.00000  Uiso   1.00
H1082  H     0.41290   0.51720   0.92364   0.00000  Uiso   1.00
H1083  H     0.37144   0.55442   0.94003   0.00000  Uiso   1.00
H1084  H     0.36906   0.49478   0.95570   0.00000  Uiso   1.00
H1085  H     0.45164   0.62448   0.77943   0.00000  Uiso   1.00
H1086  H     0.45164   0.37518   0.77944   0.00000  Uiso   1.00
H1087  H     0.54836   0.62482   0.88723   0.00000  Uiso   1.00
H1088  H     0.40083   0.44861   0.74864   0.00000  Uiso   1.00
H1089  H     0.36210   0.47094   0.70834   0.00000  Uiso   1.00
H1090  H     0.40132   0.50786   0.73245   0.00000  Uiso   1.00
H1091  H     0.59917   0.55139   0.91802   0.00000  Uiso   1.00
H1092  H     0.59868   0.49214   0.93422   0.00000  Uiso   1.00
N1093  N     0.50000   0.61907   0.83333   0.00000  Uiso   1.00
N1094  N     0.50000   0.38093   0.83333   0.00000  Uiso   1.00
O1095  O     0.43892   0.53821   0.83333   0.00000  Uiso   1.00
O1096  O     0.56108   0.46179   0.83334   0.00000  Uiso   1.00
O1097  O     0.56108   0.53821   0.83334   0.00000  Uiso   1.00
O1098  O     0.43892   0.46179   0.83333   0.00000  Uiso   1.00
O1099  O     0.50000   0.53821   0.76178   0.00000  Uiso   1.00
O1100  O     0.50000   0.46179   0.90489   0.00000  Uiso   1.00
O1101  O     0.50000   0.53821   0.90489   0.00000  Uiso   1.00
O1102  O     0.50000   0.46179   0.76178   0.00000  Uiso   1.00
Zn1103 Zn    0.50000   0.55104   0.83333   0.00000  Uiso   1.00
Zn1104 Zn    0.50000   0.44896   0.83333   0.00000  Uiso   1.00
C1105  C     0.75353   0.49993   0.83345   0.00000  Uiso   1.00
C1106  C     0.68826   0.51015   0.87859   0.00000  Uiso   1.00
C1107  C     0.95733   0.50027   0.83295   0.00000  Uiso   1.00
C1108  C     0.70934   0.49973   0.83372   0.00000  Uiso   1.00
C1109  C     0.86019   0.35737   0.86326   0.00000  Uiso   1.00
C1110  C     0.80647   0.64263   0.80341   0.00000  Uiso   1.00
C1111  C     0.80647   0.35718   0.80340   0.00000  Uiso   1.00
C1112  C     0.86019   0.64282   0.86326   0.00000  Uiso   1.00
C1113  C     0.71427   0.47864   0.74187   0.00000  Uiso   1.00
C1114  C     0.95240   0.52136   0.92480   0.00000  Uiso   1.00
C1115  C     0.95484   0.48030   0.73980   0.00000  Uiso   1.00
C1116  C     0.91313   0.50007   0.83321   0.00000  Uiso   1.00
C1117  C     0.71183   0.51970   0.92687   0.00000  Uiso   1.00
C1118  C     0.83306   0.49999   0.73956   0.00000  Uiso   1.00
C1119  C     0.83361   0.50001   0.92710   0.00000  Uiso   1.00
C1120  C     0.83323   0.49998   0.68846   0.00000  Uiso   1.00
C1121  C     0.83344   0.50002   0.97821   0.00000  Uiso   1.00
C1122  C     0.68875   0.48935   0.78861   0.00000  Uiso   1.00
C1123  C     0.97791   0.51065   0.87806   0.00000  Uiso   1.00
C1124  C     0.97841   0.48985   0.78807   0.00000  Uiso   1.00
H1125  H     0.88170   0.37552   0.88723   0.00000  Uiso   1.00
H1126  H     0.97124   0.52906   0.95832   0.00000  Uiso   1.00
H1127  H     0.92043   0.48280   0.74303   0.00000  Uiso   1.00
H1128  H     0.96428   0.50522   0.71097   0.00000  Uiso   1.00
H1129  H     0.96189   0.44558   0.72663   0.00000  Uiso   1.00
H1130  H     0.74624   0.51720   0.92364   0.00000  Uiso   1.00
H1131  H     0.70477   0.55442   0.94003   0.00000  Uiso   1.00
H1132  H     0.70239   0.49478   0.95570   0.00000  Uiso   1.00
H1133  H     0.78497   0.62448   0.77943   0.00000  Uiso   1.00
H1134  H     0.78497   0.37518   0.77944   0.00000  Uiso   1.00
H1135  H     0.88170   0.62482   0.88723   0.00000  Uiso   1.00
H1136  H     0.73417   0.44861   0.74864   0.00000  Uiso   1.00
H1137  H     0.69543   0.47094   0.70834   0.00000  Uiso   1.00
H1138  H     0.73465   0.50786   0.73245   0.00000  Uiso   1.00
H1139  H     0.93250   0.55139   0.91802   0.00000  Uiso   1.00
H1140  H     0.93201   0.49214   0.93422   0.00000  Uiso   1.00
N1141  N     0.83333   0.61907   0.83333   0.00000  Uiso   1.00
N1142  N     0.83333   0.38093   0.83333   0.00000  Uiso   1.00
O1143  O     0.77226   0.53821   0.83333   0.00000  Uiso   1.00
O1144  O     0.89441   0.46179   0.83334   0.00000  Uiso   1.00
O1145  O     0.89441   0.53821   0.83334   0.00000  Uiso   1.00
O1146  O     0.77226   0.46179   0.83333   0.00000  Uiso   1.00
O1147  O     0.83334   0.53821   0.76178   0.00000  Uiso   1.00
O1148  O     0.83333   0.46179   0.90489   0.00000  Uiso   1.00
O1149  O     0.83333   0.53821   0.90489   0.00000  Uiso   1.00
O1150  O     0.83334   0.46179   0.76178   0.00000  Uiso   1.00
Zn1151 Zn    0.83333   0.55104   0.83333   0.00000  Uiso   1.00
Zn1152 Zn    0.83333   0.44896   0.83333   0.00000  Uiso   1.00
C1153  C     0.08687   0.83326   0.83345   0.00000  Uiso   1.00
C1154  C     0.02159   0.84348   0.87859   0.00000  Uiso   1.00
C1155  C     0.29066   0.83361   0.83295   0.00000  Uiso   1.00
C1156  C     0.04267   0.83306   0.83372   0.00000  Uiso   1.00
C1157  C     0.19353   0.69071   0.86326   0.00000  Uiso   1.00
C1158  C     0.13981   0.97596   0.80341   0.00000  Uiso   1.00
C1159  C     0.13981   0.69052   0.80340   0.00000  Uiso   1.00
C1160  C     0.19353   0.97615   0.86326   0.00000  Uiso   1.00
C1161  C     0.04760   0.81198   0.74187   0.00000  Uiso   1.00
C1162  C     0.28573   0.85469   0.92480   0.00000  Uiso   1.00
C1163  C     0.28817   0.81363   0.73980   0.00000  Uiso   1.00
C1164  C     0.24647   0.83340   0.83321   0.00000  Uiso   1.00
C1165  C     0.04516   0.85303   0.92687   0.00000  Uiso   1.00
C1166  C     0.16639   0.83332   0.73956   0.00000  Uiso   1.00
C1167  C     0.16695   0.83334   0.92710   0.00000  Uiso   1.00
C1168  C     0.16656   0.83332   0.68846   0.00000  Uiso   1.00
C1169  C     0.16677   0.83335   0.97821   0.00000  Uiso   1.00
C1170  C     0.02209   0.82269   0.78861   0.00000  Uiso   1.00
C1171  C     0.31125   0.84398   0.87806   0.00000  Uiso   1.00
C1172  C     0.31174   0.82319   0.78807   0.00000  Uiso   1.00
H1173  H     0.21503   0.70885   0.88723   0.00000  Uiso   1.00
H1174  H     0.30457   0.86240   0.95832   0.00000  Uiso   1.00
H1175  H     0.25376   0.81613   0.74303   0.00000  Uiso   1.00
H1176  H     0.29761   0.83855   0.71097   0.00000  Uiso   1.00
H1177  H     0.29523   0.77892   0.72663   0.00000  Uiso   1.00
H1178  H     0.07957   0.85054   0.92364   0.00000  Uiso   1.00
H1179  H     0.03811   0.88775   0.94003   0.00000  Uiso   1.00
H1180  H     0.03572   0.82811   0.95570   0.00000  Uiso   1.00
H1181  H     0.11830   0.95781   0.77943   0.00000  Uiso   1.00
H1182  H     0.11830   0.70851   0.77944   0.00000  Uiso   1.00
H1183  H     0.21503   0.95815   0.88723   0.00000  Uiso   1.00
H1184  H     0.06750   0.78194   0.74864   0.00000  Uiso   1.00
H1185  H     0.02876   0.80427   0.70834   0.00000  Uiso   1.00
H1186  H     0.06799   0.84120   0.73245   0.00000  Uiso   1.00
H1187  H     0.26583   0.88473   0.91802   0.00000  Uiso   1.00
H1188  H     0.26535   0.82547   0.93422   0.00000  Uiso   1.00
N1189  N     0.16667   0.95240   0.83333   0.00000  Uiso   1.00
N1190  N     0.16667   0.71427   0.83333   0.00000  Uiso   1.00
O1191  O     0.10559   0.87154   0.83333   0.00000  Uiso   1.00
O1192  O     0.22774   0.79513   0.83334   0.00000  Uiso   1.00
O1193  O     0.22774   0.87154   0.83334   0.00000  Uiso   1.00
O1194  O     0.10559   0.79513   0.83333   0.00000  Uiso   1.00
O1195  O     0.16667   0.87155   0.76178   0.00000  Uiso   1.00
O1196  O     0.16666   0.79512   0.90489   0.00000  Uiso   1.00
O1197  O     0.16666   0.87155   0.90489   0.00000  Uiso   1.00
O1198  O     0.16667   0.79512   0.76178   0.00000  Uiso   1.00
Zn1199 Zn    0.16667   0.88437   0.83333   0.00000  Uiso   1.00
Zn1200 Zn    0.16667   0.78229   0.83333   0.00000  Uiso   1.00
C1201  C     0.42020   0.83326   0.83345   0.00000  Uiso   1.00
C1202  C     0.35493   0.84348   0.87859   0.00000  Uiso   1.00
C1203  C     0.62400   0.83361   0.83295   0.00000  Uiso   1.00
C1204  C     0.37600   0.83306   0.83372   0.00000  Uiso   1.00
C1205  C     0.52686   0.69071   0.86326   0.00000  Uiso   1.00
C1206  C     0.47314   0.97596   0.80341   0.00000  Uiso   1.00
C1207  C     0.47314   0.69052   0.80340   0.00000  Uiso   1.00
C1208  C     0.52686   0.97615   0.86326   0.00000  Uiso   1.00
C1209  C     0.38094   0.81198   0.74187   0.00000  Uiso   1.00
C1210  C     0.61906   0.85469   0.92480   0.00000  Uiso   1.00
C1211  C     0.62151   0.81363   0.73980   0.00000  Uiso   1.00
C1212  C     0.57980   0.83340   0.83321   0.00000  Uiso   1.00
C1213  C     0.37849   0.85303   0.92687   0.00000  Uiso   1.00
C1214  C     0.49972   0.83332   0.73956   0.00000  Uiso   1.00
C1215  C     0.50028   0.83334   0.92710   0.00000  Uiso   1.00
C1216  C     0.49989   0.83332   0.68846   0.00000  Uiso   1.00
C1217  C     0.50011   0.83335   0.97821   0.00000  Uiso   1.00
C1218  C     0.35542   0.82269   0.78861   0.00000  Uiso   1.00
C1219  C     0.64458   0.84398   0.87806   0.00000  Uiso   1.00
C1220  C     0.64507   0.82319   0.78807   0.00000  Uiso   1.00
H1221  H     0.54836   0.70885   0.88723   0.00000  Uiso   1.00
H1222  H     0.63791   0.86240   0.95832   0.00000  Uiso   1.00
H1223  H     0.58710   0.81613   0.74303   0.00000  Uiso   1.00
H1224  H     0.63094   0.83855   0.71097   0.00000  Uiso   1.00
H1225  H     0.62856   0.77892   0.72663   0.00000  Uiso   1.00
H1226  H     0.41290   0.85054   0.92364   0.00000  Uiso   1.00
H1227  H     0.37144   0.88775   0.94003   0.00000  Uiso   1.00
H1228  H     0.36906   0.82811   0.95570   0.00000  Uiso   1.00
H1229  H     0.45164   0.95781   0.77943   0.00000  Uiso   1.00
H1230  H     0.45164   0.70851   0.77944   0.00000  Uiso   1.00
H1231  H     0.54836   0.95815   0.88723   0.00000  Uiso   1.00
H1232  H     0.40083   0.78194   0.74864   0.00000  Uiso   1.00
H1233  H     0.36210   0.80427   0.70834   0.00000  Uiso   1.00
H1234  H     0.40132   0.84120   0.73245   0.00000  Uiso   1.00
H1235  H     0.59917   0.88473   0.91802   0.00000  Uiso   1.00
H1236  H     0.59868   0.82547   0.93422   0.00000  Uiso   1.00
N1237  N     0.50000   0.95240   0.83333   0.00000  Uiso   1.00
N1238  N     0.50000   0.71427   0.83333   0.00000  Uiso   1.00
O1239  O     0.43892   0.87154   0.83333   0.00000  Uiso   1.00
O1240  O     0.56108   0.79513   0.83334   0.00000  Uiso   1.00
O1241  O     0.56108   0.87154   0.83334   0.00000  Uiso   1.00
O1242  O     0.43892   0.79513   0.83333   0.00000  Uiso   1.00
O1243  O     0.50000   0.87155   0.76178   0.00000  Uiso   1.00
O1244  O     0.50000   0.79512   0.90489   0.00000  Uiso   1.00
O1245  O     0.50000   0.87155   0.90489   0.00000  Uiso   1.00
O1246  O     0.50000   0.79512   0.76178   0.00000  Uiso   1.00
Zn1247 Zn    0.50000   0.88437   0.83333   0.00000  Uiso   1.00
Zn1248 Zn    0.50000   0.78229   0.83333   0.00000  Uiso   1.00
C1249  C     0.75353   0.83326   0.83345   0.00000  Uiso   1.00
C1250  C     0.68826   0.84348   0.87859   0.00000  Uiso   1.00
C1251  C     0.95733   0.83361   0.83295   0.00000  Uiso   1.00
C1252  C     0.70934   0.83306   0.83372   0.00000  Uiso   1.00
C1253  C     0.86019   0.69071   0.86326   0.00000  Uiso   1.00
C1254  C     0.80647   0.97596   0.80341   0.00000  Uiso   1.00
C1255  C     0.80647   0.69052   0.80340   0.00000  Uiso   1.00
C1256  C     0.86019   0.97615   0.86326   0.00000  Uiso   1.00
C1257  C     0.71427   0.81198   0.74187   0.00000  Uiso   1.00
C1258  C     0.95240   0.85469   0.92480   0.00000  Uiso   1.00
C1259  C     0.95484   0.81363   0.73980   0.00000  Uiso   1.00
C1260  C     0.91313   0.83340   0.83321   0.00000  Uiso   1.00
C1261  C     0.71183   0.85303   0.92687   0.00000  Uiso   1.00
C1262  C     0.83306   0.83332   0.73956   0.00000  Uiso   1.00
C1263  C     0.83361   0.83334   0.92710   0.00000  Uiso   1.00
C1264  C     0.83323   0.83332   0.68846   0.00000  Uiso   1.00
C1265  C     0.83344   0.83335   0.97821   0.00000  Uiso   1.00
C1266  C     0.68875   0.82269   0.78861   0.00000  Uiso   1.00
C1267  C     0.97791   0.84398   0.87806   0.00000  Uiso   1.00
C1268  C     0.97841   0.82319   0.78807   0.00000  Uiso   1.00
H1269  H     0.88170   0.70885   0.88723   0.00000  Uiso   1.00
H1270  H     0.97124   0.86240   0.95832   0.00000  Uiso   1.00
H1271  H     0.92043   0.81613   0.74303   0.00000  Uiso   1.00
H1272  H     0.96428   0.83855   0.71097   0.00000  Uiso   1.00
H1273  H     0.96189   0.77892   0.72663   0.00000  Uiso   1.00
H1274  H     0.74624   0.85054   0.92364   0.00000  Uiso   1.00
H1275  H     0.70477   0.88775   0.94003   0.00000  Uiso   1.00
H1276  H     0.70239   0.82811   0.95570   0.00000  Uiso   1.00
H1277  H     0.78497   0.95781   0.77943   0.00000  Uiso   1.00
H1278  H     0.78497   0.70851   0.77944   0.00000  Uiso   1.00
H1279  H     0.88170   0.95815   0.88723   0.00000  Uiso   1.00
H1280  H     0.73417   0.78194   0.74864   0.00000  Uiso   1.00
H1281  H     0.69543   0.80427   0.70834   0.00000  Uiso   1.00
H1282  H     0.73465   0.84120   0.73245   0.00000  Uiso   1.00
H1283  H     0.93250   0.88473   0.91802   0.00000  Uiso   1.00
H1284  H     0.93201   0.82547   0.93422   0.00000  Uiso   1.00
N1285  N     0.83333   0.95240   0.83333   0.00000  Uiso   1.00
N1286  N     0.83333   0.71427   0.83333   0.00000  Uiso   1.00
O1287  O     0.77226   0.87154   0.83333   0.00000  Uiso   1.00
O1288  O     0.89441   0.79513   0.83334   0.00000  Uiso   1.00
O1289  O     0.89441   0.87154   0.83334   0.00000  Uiso   1.00
O1290  O     0.77226   0.79513   0.83333   0.00000  Uiso   1.00
O1291  O     0.83334   0.87155   0.76178   0.00000  Uiso   1.00
O1292  O     0.83333   0.79512   0.90489   0.00000  Uiso   1.00
O1293  O     0.83333   0.87155   0.90489   0.00000  Uiso   1.00
O1294  O     0.83334   0.79512   0.76178   0.00000  Uiso   1.00
Zn1295 Zn    0.83333   0.88437   0.83333   0.00000  Uiso   1.00
Zn1296 Zn    0.83333   0.78229   0.83333   0.00000  Uiso   1.00
loop_
_geom_bond_atom_site_label_1
_geom_bond_atom_site_label_2
_geom_bond_distance
_geom_bond_site_symmetry_2
_ccdc_geom_bond_type
C1     C4      1.411   .     S
C1     O39     1.280   .     A
C1     O42     1.279   .     A
C2     C4      1.410   .     A
C2     C13     1.521   .     S
C2     C115    1.395   1_455 S
C3     C19     1.408   .     A
C3     C20     1.410   .     A
C3     C12     1.411   .     S
C4     C18     1.408   .     A
C5     N38     1.367   .     A
C5     H21     1.082   .     S
C5     C296    1.419   1_545 S
C6     N37     1.367   .     A
C6     H29     1.082   .     S
C6     C151    1.419   .     S
C7     H30     1.082   .     S
C7     N38     1.367   .     A
C7     C294    1.419   1_545 S
C8     N37     1.367   .     A
C8     H31     1.082   .     S
C8     C149    1.419   .     S
C9     C18     1.525   .     S
C9     H33     1.104   .     S
C9     H34     1.111   .     S
C9     H32     1.110   .     S
C10    C19     1.525   .     S
C10    H22     1.104   .     S
C10    H35     1.110   .     S
C10    H36     1.111   .     S
C11    H23     1.105   .     S
C11    H24     1.109   .     S
C11    C20     1.521   .     S
C11    H25     1.110   .     S
C12    O40     1.280   .     A
C12    O41     1.279   .     A
C13    H28     1.109   .     S
C13    H26     1.105   .     S
C13    H27     1.110   .     S
C14    O43     1.278   .     A
C14    O46     1.279   .     A
C14    C16     1.367   .     S
C15    O44     1.278   .     A
C15    C17     1.367   .     S
C15    O45     1.279   .     A
C16    C881    1.166   1_554 S
C17    C448    1.166   .     S
C18    C116    1.395   1_455 S
C19    C50     1.395   .     S
C20    C66     1.395   .     S
N37    Zn47    2.015   .     S
N38    Zn48    2.015   .     S
O39    Zn47    1.986   .     S
O40    Zn48    1.986   .     S
O41    Zn47    1.988   .     S
O42    Zn48    1.988   .     S
O43    Zn47    1.951   .     S
O44    Zn48    1.951   .     S
O45    Zn47    1.952   .     S
O46    Zn48    1.952   .     S
C49    C52     1.411   .     S
C49    O87     1.280   .     A
C49    O90     1.279   .     A
C50    C52     1.410   .     A
C50    C61     1.521   .     S
C51    C67     1.408   .     A
C51    C68     1.410   .     A
C51    C60     1.411   .     S
C52    C66     1.408   .     A
C53    N86     1.367   .     A
C53    H69     1.082   .     S
C53    C344    1.419   1_545 S
C54    N85     1.367   .     A
C54    H77     1.082   .     S
C54    C199    1.419   .     S
C55    H78     1.082   .     S
C55    N86     1.367   .     A
C55    C342    1.419   1_545 S
C56    N85     1.367   .     A
C56    H79     1.082   .     S
C56    C197    1.419   .     S
C57    C66     1.525   .     S
C57    H81     1.104   .     S
C57    H82     1.111   .     S
C57    H80     1.110   .     S
C58    C67     1.525   .     S
C58    H70     1.104   .     S
C58    H83     1.110   .     S
C58    H84     1.111   .     S
C59    H71     1.105   .     S
C59    H72     1.109   .     S
C59    C68     1.521   .     S
C59    H73     1.110   .     S
C60    O88     1.280   .     A
C60    O89     1.279   .     A
C61    H76     1.109   .     S
C61    H74     1.105   .     S
C61    H75     1.110   .     S
C62    O91     1.278   .     A
C62    O94     1.279   .     A
C62    C64     1.367   .     S
C63    O92     1.278   .     A
C63    C65     1.367   .     S
C63    O93     1.279   .     A
C64    C929    1.166   1_554 S
C65    C496    1.166   .     S
C67    C98     1.395   .     S
C68    C114    1.395   .     S
N85    Zn95    2.015   .     S
N86    Zn96    2.015   .     S
O87    Zn95    1.986   .     S
O88    Zn96    1.986   .     S
O89    Zn95    1.988   .     S
O90    Zn96    1.988   .     S
O91    Zn95    1.951   .     S
O92    Zn96    1.951   .     S
O93    Zn95    1.952   .     S
O94    Zn96    1.952   .     S
C97    C100    1.411   .     S
C97    O135    1.280   .     A
C97    O138    1.279   .     A
C98    C100    1.410   .     A
C98    C109    1.521   .     S
C99    C115    1.408   .     A
C99    C116    1.410   .     A
C99    C108    1.411   .     S
C100   C114    1.408   .     A
C101   N134    1.367   .     A
C101   H117    1.082   .     S
C101   C392    1.419   1_545 S
C102   N133    1.367   .     A
C102   H125    1.082   .     S
C102   C247    1.419   .     S
C103   H126    1.082   .     S
C103   N134    1.367   .     A
C103   C390    1.419   1_545 S
C104   N133    1.367   .     A
C104   H127    1.082   .     S
C104   C245    1.419   .     S
C105   C114    1.525   .     S
C105   H129    1.104   .     S
C105   H130    1.111   .     S
C105   H128    1.110   .     S
C106   C115    1.525   .     S
C106   H118    1.104   .     S
C106   H131    1.110   .     S
C106   H132    1.111   .     S
C107   H119    1.105   .     S
C107   H120    1.109   .     S
C107   C116    1.521   .     S
C107   H121    1.110   .     S
C108   O136    1.280   .     A
C108   O137    1.279   .     A
C109   H124    1.109   .     S
C109   H122    1.105   .     S
C109   H123    1.110   .     S
C110   O139    1.278   .     A
C110   O142    1.279   .     A
C110   C112    1.367   .     S
C111   O140    1.278   .     A
C111   C113    1.367   .     S
C111   O141    1.279   .     A
C112   C977    1.166   1_554 S
C113   C544    1.166   .     S
C115   C2      1.395   1_655 S
C116   C18     1.395   1_655 S
N133   Zn143   2.015   .     S
N134   Zn144   2.015   .     S
O135   Zn143   1.986   .     S
O136   Zn144   1.986   .     S
O137   Zn143   1.988   .     S
O138   Zn144   1.988   .     S
O139   Zn143   1.951   .     S
O140   Zn144   1.951   .     S
O141   Zn143   1.952   .     S
O142   Zn144   1.952   .     S
C145   C148    1.411   .     S
C145   O183    1.280   .     A
C145   O186    1.279   .     A
C146   C148    1.410   .     A
C146   C157    1.521   .     S
C146   C259    1.395   1_455 S
C147   C163    1.408   .     A
C147   C164    1.410   .     A
C147   C156    1.411   .     S
C148   C162    1.408   .     A
C149   N182    1.367   .     A
C149   H165    1.082   .     S
C150   N181    1.367   .     A
C150   H173    1.082   .     S
C150   C295    1.419   .     S
C151   H174    1.082   .     S
C151   N182    1.367   .     A
C152   N181    1.367   .     A
C152   H175    1.082   .     S
C152   C293    1.419   .     S
C153   C162    1.525   .     S
C153   H177    1.104   .     S
C153   H178    1.111   .     S
C153   H176    1.110   .     S
C154   C163    1.525   .     S
C154   H166    1.104   .     S
C154   H179    1.110   .     S
C154   H180    1.111   .     S
C155   H167    1.105   .     S
C155   H168    1.109   .     S
C155   C164    1.521   .     S
C155   H169    1.110   .     S
C156   O184    1.280   .     A
C156   O185    1.279   .     A
C157   H172    1.109   .     S
C157   H170    1.105   .     S
C157   H171    1.110   .     S
C158   O187    1.278   .     A
C158   O190    1.279   .     A
C158   C160    1.367   .     S
C159   O188    1.278   .     A
C159   C161    1.367   .     S
C159   O189    1.279   .     A
C160   C1025   1.166   1_554 S
C161   C592    1.166   .     S
C162   C260    1.395   1_455 S
C163   C194    1.395   .     S
C164   C210    1.395   .     S
N181   Zn191   2.015   .     S
N182   Zn192   2.015   .     S
O183   Zn191   1.986   .     S
O184   Zn192   1.986   .     S
O185   Zn191   1.988   .     S
O186   Zn192   1.988   .     S
O187   Zn191   1.951   .     S
O188   Zn192   1.951   .     S
O189   Zn191   1.952   .     S
O190   Zn192   1.952   .     S
C193   C196    1.411   .     S
C193   O231    1.280   .     A
C193   O234    1.279   .     A
C194   C196    1.410   .     A
C194   C205    1.521   .     S
C195   C211    1.408   .     A
C195   C212    1.410   .     A
C195   C204    1.411   .     S
C196   C210    1.408   .     A
C197   N230    1.367   .     A
C197   H213    1.082   .     S
C198   N229    1.367   .     A
C198   H221    1.082   .     S
C198   C343    1.419   .     S
C199   H222    1.082   .     S
C199   N230    1.367   .     A
C200   N229    1.367   .     A
C200   H223    1.082   .     S
C200   C341    1.419   .     S
C201   C210    1.525   .     S
C201   H225    1.104   .     S
C201   H226    1.111   .     S
C201   H224    1.110   .     S
C202   C211    1.525   .     S
C202   H214    1.104   .     S
C202   H227    1.110   .     S
C202   H228    1.111   .     S
C203   H215    1.105   .     S
C203   H216    1.109   .     S
C203   C212    1.521   .     S
C203   H217    1.110   .     S
C204   O232    1.280   .     A
C204   O233    1.279   .     A
C205   H220    1.109   .     S
C205   H218    1.105   .     S
C205   H219    1.110   .     S
C206   O235    1.278   .     A
C206   O238    1.279   .     A
C206   C208    1.367   .     S
C207   O236    1.278   .     A
C207   C209    1.367   .     S
C207   O237    1.279   .     A
C208   C1073   1.166   1_554 S
C209   C640    1.166   .     S
C211   C242    1.395   .     S
C212   C258    1.395   .     S
N229   Zn239   2.015   .     S
N230   Zn240   2.015   .     S
O231   Zn239   1.986   .     S
O232   Zn240   1.986   .     S
O233   Zn239   1.988   .     S
O234   Zn240   1.988   .     S
O235   Zn239   1.951   .     S
O236   Zn240   1.951   .     S
O237   Zn239   1.952   .     S
O238   Zn240   1.952   .     S
C241   C244    1.411   .     S
C241   O279    1.280   .     A
C241   O282    1.279   .     A
C242   C244    1.410   .     A
C242   C253    1.521   .     S
C243   C259    1.408   .     A
C243   C260    1.410   .     A
C243   C252    1.411   .     S
C244   C258    1.408   .     A
C245   N278    1.367   .     A
C245   H261    1.082   .     S
C246   N277    1.367   .     A
C246   H269    1.082   .     S
C246   C391    1.419   .     S
C247   H270    1.082   .     S
C247   N278    1.367   .     A
C248   N277    1.367   .     A
C248   H271    1.082   .     S
C248   C389    1.419   .     S
C249   C258    1.525   .     S
C249   H273    1.104   .     S
C249   H274    1.111   .     S
C249   H272    1.110   .     S
C250   C259    1.525   .     S
C250   H262    1.104   .     S
C250   H275    1.110   .     S
C250   H276    1.111   .     S
C251   H263    1.105   .     S
C251   H264    1.109   .     S
C251   C260    1.521   .     S
C251   H265    1.110   .     S
C252   O280    1.280   .     A
C252   O281    1.279   .     A
C253   H268    1.109   .     S
C253   H266    1.105   .     S
C253   H267    1.110   .     S
C254   O283    1.278   .     A
C254   O286    1.279   .     A
C254   C256    1.367   .     S
C255   O284    1.278   .     A
C255   C257    1.367   .     S
C255   O285    1.279   .     A
C256   C1121   1.166   1_554 S
C257   C688    1.166   .     S
C259   C146    1.395   1_655 S
C260   C162    1.395   1_655 S
N277   Zn287   2.015   .     S
N278   Zn288   2.015   .     S
O279   Zn287   1.986   .     S
O280   Zn288   1.986   .     S
O281   Zn287   1.988   .     S
O282   Zn288   1.988   .     S
O283   Zn287   1.951   .     S
O284   Zn288   1.951   .     S
O285   Zn287   1.952   .     S
O286   Zn288   1.952   .     S
C289   C292    1.411   .     S
C289   O327    1.280   .     A
C289   O330    1.279   .     A
C290   C292    1.410   .     A
C290   C301    1.521   .     S
C290   C403    1.395   1_455 S
C291   C307    1.408   .     A
C291   C308    1.410   .     A
C291   C300    1.411   .     S
C292   C306    1.408   .     A
C293   N326    1.367   .     A
C293   H309    1.082   .     S
C294   N325    1.367   .     A
C294   H317    1.082   .     S
C294   C7      1.419   1_565 S
C295   H318    1.082   .     S
C295   N326    1.367   .     A
C296   N325    1.367   .     A
C296   H319    1.082   .     S
C296   C5      1.419   1_565 S
C297   C306    1.525   .     S
C297   H321    1.104   .     S
C297   H322    1.111   .     S
C297   H320    1.110   .     S
C298   C307    1.525   .     S
C298   H310    1.104   .     S
C298   H323    1.110   .     S
C298   H324    1.111   .     S
C299   H311    1.105   .     S
C299   H312    1.109   .     S
C299   C308    1.521   .     S
C299   H313    1.110   .     S
C300   O328    1.280   .     A
C300   O329    1.279   .     A
C301   H316    1.109   .     S
C301   H314    1.105   .     S
C301   H315    1.110   .     S
C302   O331    1.278   .     A
C302   O334    1.279   .     A
C302   C304    1.367   .     S
C303   O332    1.278   .     A
C303   C305    1.367   .     S
C303   O333    1.279   .     A
C304   C1169   1.166   1_554 S
C305   C736    1.166   .     S
C306   C404    1.395   1_455 S
C307   C338    1.395   .     S
C308   C354    1.395   .     S
N325   Zn335   2.015   .     S
N326   Zn336   2.015   .     S
O327   Zn335   1.986   .     S
O328   Zn336   1.986   .     S
O329   Zn335   1.988   .     S
O330   Zn336   1.988   .     S
O331   Zn335   1.951   .     S
O332   Zn336   1.951   .     S
O333   Zn335   1.952   .     S
O334   Zn336   1.952   .     S
C337   C340    1.411   .     S
C337   O375    1.280   .     A
C337   O378    1.279   .     A
C338   C340    1.410   .     A
C338   C349    1.521   .     S
C339   C355    1.408   .     A
C339   C356    1.410   .     A
C339   C348    1.411   .     S
C340   C354    1.408   .     A
C341   N374    1.367   .     A
C341   H357    1.082   .     S
C342   N373    1.367   .     A
C342   H365    1.082   .     S
C342   C55     1.419   1_565 S
C343   H366    1.082   .     S
C343   N374    1.367   .     A
C344   N373    1.367   .     A
C344   H367    1.082   .     S
C344   C53     1.419   1_565 S
C345   C354    1.525   .     S
C345   H369    1.104   .     S
C345   H370    1.111   .     S
C345   H368    1.110   .     S
C346   C355    1.525   .     S
C346   H358    1.104   .     S
C346   H371    1.110   .     S
C346   H372    1.111   .     S
C347   H359    1.105   .     S
C347   H360    1.109   .     S
C347   C356    1.521   .     S
C347   H361    1.110   .     S
C348   O376    1.280   .     A
C348   O377    1.279   .     A
C349   H364    1.109   .     S
C349   H362    1.105   .     S
C349   H363    1.110   .     S
C350   O379    1.278   .     A
C350   O382    1.279   .     A
C350   C352    1.367   .     S
C351   O380    1.278   .     A
C351   C353    1.367   .     S
C351   O381    1.279   .     A
C352   C1217   1.166   1_554 S
C353   C784    1.166   .     S
C355   C386    1.395   .     S
C356   C402    1.395   .     S
N373   Zn383   2.015   .     S
N374   Zn384   2.015   .     S
O375   Zn383   1.986   .     S
O376   Zn384   1.986   .     S
O377   Zn383   1.988   .     S
O378   Zn384   1.988   .     S
O379   Zn383   1.951   .     S
O380   Zn384   1.951   .     S
O381   Zn383   1.952   .     S
O382   Zn384   1.952   .     S
C385   C388    1.411   .     S
C385   O423    1.280   .     A
C385   O426    1.279   .     A
C386   C388    1.410   .     A
C386   C397    1.521   .     S
C387   C403    1.408   .     A
C387   C404    1.410   .     A
C387   C396    1.411   .     S
C388   C402    1.408   .     A
C389   N422    1.367   .     A
C389   H405    1.082   .     S
C390   N421    1.367   .     A
C390   H413    1.082   .     S
C390   C103    1.419   1_565 S
C391   H414    1.082   .     S
C391   N422    1.367   .     A
C392   N421    1.367   .     A
C392   H415    1.082   .     S
C392   C101    1.419   1_565 S
C393   C402    1.525   .     S
C393   H417    1.104   .     S
C393   H418    1.111   .     S
C393   H416    1.110   .     S
C394   C403    1.525   .     S
C394   H406    1.104   .     S
C394   H419    1.110   .     S
C394   H420    1.111   .     S
C395   H407    1.105   .     S
C395   H408    1.109   .     S
C395   C404    1.521   .     S
C395   H409    1.110   .     S
C396   O424    1.280   .     A
C396   O425    1.279   .     A
C397   H412    1.109   .     S
C397   H410    1.105   .     S
C397   H411    1.110   .     S
C398   O427    1.278   .     A
C398   O430    1.279   .     A
C398   C400    1.367   .     S
C399   O428    1.278   .     A
C399   C401    1.367   .     S
C399   O429    1.279   .     A
C400   C1265   1.166   1_554 S
C401   C832    1.166   .     S
C403   C290    1.395   1_655 S
C404   C306    1.395   1_655 S
N421   Zn431   2.015   .     S
N422   Zn432   2.015   .     S
O423   Zn431   1.986   .     S
O424   Zn432   1.986   .     S
O425   Zn431   1.988   .     S
O426   Zn432   1.988   .     S
O427   Zn431   1.951   .     S
O428   Zn432   1.951   .     S
O429   Zn431   1.952   .     S
O430   Zn432   1.952   .     S
C433   C436    1.411   .     S
C433   O471    1.280   .     A
C433   O474    1.279   .     A
C434   C436    1.410   .     A
C434   C445    1.521   .     S
C434   C547    1.395   1_455 S
C435   C451    1.408   .     A
C435   C452    1.410   .     A
C435   C444    1.411   .     S
C436   C450    1.408   .     A
C437   N470    1.367   .     A
C437   H453    1.082   .     S
C437   C728    1.419   1_545 S
C438   N469    1.367   .     A
C438   H461    1.082   .     S
C438   C583    1.419   .     S
C439   H462    1.082   .     S
C439   N470    1.367   .     A
C439   C726    1.419   1_545 S
C440   N469    1.367   .     A
C440   H463    1.082   .     S
C440   C581    1.419   .     S
C441   C450    1.525   .     S
C441   H465    1.104   .     S
C441   H466    1.111   .     S
C441   H464    1.110   .     S
C442   C451    1.525   .     S
C442   H454    1.104   .     S
C442   H467    1.110   .     S
C442   H468    1.111   .     S
C443   H455    1.105   .     S
C443   H456    1.109   .     S
C443   C452    1.521   .     S
C443   H457    1.110   .     S
C444   O472    1.280   .     A
C444   O473    1.279   .     A
C445   H460    1.109   .     S
C445   H458    1.105   .     S
C445   H459    1.110   .     S
C446   O475    1.278   .     A
C446   O478    1.279   .     A
C446   C448    1.367   .     S
C447   O476    1.278   .     A
C447   C449    1.367   .     S
C447   O477    1.279   .     A
C449   C880    1.166   .     S
C450   C548    1.395   1_455 S
C451   C482    1.395   .     S
C452   C498    1.395   .     S
N469   Zn479   2.015   .     S
N470   Zn480   2.015   .     S
O471   Zn479   1.986   .     S
O472   Zn480   1.986   .     S
O473   Zn479   1.988   .     S
O474   Zn480   1.988   .     S
O475   Zn479   1.951   .     S
O476   Zn480   1.951   .     S
O477   Zn479   1.952   .     S
O478   Zn480   1.952   .     S
C481   C484    1.411   .     S
C481   O519    1.280   .     A
C481   O522    1.279   .     A
C482   C484    1.410   .     A
C482   C493    1.521   .     S
C483   C499    1.408   .     A
C483   C500    1.410   .     A
C483   C492    1.411   .     S
C484   C498    1.408   .     A
C485   N518    1.367   .     A
C485   H501    1.082   .     S
C485   C776    1.419   1_545 S
C486   N517    1.367   .     A
C486   H509    1.082   .     S
C486   C631    1.419   .     S
C487   H510    1.082   .     S
C487   N518    1.367   .     A
C487   C774    1.419   1_545 S
C488   N517    1.367   .     A
C488   H511    1.082   .     S
C488   C629    1.419   .     S
C489   C498    1.525   .     S
C489   H513    1.104   .     S
C489   H514    1.111   .     S
C489   H512    1.110   .     S
C490   C499    1.525   .     S
C490   H502    1.104   .     S
C490   H515    1.110   .     S
C490   H516    1.111   .     S
C491   H503    1.105   .     S
C491   H504    1.109   .     S
C491   C500    1.521   .     S
C491   H505    1.110   .     S
C492   O520    1.280   .     A
C492   O521    1.279   .     A
C493   H508    1.109   .     S
C493   H506    1.105   .     S
C493   H507    1.110   .     S
C494   O523    1.278   .     A
C494   O526    1.279   .     A
C494   C496    1.367   .     S
C495   O524    1.278   .     A
C495   C497    1.367   .     S
C495   O525    1.279   .     A
C497   C928    1.166   .     S
C499   C530    1.395   .     S
C500   C546    1.395   .     S
N517   Zn527   2.015   .     S
N518   Zn528   2.015   .     S
O519   Zn527   1.986   .     S
O520   Zn528   1.986   .     S
O521   Zn527   1.988   .     S
O522   Zn528   1.988   .     S
O523   Zn527   1.951   .     S
O524   Zn528   1.951   .     S
O525   Zn527   1.952   .     S
O526   Zn528   1.952   .     S
C529   C532    1.411   .     S
C529   O567    1.280   .     A
C529   O570    1.279   .     A
C530   C532    1.410   .     A
C530   C541    1.521   .     S
C531   C547    1.408   .     A
C531   C548    1.410   .     A
C531   C540    1.411   .     S
C532   C546    1.408   .     A
C533   N566    1.367   .     A
C533   H549    1.082   .     S
C533   C824    1.419   1_545 S
C534   N565    1.367   .     A
C534   H557    1.082   .     S
C534   C679    1.419   .     S
C535   H558    1.082   .     S
C535   N566    1.367   .     A
C535   C822    1.419   1_545 S
C536   N565    1.367   .     A
C536   H559    1.082   .     S
C536   C677    1.419   .     S
C537   C546    1.525   .     S
C537   H561    1.104   .     S
C537   H562    1.111   .     S
C537   H560    1.110   .     S
C538   C547    1.525   .     S
C538   H550    1.104   .     S
C538   H563    1.110   .     S
C538   H564    1.111   .     S
C539   H551    1.105   .     S
C539   H552    1.109   .     S
C539   C548    1.521   .     S
C539   H553    1.110   .     S
C540   O568    1.280   .     A
C540   O569    1.279   .     A
C541   H556    1.109   .     S
C541   H554    1.105   .     S
C541   H555    1.110   .     S
C542   O571    1.278   .     A
C542   O574    1.279   .     A
C542   C544    1.367   .     S
C543   O572    1.278   .     A
C543   C545    1.367   .     S
C543   O573    1.279   .     A
C545   C976    1.166   .     S
C547   C434    1.395   1_655 S
C548   C450    1.395   1_655 S
N565   Zn575   2.015   .     S
N566   Zn576   2.015   .     S
O567   Zn575   1.986   .     S
O568   Zn576   1.986   .     S
O569   Zn575   1.988   .     S
O570   Zn576   1.988   .     S
O571   Zn575   1.951   .     S
O572   Zn576   1.951   .     S
O573   Zn575   1.952   .     S
O574   Zn576   1.952   .     S
C577   C580    1.411   .     S
C577   O615    1.280   .     A
C577   O618    1.279   .     A
C578   C580    1.410   .     A
C578   C589    1.521   .     S
C578   C691    1.395   1_455 S
C579   C595    1.408   .     A
C579   C596    1.410   .     A
C579   C588    1.411   .     S
C580   C594    1.408   .     A
C581   N614    1.367   .     A
C581   H597    1.082   .     S
C582   N613    1.367   .     A
C582   H605    1.082   .     S
C582   C727    1.419   .     S
C583   H606    1.082   .     S
C583   N614    1.367   .     A
C584   N613    1.367   .     A
C584   H607    1.082   .     S
C584   C725    1.419   .     S
C585   C594    1.525   .     S
C585   H609    1.104   .     S
C585   H610    1.111   .     S
C585   H608    1.110   .     S
C586   C595    1.525   .     S
C586   H598    1.104   .     S
C586   H611    1.110   .     S
C586   H612    1.111   .     S
C587   H599    1.105   .     S
C587   H600    1.109   .     S
C587   C596    1.521   .     S
C587   H601    1.110   .     S
C588   O616    1.280   .     A
C588   O617    1.279   .     A
C589   H604    1.109   .     S
C589   H602    1.105   .     S
C589   H603    1.110   .     S
C590   O619    1.278   .     A
C590   O622    1.279   .     A
C590   C592    1.367   .     S
C591   O620    1.278   .     A
C591   C593    1.367   .     S
C591   O621    1.279   .     A
C593   C1024   1.166   .     S
C594   C692    1.395   1_455 S
C595   C626    1.395   .     S
C596   C642    1.395   .     S
N613   Zn623   2.015   .     S
N614   Zn624   2.015   .     S
O615   Zn623   1.986   .     S
O616   Zn624   1.986   .     S
O617   Zn623   1.988   .     S
O618   Zn624   1.988   .     S
O619   Zn623   1.951   .     S
O620   Zn624   1.951   .     S
O621   Zn623   1.952   .     S
O622   Zn624   1.952   .     S
C625   C628    1.411   .     S
C625   O663    1.280   .     A
C625   O666    1.279   .     A
C626   C628    1.410   .     A
C626   C637    1.521   .     S
C627   C643    1.408   .     A
C627   C644    1.410   .     A
C627   C636    1.411   .     S
C628   C642    1.408   .     A
C629   N662    1.367   .     A
C629   H645    1.082   .     S
C630   N661    1.367   .     A
C630   H653    1.082   .     S
C630   C775    1.419   .     S
C631   H654    1.082   .     S
C631   N662    1.367   .     A
C632   N661    1.367   .     A
C632   H655    1.082   .     S
C632   C773    1.419   .     S
C633   C642    1.525   .     S
C633   H657    1.104   .     S
C633   H658    1.111   .     S
C633   H656    1.110   .     S
C634   C643    1.525   .     S
C634   H646    1.104   .     S
C634   H659    1.110   .     S
C634   H660    1.111   .     S
C635   H647    1.105   .     S
C635   H648    1.109   .     S
C635   C644    1.521   .     S
C635   H649    1.110   .     S
C636   O664    1.280   .     A
C636   O665    1.279   .     A
C637   H652    1.109   .     S
C637   H650    1.105   .     S
C637   H651    1.110   .     S
C638   O667    1.278   .     A
C638   O670    1.279   .     A
C638   C640    1.367   .     S
C639   O668    1.278   .     A
C639   C641    1.367   .     S
C639   O669    1.279   .     A
C641   C1072   1.166   .     S
C643   C674    1.395   .     S
C644   C690    1.395   .     S
N661   Zn671   2.015   .     S
N662   Zn672   2.015   .     S
O663   Zn671   1.986   .     S
O664   Zn672   1.986   .     S
O665   Zn671   1.988   .     S
O666   Zn672   1.988   .     S
O667   Zn671   1.951   .     S
O668   Zn672   1.951   .     S
O669   Zn671   1.952   .     S
O670   Zn672   1.952   .     S
C673   C676    1.411   .     S
C673   O711    1.280   .     A
C673   O714    1.279   .     A
C674   C676    1.410   .     A
C674   C685    1.521   .     S
C675   C691    1.408   .     A
C675   C692    1.410   .     A
C675   C684    1.411   .     S
C676   C690    1.408   .     A
C677   N710    1.367   .     A
C677   H693    1.082   .     S
C678   N709    1.367   .     A
C678   H701    1.082   .     S
C678   C823    1.419   .     S
C679   H702    1.082   .     S
C679   N710    1.367   .     A
C680   N709    1.367   .     A
C680   H703    1.082   .     S
C680   C821    1.419   .     S
C681   C690    1.525   .     S
C681   H705    1.104   .     S
C681   H706    1.111   .     S
C681   H704    1.110   .     S
C682   C691    1.525   .     S
C682   H694    1.104   .     S
C682   H707    1.110   .     S
C682   H708    1.111   .     S
C683   H695    1.105   .     S
C683   H696    1.109   .     S
C683   C692    1.521   .     S
C683   H697    1.110   .     S
C684   O712    1.280   .     A
C684   O713    1.279   .     A
C685   H700    1.109   .     S
C685   H698    1.105   .     S
C685   H699    1.110   .     S
C686   O715    1.278   .     A
C686   O718    1.279   .     A
C686   C688    1.367   .     S
C687   O716    1.278   .     A
C687   C689    1.367   .     S
C687   O717    1.279   .     A
C689   C1120   1.166   .     S
C691   C578    1.395   1_655 S
C692   C594    1.395   1_655 S
N709   Zn719   2.015   .     S
N710   Zn720   2.015   .     S
O711   Zn719   1.986   .     S
O712   Zn720   1.986   .     S
O713   Zn719   1.988   .     S
O714   Zn720   1.988   .     S
O715   Zn719   1.951   .     S
O716   Zn720   1.951   .     S
O717   Zn719   1.952   .     S
O718   Zn720   1.952   .     S
C721   C724    1.411   .     S
C721   O759    1.280   .     A
C721   O762    1.279   .     A
C722   C724    1.410   .     A
C722   C733    1.521   .     S
C722   C835    1.395   1_455 S
C723   C739    1.408   .     A
C723   C740    1.410   .     A
C723   C732    1.411   .     S
C724   C738    1.408   .     A
C725   N758    1.367   .     A
C725   H741    1.082   .     S
C726   N757    1.367   .     A
C726   H749    1.082   .     S
C726   C439    1.419   1_565 S
C727   H750    1.082   .     S
C727   N758    1.367   .     A
C728   N757    1.367   .     A
C728   H751    1.082   .     S
C728   C437    1.419   1_565 S
C729   C738    1.525   .     S
C729   H753    1.104   .     S
C729   H754    1.111   .     S
C729   H752    1.110   .     S
C730   C739    1.525   .     S
C730   H742    1.104   .     S
C730   H755    1.110   .     S
C730   H756    1.111   .     S
C731   H743    1.105   .     S
C731   H744    1.109   .     S
C731   C740    1.521   .     S
C731   H745    1.110   .     S
C732   O760    1.280   .     A
C732   O761    1.279   .     A
C733   H748    1.109   .     S
C733   H746    1.105   .     S
C733   H747    1.110   .     S
C734   O763    1.278   .     A
C734   O766    1.279   .     A
C734   C736    1.367   .     S
C735   O764    1.278   .     A
C735   C737    1.367   .     S
C735   O765    1.279   .     A
C737   C1168   1.166   .     S
C738   C836    1.395   1_455 S
C739   C770    1.395   .     S
C740   C786    1.395   .     S
N757   Zn767   2.015   .     S
N758   Zn768   2.015   .     S
O759   Zn767   1.986   .     S
O760   Zn768   1.986   .     S
O761   Zn767   1.988   .     S
O762   Zn768   1.988   .     S
O763   Zn767   1.951   .     S
O764   Zn768   1.951   .     S
O765   Zn767   1.952   .     S
O766   Zn768   1.952   .     S
C769   C772    1.411   .     S
C769   O807    1.280   .     A
C769   O810    1.279   .     A
C770   C772    1.410   .     A
C770   C781    1.521   .     S
C771   C787    1.408   .     A
C771   C788    1.410   .     A
C771   C780    1.411   .     S
C772   C786    1.408   .     A
C773   N806    1.367   .     A
C773   H789    1.082   .     S
C774   N805    1.367   .     A
C774   H797    1.082   .     S
C774   C487    1.419   1_565 S
C775   H798    1.082   .     S
C775   N806    1.367   .     A
C776   N805    1.367   .     A
C776   H799    1.082   .     S
C776   C485    1.419   1_565 S
C777   C786    1.525   .     S
C777   H801    1.104   .     S
C777   H802    1.111   .     S
C777   H800    1.110   .     S
C778   C787    1.525   .     S
C778   H790    1.104   .     S
C778   H803    1.110   .     S
C778   H804    1.111   .     S
C779   H791    1.105   .     S
C779   H792    1.109   .     S
C779   C788    1.521   .     S
C779   H793    1.110   .     S
C780   O808    1.280   .     A
C780   O809    1.279   .     A
C781   H796    1.109   .     S
C781   H794    1.105   .     S
C781   H795    1.110   .     S
C782   O811    1.278   .     A
C782   O814    1.279   .     A
C782   C784    1.367   .     S
C783   O812    1.278   .     A
C783   C785    1.367   .     S
C783   O813    1.279   .     A
C785   C1216   1.166   .     S
C787   C818    1.395   .     S
C788   C834    1.395   .     S
N805   Zn815   2.015   .     S
N806   Zn816   2.015   .     S
O807   Zn815   1.986   .     S
O808   Zn816   1.986   .     S
O809   Zn815   1.988   .     S
O810   Zn816   1.988   .     S
O811   Zn815   1.951   .     S
O812   Zn816   1.951   .     S
O813   Zn815   1.952   .     S
O814   Zn816   1.952   .     S
C817   C820    1.411   .     S
C817   O855    1.280   .     A
C817   O858    1.279   .     A
C818   C820    1.410   .     A
C818   C829    1.521   .     S
C819   C835    1.408   .     A
C819   C836    1.410   .     A
C819   C828    1.411   .     S
C820   C834    1.408   .     A
C821   N854    1.367   .     A
C821   H837    1.082   .     S
C822   N853    1.367   .     A
C822   H845    1.082   .     S
C822   C535    1.419   1_565 S
C823   H846    1.082   .     S
C823   N854    1.367   .     A
C824   N853    1.367   .     A
C824   H847    1.082   .     S
C824   C533    1.419   1_565 S
C825   C834    1.525   .     S
C825   H849    1.104   .     S
C825   H850    1.111   .     S
C825   H848    1.110   .     S
C826   C835    1.525   .     S
C826   H838    1.104   .     S
C826   H851    1.110   .     S
C826   H852    1.111   .     S
C827   H839    1.105   .     S
C827   H840    1.109   .     S
C827   C836    1.521   .     S
C827   H841    1.110   .     S
C828   O856    1.280   .     A
C828   O857    1.279   .     A
C829   H844    1.109   .     S
C829   H842    1.105   .     S
C829   H843    1.110   .     S
C830   O859    1.278   .     A
C830   O862    1.279   .     A
C830   C832    1.367   .     S
C831   O860    1.278   .     A
C831   C833    1.367   .     S
C831   O861    1.279   .     A
C833   C1264   1.166   .     S
C835   C722    1.395   1_655 S
C836   C738    1.395   1_655 S
N853   Zn863   2.015   .     S
N854   Zn864   2.015   .     S
O855   Zn863   1.986   .     S
O856   Zn864   1.986   .     S
O857   Zn863   1.988   .     S
O858   Zn864   1.988   .     S
O859   Zn863   1.951   .     S
O860   Zn864   1.951   .     S
O861   Zn863   1.952   .     S
O862   Zn864   1.952   .     S
C865   C868    1.411   .     S
C865   O903    1.280   .     A
C865   O906    1.279   .     A
C866   C868    1.410   .     A
C866   C877    1.521   .     S
C866   C979    1.395   1_455 S
C867   C883    1.408   .     A
C867   C884    1.410   .     A
C867   C876    1.411   .     S
C868   C882    1.408   .     A
C869   N902    1.367   .     A
C869   H885    1.082   .     S
C869   C1160   1.419   1_545 S
C870   N901    1.367   .     A
C870   H893    1.082   .     S
C870   C1015   1.419   .     S
C871   H894    1.082   .     S
C871   N902    1.367   .     A
C871   C1158   1.419   1_545 S
C872   N901    1.367   .     A
C872   H895    1.082   .     S
C872   C1013   1.419   .     S
C873   C882    1.525   .     S
C873   H897    1.104   .     S
C873   H898    1.111   .     S
C873   H896    1.110   .     S
C874   C883    1.525   .     S
C874   H886    1.104   .     S
C874   H899    1.110   .     S
C874   H900    1.111   .     S
C875   H887    1.105   .     S
C875   H888    1.109   .     S
C875   C884    1.521   .     S
C875   H889    1.110   .     S
C876   O904    1.280   .     A
C876   O905    1.279   .     A
C877   H892    1.109   .     S
C877   H890    1.105   .     S
C877   H891    1.110   .     S
C878   O907    1.278   .     A
C878   O910    1.279   .     A
C878   C880    1.367   .     S
C879   O908    1.278   .     A
C879   C881    1.367   .     S
C879   O909    1.279   .     A
C881   C16     1.166   1_556 S
C882   C980    1.395   1_455 S
C883   C914    1.395   .     S
C884   C930    1.395   .     S
N901   Zn911   2.015   .     S
N902   Zn912   2.015   .     S
O903   Zn911   1.986   .     S
O904   Zn912   1.986   .     S
O905   Zn911   1.988   .     S
O906   Zn912   1.988   .     S
O907   Zn911   1.951   .     S
O908   Zn912   1.951   .     S
O909   Zn911   1.952   .     S
O910   Zn912   1.952   .     S
C913   C916    1.411   .     S
C913   O951    1.280   .     A
C913   O954    1.279   .     A
C914   C916    1.410   .     A
C914   C925    1.521   .     S
C915   C931    1.408   .     A
C915   C932    1.410   .     A
C915   C924    1.411   .     S
C916   C930    1.408   .     A
C917   N950    1.367   .     A
C917   H933    1.082   .     S
C917   C1208   1.419   1_545 S
C918   N949    1.367   .     A
C918   H941    1.082   .     S
C918   C1063   1.419   .     S
C919   H942    1.082   .     S
C919   N950    1.367   .     A
C919   C1206   1.419   1_545 S
C920   N949    1.367   .     A
C920   H943    1.082   .     S
C920   C1061   1.419   .     S
C921   C930    1.525   .     S
C921   H945    1.104   .     S
C921   H946    1.111   .     S
C921   H944    1.110   .     S
C922   C931    1.525   .     S
C922   H934    1.104   .     S
C922   H947    1.110   .     S
C922   H948    1.111   .     S
C923   H935    1.105   .     S
C923   H936    1.109   .     S
C923   C932    1.521   .     S
C923   H937    1.110   .     S
C924   O952    1.280   .     A
C924   O953    1.279   .     A
C925   H940    1.109   .     S
C925   H938    1.105   .     S
C925   H939    1.110   .     S
C926   O955    1.278   .     A
C926   O958    1.279   .     A
C926   C928    1.367   .     S
C927   O956    1.278   .     A
C927   C929    1.367   .     S
C927   O957    1.279   .     A
C929   C64     1.166   1_556 S
C931   C962    1.395   .     S
C932   C978    1.395   .     S
N949   Zn959   2.015   .     S
N950   Zn960   2.015   .     S
O951   Zn959   1.986   .     S
O952   Zn960   1.986   .     S
O953   Zn959   1.988   .     S
O954   Zn960   1.988   .     S
O955   Zn959   1.951   .     S
O956   Zn960   1.951   .     S
O957   Zn959   1.952   .     S
O958   Zn960   1.952   .     S
C961   C964    1.411   .     S
C961   O999    1.280   .     A
C961   O1002   1.279   .     A
C962   C964    1.410   .     A
C962   C973    1.521   .     S
C963   C979    1.408   .     A
C963   C980    1.410   .     A
C963   C972    1.411   .     S
C964   C978    1.408   .     A
C965   N998    1.367   .     A
C965   H981    1.082   .     S
C965   C1256   1.419   1_545 S
C966   N997    1.367   .     A
C966   H989    1.082   .     S
C966   C1111   1.419   .     S
C967   H990    1.082   .     S
C967   N998    1.367   .     A
C967   C1254   1.419   1_545 S
C968   N997    1.367   .     A
C968   H991    1.082   .     S
C968   C1109   1.419   .     S
C969   C978    1.525   .     S
C969   H993    1.104   .     S
C969   H994    1.111   .     S
C969   H992    1.110   .     S
C970   C979    1.525   .     S
C970   H982    1.104   .     S
C970   H995    1.110   .     S
C970   H996    1.111   .     S
C971   H983    1.105   .     S
C971   H984    1.109   .     S
C971   C980    1.521   .     S
C971   H985    1.110   .     S
C972   O1000   1.280   .     A
C972   O1001   1.279   .     A
C973   H988    1.109   .     S
C973   H986    1.105   .     S
C973   H987    1.110   .     S
C974   O1003   1.278   .     A
C974   O1006   1.279   .     A
C974   C976    1.367   .     S
C975   O1004   1.278   .     A
C975   C977    1.367   .     S
C975   O1005   1.279   .     A
C977   C112    1.166   1_556 S
C979   C866    1.395   1_655 S
C980   C882    1.395   1_655 S
N997   Zn1007  2.015   .     S
N998   Zn1008  2.015   .     S
O999   Zn1007  1.986   .     S
O1000  Zn1008  1.986   .     S
O1001  Zn1007  1.988   .     S
O1002  Zn1008  1.988   .     S
O1003  Zn1007  1.951   .     S
O1004  Zn1008  1.951   .     S
O1005  Zn1007  1.952   .     S
O1006  Zn1008  1.952   .     S
C1009  C1012   1.411   .     S
C1009  O1047   1.280   .     A
C1009  O1050   1.279   .     A
C1010  C1012   1.410   .     A
C1010  C1021   1.521   .     S
C1010  C1123   1.395   1_455 S
C1011  C1027   1.408   .     A
C1011  C1028   1.410   .     A
C1011  C1020   1.411   .     S
C1012  C1026   1.408   .     A
C1013  N1046   1.367   .     A
C1013  H1029   1.082   .     S
C1014  N1045   1.367   .     A
C1014  H1037   1.082   .     S
C1014  C1159   1.419   .     S
C1015  H1038   1.082   .     S
C1015  N1046   1.367   .     A
C1016  N1045   1.367   .     A
C1016  H1039   1.082   .     S
C1016  C1157   1.419   .     S
C1017  C1026   1.525   .     S
C1017  H1041   1.104   .     S
C1017  H1042   1.111   .     S
C1017  H1040   1.110   .     S
C1018  C1027   1.525   .     S
C1018  H1030   1.104   .     S
C1018  H1043   1.110   .     S
C1018  H1044   1.111   .     S
C1019  H1031   1.105   .     S
C1019  H1032   1.109   .     S
C1019  C1028   1.521   .     S
C1019  H1033   1.110   .     S
C1020  O1048   1.280   .     A
C1020  O1049   1.279   .     A
C1021  H1036   1.109   .     S
C1021  H1034   1.105   .     S
C1021  H1035   1.110   .     S
C1022  O1051   1.278   .     A
C1022  O1054   1.279   .     A
C1022  C1024   1.367   .     S
C1023  O1052   1.278   .     A
C1023  C1025   1.367   .     S
C1023  O1053   1.279   .     A
C1025  C160    1.166   1_556 S
C1026  C1124   1.395   1_455 S
C1027  C1058   1.395   .     S
C1028  C1074   1.395   .     S
N1045  Zn1055  2.015   .     S
N1046  Zn1056  2.015   .     S
O1047  Zn1055  1.986   .     S
O1048  Zn1056  1.986   .     S
O1049  Zn1055  1.988   .     S
O1050  Zn1056  1.988   .     S
O1051  Zn1055  1.951   .     S
O1052  Zn1056  1.951   .     S
O1053  Zn1055  1.952   .     S
O1054  Zn1056  1.952   .     S
C1057  C1060   1.411   .     S
C1057  O1095   1.280   .     A
C1057  O1098   1.279   .     A
C1058  C1060   1.410   .     A
C1058  C1069   1.521   .     S
C1059  C1075   1.408   .     A
C1059  C1076   1.410   .     A
C1059  C1068   1.411   .     S
C1060  C1074   1.408   .     A
C1061  N1094   1.367   .     A
C1061  H1077   1.082   .     S
C1062  N1093   1.367   .     A
C1062  H1085   1.082   .     S
C1062  C1207   1.419   .     S
C1063  H1086   1.082   .     S
C1063  N1094   1.367   .     A
C1064  N1093   1.367   .     A
C1064  H1087   1.082   .     S
C1064  C1205   1.419   .     S
C1065  C1074   1.525   .     S
C1065  H1089   1.104   .     S
C1065  H1090   1.111   .     S
C1065  H1088   1.110   .     S
C1066  C1075   1.525   .     S
C1066  H1078   1.104   .     S
C1066  H1091   1.110   .     S
C1066  H1092   1.111   .     S
C1067  H1079   1.105   .     S
C1067  H1080   1.109   .     S
C1067  C1076   1.521   .     S
C1067  H1081   1.110   .     S
C1068  O1096   1.280   .     A
C1068  O1097   1.279   .     A
C1069  H1084   1.109   .     S
C1069  H1082   1.105   .     S
C1069  H1083   1.110   .     S
C1070  O1099   1.278   .     A
C1070  O1102   1.279   .     A
C1070  C1072   1.367   .     S
C1071  O1100   1.278   .     A
C1071  C1073   1.367   .     S
C1071  O1101   1.279   .     A
C1073  C208    1.166   1_556 S
C1075  C1106   1.395   .     S
C1076  C1122   1.395   .     S
N1093  Zn1103  2.015   .     S
N1094  Zn1104  2.015   .     S
O1095  Zn1103  1.986   .     S
O1096  Zn1104  1.986   .     S
O1097  Zn1103  1.988   .     S
O1098  Zn1104  1.988   .     S
O1099  Zn1103  1.951   .     S
O1100  Zn1104  1.951   .     S
O1101  Zn1103  1.952   .     S
O1102  Zn1104  1.952   .     S
C1105  C1108   1.411   .     S
C1105  O1143   1.280   .     A
C1105  O1146   1.279   .     A
C1106  C1108   1.410   .     A
C1106  C1117   1.521   .     S
C1107  C1123   1.408   .     A
C1107  C1124   1.410   .     A
C1107  C1116   1.411   .     S
C1108  C1122   1.408   .     A
C1109  N1142   1.367   .     A
C1109  H1125   1.082   .     S
C1110  N1141   1.367   .     A
C1110  H1133   1.082   .     S
C1110  C1255   1.419   .     S
C1111  H1134   1.082   .     S
C1111  N1142   1.367   .     A
C1112  N1141   1.367   .     A
C1112  H1135   1.082   .     S
C1112  C1253   1.419   .     S
C1113  C1122   1.525   .     S
C1113  H1137   1.104   .     S
C1113  H1138   1.111   .     S
C1113  H1136   1.110   .     S
C1114  C1123   1.525   .     S
C1114  H1126   1.104   .     S
C1114  H1139   1.110   .     S
C1114  H1140   1.111   .     S
C1115  H1127   1.105   .     S
C1115  H1128   1.109   .     S
C1115  C1124   1.521   .     S
C1115  H1129   1.110   .     S
C1116  O1144   1.280   .     A
C1116  O1145   1.279   .     A
C1117  H1132   1.109   .     S
C1117  H1130   1.105   .     S
C1117  H1131   1.110   .     S
C1118  O1147   1.278   .     A
C1118  O1150   1.279   .     A
C1118  C1120   1.367   .     S
C1119  O1148   1.278   .     A
C1119  C1121   1.367   .     S
C1119  O1149   1.279   .     A
C1121  C256    1.166   1_556 S
C1123  C1010   1.395   1_655 S
C1124  C1026   1.395   1_655 S
N1141  Zn1151  2.015   .     S
N1142  Zn1152  2.015   .     S
O1143  Zn1151  1.986   .     S
O1144  Zn1152  1.986   .     S
O1145  Zn1151  1.988   .     S
O1146  Zn1152  1.988   .     S
O1147  Zn1151  1.951   .     S
O1148  Zn1152  1.951   .     S
O1149  Zn1151  1.952   .     S
O1150  Zn1152  1.952   .     S
C1153  C1156   1.411   .     S
C1153  O1191   1.280   .     A
C1153  O1194   1.279   .     A
C1154  C1156   1.410   .     A
C1154  C1165   1.521   .     S
C1154  C1267   1.395   1_455 S
C1155  C1171   1.408   .     A
C1155  C1172   1.410   .     A
C1155  C1164   1.411   .     S
C1156  C1170   1.408   .     A
C1157  N1190   1.367   .     A
C1157  H1173   1.082   .     S
C1158  N1189   1.367   .     A
C1158  H1181   1.082   .     S
C1158  C871    1.419   1_565 S
C1159  H1182   1.082   .     S
C1159  N1190   1.367   .     A
C1160  N1189   1.367   .     A
C1160  H1183   1.082   .     S
C1160  C869    1.419   1_565 S
C1161  C1170   1.525   .     S
C1161  H1185   1.104   .     S
C1161  H1186   1.111   .     S
C1161  H1184   1.110   .     S
C1162  C1171   1.525   .     S
C1162  H1174   1.104   .     S
C1162  H1187   1.110   .     S
C1162  H1188   1.111   .     S
C1163  H1175   1.105   .     S
C1163  H1176   1.109   .     S
C1163  C1172   1.521   .     S
C1163  H1177   1.110   .     S
C1164  O1192   1.280   .     A
C1164  O1193   1.279   .     A
C1165  H1180   1.109   .     S
C1165  H1178   1.105   .     S
C1165  H1179   1.110   .     S
C1166  O1195   1.278   .     A
C1166  O1198   1.279   .     A
C1166  C1168   1.367   .     S
C1167  O1196   1.278   .     A
C1167  C1169   1.367   .     S
C1167  O1197   1.279   .     A
C1169  C304    1.166   1_556 S
C1170  C1268   1.395   1_455 S
C1171  C1202   1.395   .     S
C1172  C1218   1.395   .     S
N1189  Zn1199  2.015   .     S
N1190  Zn1200  2.015   .     S
O1191  Zn1199  1.986   .     S
O1192  Zn1200  1.986   .     S
O1193  Zn1199  1.988   .     S
O1194  Zn1200  1.988   .     S
O1195  Zn1199  1.951   .     S
O1196  Zn1200  1.951   .     S
O1197  Zn1199  1.952   .     S
O1198  Zn1200  1.952   .     S
C1201  C1204   1.411   .     S
C1201  O1239   1.280   .     A
C1201  O1242   1.279   .     A
C1202  C1204   1.410   .     A
C1202  C1213   1.521   .     S
C1203  C1219   1.408   .     A
C1203  C1220   1.410   .     A
C1203  C1212   1.411   .     S
C1204  C1218   1.408   .     A
C1205  N1238   1.367   .     A
C1205  H1221   1.082   .     S
C1206  N1237   1.367   .     A
C1206  H1229   1.082   .     S
C1206  C919    1.419   1_565 S
C1207  H1230   1.082   .     S
C1207  N1238   1.367   .     A
C1208  N1237   1.367   .     A
C1208  H1231   1.082   .     S
C1208  C917    1.419   1_565 S
C1209  C1218   1.525   .     S
C1209  H1233   1.104   .     S
C1209  H1234   1.111   .     S
C1209  H1232   1.110   .     S
C1210  C1219   1.525   .     S
C1210  H1222   1.104   .     S
C1210  H1235   1.110   .     S
C1210  H1236   1.111   .     S
C1211  H1223   1.105   .     S
C1211  H1224   1.109   .     S
C1211  C1220   1.521   .     S
C1211  H1225   1.110   .     S
C1212  O1240   1.280   .     A
C1212  O1241   1.279   .     A
C1213  H1228   1.109   .     S
C1213  H1226   1.105   .     S
C1213  H1227   1.110   .     S
C1214  O1243   1.278   .     A
C1214  O1246   1.279   .     A
C1214  C1216   1.367   .     S
C1215  O1244   1.278   .     A
C1215  C1217   1.367   .     S
C1215  O1245   1.279   .     A
C1217  C352    1.166   1_556 S
C1219  C1250   1.395   .     S
C1220  C1266   1.395   .     S
N1237  Zn1247  2.015   .     S
N1238  Zn1248  2.015   .     S
O1239  Zn1247  1.986   .     S
O1240  Zn1248  1.986   .     S
O1241  Zn1247  1.988   .     S
O1242  Zn1248  1.988   .     S
O1243  Zn1247  1.951   .     S
O1244  Zn1248  1.951   .     S
O1245  Zn1247  1.952   .     S
O1246  Zn1248  1.952   .     S
C1249  C1252   1.411   .     S
C1249  O1287   1.280   .     A
C1249  O1290   1.279   .     A
C1250  C1252   1.410   .     A
C1250  C1261   1.521   .     S
C1251  C1267   1.408   .     A
C1251  C1268   1.410   .     A
C1251  C1260   1.411   .     S
C1252  C1266   1.408   .     A
C1253  N1286   1.367   .     A
C1253  H1269   1.082   .     S
C1254  N1285   1.367   .     A
C1254  H1277   1.082   .     S
C1254  C967    1.419   1_565 S
C1255  H1278   1.082   .     S
C1255  N1286   1.367   .     A
C1256  N1285   1.367   .     A
C1256  H1279   1.082   .     S
C1256  C965    1.419   1_565 S
C1257  C1266   1.525   .     S
C1257  H1281   1.104   .     S
C1257  H1282   1.111   .     S
C1257  H1280   1.110   .     S
C1258  C1267   1.525   .     S
C1258  H1270   1.104   .     S
C1258  H1283   1.110   .     S
C1258  H1284   1.111   .     S
C1259  H1271   1.105   .     S
C1259  H1272   1.109   .     S
C1259  C1268   1.521   .     S
C1259  H1273   1.110   .     S
C1260  O1288   1.280   .     A
C1260  O1289   1.279   .     A
C1261  H1276   1.109   .     S
C1261  H1274   1.105   .     S
C1261  H1275   1.110   .     S
C1262  O1291   1.278   .     A
C1262  O1294   1.279   .     A
C1262  C1264   1.367   .     S
C1263  O1292   1.278   .     A
C1263  C1265   1.367   .     S
C1263  O1293   1.279   .     A
C1265  C400    1.166   1_556 S
C1267  C1154   1.395   1_655 S
C1268  C1170   1.395   1_655 S
N1285  Zn1295  2.015   .     S
N1286  Zn1296  2.015   .     S
O1287  Zn1295  1.986   .     S
O1288  Zn1296  1.986   .     S
O1289  Zn1295  1.988   .     S
O1290  Zn1296  1.988   .     S
O1291  Zn1295  1.951   .     S
O1292  Zn1296  1.951   .     S
O1293  Zn1295  1.952   .     S
O1294  Zn1296  1.952   .     S
