data_str_m2_o1_o16_pcu_sym.170
_audit_creation_date              2020-01-03
_audit_creation_method            'Materials Studio'
_symmetry_space_group_name_H-M    'P1'
_symmetry_Int_Tables_number       1
_symmetry_cell_setting            triclinic
loop_
_symmetry_equiv_pos_as_xyz
  x,y,z
_cell_length_a                    28.6330
_cell_length_b                    32.4924
_cell_length_c                    26.8133
_cell_angle_alpha                 89.8161
_cell_angle_beta                  72.5525
_cell_angle_gamma                 90.6341
loop_
_atom_site_label
_atom_site_type_symbol
_atom_site_fract_x
_atom_site_fract_y
_atom_site_fract_z
_atom_site_U_iso_or_equiv
_atom_site_adp_type
_atom_site_occupancy
C1     C     0.16713   0.24596   0.24883   0.00000  Uiso   1.00
C2     C     0.14276   0.16758   0.49104   0.00000  Uiso   1.00
C3     C     0.15232   0.18029   0.43845   0.00000  Uiso   1.00
C4     C     0.18021   0.17510   0.01550   0.00000  Uiso   1.00
C5     C     0.22418   0.19786   0.48860   0.00000  Uiso   1.00
C6     C     0.22762   0.21551   0.43882   0.00000  Uiso   1.00
C7     C     0.18842   0.21049   0.41838   0.00000  Uiso   1.00
C8     C     0.17657   0.15826   0.06484   0.00000  Uiso   1.00
C9     C     0.25166   0.19036   0.06627   0.00000  Uiso   1.00
C10    C     0.12396   0.16416   0.40779   0.00000  Uiso   1.00
C11    C     0.20807   0.31259   0.25290   0.00000  Uiso   1.00
C12    C     0.14038   0.16663   0.35020   0.00000  Uiso   1.00
C13    C     0.20773   0.02178   0.25346   0.00000  Uiso   1.00
C14    C     0.16663   0.04279   0.24913   0.00000  Uiso   1.00
C15    C     0.12595   0.02092   0.24395   0.00000  Uiso   1.00
C16    C     0.12636   0.31166   0.24326   0.00000  Uiso   1.00
C17    C     0.16739   0.29064   0.24792   0.00000  Uiso   1.00
C18    C     0.31776   0.19537   0.22152   0.00000  Uiso   1.00
C19    C     0.03347   0.19538   0.22229   0.00000  Uiso   1.00
C20    C     0.01629   0.13835   0.27873   0.00000  Uiso   1.00
C21    C     0.30003   0.13844   0.27887   0.00000  Uiso   1.00
C22    C     0.16653   0.08739   0.24984   0.00000  Uiso   1.00
C23    C     0.19293   0.16603   0.14976   0.00000  Uiso   1.00
C24    C     0.26105   0.20302   0.01454   0.00000  Uiso   1.00
C25    C     0.20832   0.17019   0.09249   0.00000  Uiso   1.00
C26    C     0.08225   0.14052   0.43151   0.00000  Uiso   1.00
C27    C     0.06689   0.13422   0.48511   0.00000  Uiso   1.00
C28    C     0.09559   0.14909   0.01598   0.00000  Uiso   1.00
Cu29   Cu    0.11978   0.16666   0.25000   0.00000  Uiso   1.00
Cu30   Cu    0.21355   0.16667   0.25000   0.00000  Uiso   1.00
H31    H     0.27832   0.19727   0.08634   0.00000  Uiso   1.00
H32    H     0.23949   0.03809   0.25776   0.00000  Uiso   1.00
H33    H     0.09392   0.03662   0.24037   0.00000  Uiso   1.00
H34    H     0.09451   0.29528   0.23930   0.00000  Uiso   1.00
H35    H     0.05929   0.21795   0.19959   0.00000  Uiso   1.00
H36    H     0.02813   0.11561   0.30176   0.00000  Uiso   1.00
H37    H     0.27463   0.11581   0.30204   0.00000  Uiso   1.00
H38    H     0.14970   0.13513   0.08262   0.00000  Uiso   1.00
H39    H     0.06072   0.12734   0.40831   0.00000  Uiso   1.00
H40    H     0.23976   0.29702   0.25749   0.00000  Uiso   1.00
N41    N     0.04931   0.16666   0.24999   0.00000  Uiso   1.00
N42    N     0.28402   0.16669   0.25000   0.00000  Uiso   1.00
O43    O     0.12708   0.22678   0.25001   0.00000  Uiso   1.00
O44    O     0.20627   0.22679   0.25001   0.00000  Uiso   1.00
O45    O     0.10775   0.16665   0.32549   0.00000  Uiso   1.00
O46    O     0.18694   0.16666   0.32549   0.00000  Uiso   1.00
O47    O     0.12706   0.10654   0.25000   0.00000  Uiso   1.00
O48    O     0.20625   0.10655   0.25000   0.00000  Uiso   1.00
O49    O     0.14640   0.16667   0.17451   0.00000  Uiso   1.00
O50    O     0.22559   0.16668   0.17451   0.00000  Uiso   1.00
I51    I     0.30346   0.24098   0.17144   0.00000  Uiso   1.00
I52    I     0.28943   0.24763   0.38676   0.00000  Uiso   1.00
N53    N     0.30778   0.22217   0.49174   0.00000  Uiso   1.00
H54    H     0.32707   0.20612   0.45837   0.00000  Uiso   1.00
H55    H     0.30335   0.25328   0.48476   0.00000  Uiso   1.00
I56    I     0.05684   0.15352   0.09758   0.00000  Uiso   1.00
N57    N     0.02174   0.11216   0.00724   0.00000  Uiso   1.00
H58    H     0.32969   0.13184   0.03153   0.00000  Uiso   1.00
H59    H     0.02809   0.08755   0.02947   0.00000  Uiso   1.00
I60    I     0.16928   0.26123   0.37786   0.00000  Uiso   1.00
C61    C     0.50046   0.24596   0.24883   0.00000  Uiso   1.00
C62    C     0.47609   0.16758   0.49104   0.00000  Uiso   1.00
C63    C     0.48566   0.18029   0.43845   0.00000  Uiso   1.00
C64    C     0.51355   0.17510   0.01550   0.00000  Uiso   1.00
C65    C     0.55751   0.19786   0.48860   0.00000  Uiso   1.00
C66    C     0.56096   0.21551   0.43882   0.00000  Uiso   1.00
C67    C     0.52176   0.21049   0.41838   0.00000  Uiso   1.00
C68    C     0.50991   0.15826   0.06484   0.00000  Uiso   1.00
C69    C     0.58499   0.19036   0.06627   0.00000  Uiso   1.00
C70    C     0.45729   0.16416   0.40779   0.00000  Uiso   1.00
C71    C     0.54141   0.31259   0.25290   0.00000  Uiso   1.00
C72    C     0.47371   0.16663   0.35020   0.00000  Uiso   1.00
C73    C     0.54106   0.02178   0.25346   0.00000  Uiso   1.00
C74    C     0.49996   0.04279   0.24913   0.00000  Uiso   1.00
C75    C     0.45929   0.02092   0.24395   0.00000  Uiso   1.00
C76    C     0.45969   0.31166   0.24326   0.00000  Uiso   1.00
C77    C     0.50072   0.29064   0.24792   0.00000  Uiso   1.00
C78    C     0.65110   0.19537   0.22152   0.00000  Uiso   1.00
C79    C     0.36680   0.19538   0.22229   0.00000  Uiso   1.00
C80    C     0.34963   0.13835   0.27873   0.00000  Uiso   1.00
C81    C     0.63336   0.13844   0.27887   0.00000  Uiso   1.00
C82    C     0.49986   0.08739   0.24984   0.00000  Uiso   1.00
C83    C     0.52626   0.16603   0.14976   0.00000  Uiso   1.00
C84    C     0.59438   0.20302   0.01454   0.00000  Uiso   1.00
C85    C     0.54165   0.17019   0.09249   0.00000  Uiso   1.00
C86    C     0.41558   0.14052   0.43151   0.00000  Uiso   1.00
C87    C     0.40023   0.13422   0.48511   0.00000  Uiso   1.00
C88    C     0.42892   0.14909   0.01598   0.00000  Uiso   1.00
Cu89   Cu    0.45311   0.16666   0.25000   0.00000  Uiso   1.00
Cu90   Cu    0.54689   0.16667   0.25000   0.00000  Uiso   1.00
H91    H     0.61166   0.19727   0.08634   0.00000  Uiso   1.00
H92    H     0.57282   0.03809   0.25776   0.00000  Uiso   1.00
H93    H     0.42725   0.03662   0.24037   0.00000  Uiso   1.00
H94    H     0.42785   0.29528   0.23930   0.00000  Uiso   1.00
H95    H     0.39262   0.21795   0.19959   0.00000  Uiso   1.00
H96    H     0.36147   0.11561   0.30176   0.00000  Uiso   1.00
H97    H     0.60797   0.11581   0.30204   0.00000  Uiso   1.00
H98    H     0.48303   0.13513   0.08262   0.00000  Uiso   1.00
H99    H     0.39405   0.12734   0.40831   0.00000  Uiso   1.00
H100   H     0.57309   0.29702   0.25749   0.00000  Uiso   1.00
N101   N     0.38265   0.16666   0.24999   0.00000  Uiso   1.00
N102   N     0.61735   0.16669   0.25000   0.00000  Uiso   1.00
O103   O     0.46042   0.22678   0.25001   0.00000  Uiso   1.00
O104   O     0.53961   0.22679   0.25001   0.00000  Uiso   1.00
O105   O     0.44108   0.16665   0.32549   0.00000  Uiso   1.00
O106   O     0.52027   0.16666   0.32549   0.00000  Uiso   1.00
O107   O     0.46039   0.10654   0.25000   0.00000  Uiso   1.00
O108   O     0.53958   0.10655   0.25000   0.00000  Uiso   1.00
O109   O     0.47973   0.16667   0.17451   0.00000  Uiso   1.00
O110   O     0.55892   0.16668   0.17451   0.00000  Uiso   1.00
I111   I     0.63679   0.24098   0.17144   0.00000  Uiso   1.00
I112   I     0.62276   0.24763   0.38676   0.00000  Uiso   1.00
N113   N     0.64111   0.22217   0.49174   0.00000  Uiso   1.00
H114   H     0.66040   0.20612   0.45837   0.00000  Uiso   1.00
H115   H     0.63668   0.25328   0.48476   0.00000  Uiso   1.00
I116   I     0.39017   0.15352   0.09758   0.00000  Uiso   1.00
N117   N     0.35507   0.11216   0.00724   0.00000  Uiso   1.00
H118   H     0.66303   0.13184   0.03153   0.00000  Uiso   1.00
H119   H     0.36143   0.08755   0.02947   0.00000  Uiso   1.00
I120   I     0.50262   0.26123   0.37786   0.00000  Uiso   1.00
C121   C     0.83379   0.24596   0.24883   0.00000  Uiso   1.00
C122   C     0.80943   0.16758   0.49104   0.00000  Uiso   1.00
C123   C     0.81899   0.18029   0.43845   0.00000  Uiso   1.00
C124   C     0.84688   0.17510   0.01550   0.00000  Uiso   1.00
C125   C     0.89084   0.19786   0.48860   0.00000  Uiso   1.00
C126   C     0.89429   0.21551   0.43882   0.00000  Uiso   1.00
C127   C     0.85509   0.21049   0.41838   0.00000  Uiso   1.00
C128   C     0.84324   0.15826   0.06484   0.00000  Uiso   1.00
C129   C     0.91833   0.19036   0.06627   0.00000  Uiso   1.00
C130   C     0.79062   0.16416   0.40779   0.00000  Uiso   1.00
C131   C     0.87474   0.31259   0.25290   0.00000  Uiso   1.00
C132   C     0.80704   0.16663   0.35020   0.00000  Uiso   1.00
C133   C     0.87440   0.02178   0.25346   0.00000  Uiso   1.00
C134   C     0.83329   0.04279   0.24913   0.00000  Uiso   1.00
C135   C     0.79262   0.02092   0.24395   0.00000  Uiso   1.00
C136   C     0.79303   0.31166   0.24326   0.00000  Uiso   1.00
C137   C     0.83405   0.29064   0.24792   0.00000  Uiso   1.00
C138   C     0.98443   0.19537   0.22152   0.00000  Uiso   1.00
C139   C     0.70013   0.19538   0.22229   0.00000  Uiso   1.00
C140   C     0.68296   0.13835   0.27873   0.00000  Uiso   1.00
C141   C     0.96669   0.13844   0.27887   0.00000  Uiso   1.00
C142   C     0.83319   0.08739   0.24984   0.00000  Uiso   1.00
C143   C     0.85959   0.16603   0.14976   0.00000  Uiso   1.00
C144   C     0.92771   0.20302   0.01454   0.00000  Uiso   1.00
C145   C     0.87498   0.17019   0.09249   0.00000  Uiso   1.00
C146   C     0.74891   0.14052   0.43151   0.00000  Uiso   1.00
C147   C     0.73356   0.13422   0.48511   0.00000  Uiso   1.00
C148   C     0.76226   0.14909   0.01598   0.00000  Uiso   1.00
Cu149  Cu    0.78645   0.16666   0.25000   0.00000  Uiso   1.00
Cu150  Cu    0.88022   0.16667   0.25000   0.00000  Uiso   1.00
H151   H     0.94499   0.19727   0.08634   0.00000  Uiso   1.00
H152   H     0.90615   0.03809   0.25776   0.00000  Uiso   1.00
H153   H     0.76059   0.03662   0.24037   0.00000  Uiso   1.00
H154   H     0.76118   0.29528   0.23930   0.00000  Uiso   1.00
H155   H     0.72595   0.21795   0.19959   0.00000  Uiso   1.00
H156   H     0.69480   0.11561   0.30176   0.00000  Uiso   1.00
H157   H     0.94130   0.11581   0.30204   0.00000  Uiso   1.00
H158   H     0.81637   0.13513   0.08262   0.00000  Uiso   1.00
H159   H     0.72738   0.12734   0.40831   0.00000  Uiso   1.00
H160   H     0.90642   0.29702   0.25749   0.00000  Uiso   1.00
N161   N     0.71598   0.16666   0.24999   0.00000  Uiso   1.00
N162   N     0.95069   0.16669   0.25000   0.00000  Uiso   1.00
O163   O     0.79375   0.22678   0.25001   0.00000  Uiso   1.00
O164   O     0.87294   0.22679   0.25001   0.00000  Uiso   1.00
O165   O     0.77441   0.16665   0.32549   0.00000  Uiso   1.00
O166   O     0.85360   0.16666   0.32549   0.00000  Uiso   1.00
O167   O     0.79373   0.10654   0.25000   0.00000  Uiso   1.00
O168   O     0.87292   0.10655   0.25000   0.00000  Uiso   1.00
O169   O     0.81306   0.16667   0.17451   0.00000  Uiso   1.00
O170   O     0.89225   0.16668   0.17451   0.00000  Uiso   1.00
I171   I     0.97013   0.24098   0.17144   0.00000  Uiso   1.00
I172   I     0.95610   0.24763   0.38676   0.00000  Uiso   1.00
N173   N     0.97445   0.22217   0.49174   0.00000  Uiso   1.00
H174   H     0.99374   0.20612   0.45837   0.00000  Uiso   1.00
H175   H     0.97001   0.25328   0.48476   0.00000  Uiso   1.00
I176   I     0.72351   0.15352   0.09758   0.00000  Uiso   1.00
N177   N     0.68841   0.11216   0.00724   0.00000  Uiso   1.00
H178   H     0.99636   0.13184   0.03153   0.00000  Uiso   1.00
H179   H     0.69476   0.08755   0.02947   0.00000  Uiso   1.00
I180   I     0.83595   0.26123   0.37786   0.00000  Uiso   1.00
C181   C     0.16713   0.57929   0.24883   0.00000  Uiso   1.00
C182   C     0.14276   0.50091   0.49104   0.00000  Uiso   1.00
C183   C     0.15232   0.51362   0.43845   0.00000  Uiso   1.00
C184   C     0.18021   0.50843   0.01550   0.00000  Uiso   1.00
C185   C     0.22418   0.53119   0.48860   0.00000  Uiso   1.00
C186   C     0.22762   0.54884   0.43882   0.00000  Uiso   1.00
C187   C     0.18842   0.54382   0.41838   0.00000  Uiso   1.00
C188   C     0.17657   0.49159   0.06484   0.00000  Uiso   1.00
C189   C     0.25166   0.52369   0.06627   0.00000  Uiso   1.00
C190   C     0.12396   0.49750   0.40779   0.00000  Uiso   1.00
C191   C     0.20807   0.64593   0.25290   0.00000  Uiso   1.00
C192   C     0.14038   0.49996   0.35020   0.00000  Uiso   1.00
C193   C     0.20773   0.35511   0.25346   0.00000  Uiso   1.00
C194   C     0.16663   0.37613   0.24913   0.00000  Uiso   1.00
C195   C     0.12595   0.35425   0.24395   0.00000  Uiso   1.00
C196   C     0.12636   0.64499   0.24326   0.00000  Uiso   1.00
C197   C     0.16739   0.62397   0.24792   0.00000  Uiso   1.00
C198   C     0.31776   0.52870   0.22152   0.00000  Uiso   1.00
C199   C     0.03347   0.52871   0.22229   0.00000  Uiso   1.00
C200   C     0.01629   0.47168   0.27873   0.00000  Uiso   1.00
C201   C     0.30003   0.47177   0.27887   0.00000  Uiso   1.00
C202   C     0.16653   0.42073   0.24984   0.00000  Uiso   1.00
C203   C     0.19293   0.49937   0.14976   0.00000  Uiso   1.00
C204   C     0.26105   0.53636   0.01454   0.00000  Uiso   1.00
C205   C     0.20832   0.50353   0.09249   0.00000  Uiso   1.00
C206   C     0.08225   0.47385   0.43151   0.00000  Uiso   1.00
C207   C     0.06689   0.46755   0.48511   0.00000  Uiso   1.00
C208   C     0.09559   0.48243   0.01598   0.00000  Uiso   1.00
Cu209  Cu    0.11978   0.49999   0.25000   0.00000  Uiso   1.00
Cu210  Cu    0.21355   0.50001   0.25000   0.00000  Uiso   1.00
H211   H     0.27832   0.53061   0.08634   0.00000  Uiso   1.00
H212   H     0.23949   0.37143   0.25776   0.00000  Uiso   1.00
H213   H     0.09392   0.36995   0.24037   0.00000  Uiso   1.00
H214   H     0.09451   0.62861   0.23930   0.00000  Uiso   1.00
H215   H     0.05929   0.55129   0.19959   0.00000  Uiso   1.00
H216   H     0.02813   0.44895   0.30176   0.00000  Uiso   1.00
H217   H     0.27463   0.44914   0.30204   0.00000  Uiso   1.00
H218   H     0.14970   0.46847   0.08262   0.00000  Uiso   1.00
H219   H     0.06072   0.46067   0.40831   0.00000  Uiso   1.00
H220   H     0.23976   0.63036   0.25749   0.00000  Uiso   1.00
N221   N     0.04931   0.49999   0.24999   0.00000  Uiso   1.00
N222   N     0.28402   0.50002   0.25000   0.00000  Uiso   1.00
O223   O     0.12708   0.56011   0.25001   0.00000  Uiso   1.00
O224   O     0.20627   0.56012   0.25001   0.00000  Uiso   1.00
O225   O     0.10775   0.49998   0.32549   0.00000  Uiso   1.00
O226   O     0.18694   0.49999   0.32549   0.00000  Uiso   1.00
O227   O     0.12706   0.43988   0.25000   0.00000  Uiso   1.00
O228   O     0.20625   0.43989   0.25000   0.00000  Uiso   1.00
O229   O     0.14640   0.50001   0.17451   0.00000  Uiso   1.00
O230   O     0.22559   0.50002   0.17451   0.00000  Uiso   1.00
I231   I     0.30346   0.57431   0.17144   0.00000  Uiso   1.00
I232   I     0.28943   0.58097   0.38676   0.00000  Uiso   1.00
N233   N     0.30778   0.55550   0.49174   0.00000  Uiso   1.00
H234   H     0.32707   0.53946   0.45837   0.00000  Uiso   1.00
H235   H     0.30335   0.58662   0.48476   0.00000  Uiso   1.00
I236   I     0.05684   0.48686   0.09758   0.00000  Uiso   1.00
N237   N     0.02174   0.44550   0.00724   0.00000  Uiso   1.00
H238   H     0.32969   0.46517   0.03153   0.00000  Uiso   1.00
H239   H     0.02809   0.42088   0.02947   0.00000  Uiso   1.00
I240   I     0.16928   0.59456   0.37786   0.00000  Uiso   1.00
C241   C     0.50046   0.57929   0.24883   0.00000  Uiso   1.00
C242   C     0.47609   0.50091   0.49104   0.00000  Uiso   1.00
C243   C     0.48566   0.51362   0.43845   0.00000  Uiso   1.00
C244   C     0.51355   0.50843   0.01550   0.00000  Uiso   1.00
C245   C     0.55751   0.53119   0.48860   0.00000  Uiso   1.00
C246   C     0.56096   0.54884   0.43882   0.00000  Uiso   1.00
C247   C     0.52176   0.54382   0.41838   0.00000  Uiso   1.00
C248   C     0.50991   0.49159   0.06484   0.00000  Uiso   1.00
C249   C     0.58499   0.52369   0.06627   0.00000  Uiso   1.00
C250   C     0.45729   0.49750   0.40779   0.00000  Uiso   1.00
C251   C     0.54141   0.64593   0.25290   0.00000  Uiso   1.00
C252   C     0.47371   0.49996   0.35020   0.00000  Uiso   1.00
C253   C     0.54106   0.35511   0.25346   0.00000  Uiso   1.00
C254   C     0.49996   0.37613   0.24913   0.00000  Uiso   1.00
C255   C     0.45929   0.35425   0.24395   0.00000  Uiso   1.00
C256   C     0.45969   0.64499   0.24326   0.00000  Uiso   1.00
C257   C     0.50072   0.62397   0.24792   0.00000  Uiso   1.00
C258   C     0.65110   0.52870   0.22152   0.00000  Uiso   1.00
C259   C     0.36680   0.52871   0.22229   0.00000  Uiso   1.00
C260   C     0.34963   0.47168   0.27873   0.00000  Uiso   1.00
C261   C     0.63336   0.47177   0.27887   0.00000  Uiso   1.00
C262   C     0.49986   0.42073   0.24984   0.00000  Uiso   1.00
C263   C     0.52626   0.49937   0.14976   0.00000  Uiso   1.00
C264   C     0.59438   0.53636   0.01454   0.00000  Uiso   1.00
C265   C     0.54165   0.50353   0.09249   0.00000  Uiso   1.00
C266   C     0.41558   0.47385   0.43151   0.00000  Uiso   1.00
C267   C     0.40023   0.46755   0.48511   0.00000  Uiso   1.00
C268   C     0.42892   0.48243   0.01598   0.00000  Uiso   1.00
Cu269  Cu    0.45311   0.49999   0.25000   0.00000  Uiso   1.00
Cu270  Cu    0.54689   0.50001   0.25000   0.00000  Uiso   1.00
H271   H     0.61166   0.53061   0.08634   0.00000  Uiso   1.00
H272   H     0.57282   0.37143   0.25776   0.00000  Uiso   1.00
H273   H     0.42725   0.36995   0.24037   0.00000  Uiso   1.00
H274   H     0.42785   0.62861   0.23930   0.00000  Uiso   1.00
H275   H     0.39262   0.55129   0.19959   0.00000  Uiso   1.00
H276   H     0.36147   0.44895   0.30176   0.00000  Uiso   1.00
H277   H     0.60797   0.44914   0.30204   0.00000  Uiso   1.00
H278   H     0.48303   0.46847   0.08262   0.00000  Uiso   1.00
H279   H     0.39405   0.46067   0.40831   0.00000  Uiso   1.00
H280   H     0.57309   0.63036   0.25749   0.00000  Uiso   1.00
N281   N     0.38265   0.49999   0.24999   0.00000  Uiso   1.00
N282   N     0.61735   0.50002   0.25000   0.00000  Uiso   1.00
O283   O     0.46042   0.56011   0.25001   0.00000  Uiso   1.00
O284   O     0.53961   0.56012   0.25001   0.00000  Uiso   1.00
O285   O     0.44108   0.49998   0.32549   0.00000  Uiso   1.00
O286   O     0.52027   0.49999   0.32549   0.00000  Uiso   1.00
O287   O     0.46039   0.43988   0.25000   0.00000  Uiso   1.00
O288   O     0.53958   0.43989   0.25000   0.00000  Uiso   1.00
O289   O     0.47973   0.50001   0.17451   0.00000  Uiso   1.00
O290   O     0.55892   0.50002   0.17451   0.00000  Uiso   1.00
I291   I     0.63679   0.57431   0.17144   0.00000  Uiso   1.00
I292   I     0.62276   0.58097   0.38676   0.00000  Uiso   1.00
N293   N     0.64111   0.55550   0.49174   0.00000  Uiso   1.00
H294   H     0.66040   0.53946   0.45837   0.00000  Uiso   1.00
H295   H     0.63668   0.58662   0.48476   0.00000  Uiso   1.00
I296   I     0.39017   0.48686   0.09758   0.00000  Uiso   1.00
N297   N     0.35507   0.44550   0.00724   0.00000  Uiso   1.00
H298   H     0.66303   0.46517   0.03153   0.00000  Uiso   1.00
H299   H     0.36143   0.42088   0.02947   0.00000  Uiso   1.00
I300   I     0.50262   0.59456   0.37786   0.00000  Uiso   1.00
C301   C     0.83379   0.57929   0.24883   0.00000  Uiso   1.00
C302   C     0.80943   0.50091   0.49104   0.00000  Uiso   1.00
C303   C     0.81899   0.51362   0.43845   0.00000  Uiso   1.00
C304   C     0.84688   0.50843   0.01550   0.00000  Uiso   1.00
C305   C     0.89084   0.53119   0.48860   0.00000  Uiso   1.00
C306   C     0.89429   0.54884   0.43882   0.00000  Uiso   1.00
C307   C     0.85509   0.54382   0.41838   0.00000  Uiso   1.00
C308   C     0.84324   0.49159   0.06484   0.00000  Uiso   1.00
C309   C     0.91833   0.52369   0.06627   0.00000  Uiso   1.00
C310   C     0.79062   0.49750   0.40779   0.00000  Uiso   1.00
C311   C     0.87474   0.64593   0.25290   0.00000  Uiso   1.00
C312   C     0.80704   0.49996   0.35020   0.00000  Uiso   1.00
C313   C     0.87440   0.35511   0.25346   0.00000  Uiso   1.00
C314   C     0.83329   0.37613   0.24913   0.00000  Uiso   1.00
C315   C     0.79262   0.35425   0.24395   0.00000  Uiso   1.00
C316   C     0.79303   0.64499   0.24326   0.00000  Uiso   1.00
C317   C     0.83405   0.62397   0.24792   0.00000  Uiso   1.00
C318   C     0.98443   0.52870   0.22152   0.00000  Uiso   1.00
C319   C     0.70013   0.52871   0.22229   0.00000  Uiso   1.00
C320   C     0.68296   0.47168   0.27873   0.00000  Uiso   1.00
C321   C     0.96669   0.47177   0.27887   0.00000  Uiso   1.00
C322   C     0.83319   0.42073   0.24984   0.00000  Uiso   1.00
C323   C     0.85959   0.49937   0.14976   0.00000  Uiso   1.00
C324   C     0.92771   0.53636   0.01454   0.00000  Uiso   1.00
C325   C     0.87498   0.50353   0.09249   0.00000  Uiso   1.00
C326   C     0.74891   0.47385   0.43151   0.00000  Uiso   1.00
C327   C     0.73356   0.46755   0.48511   0.00000  Uiso   1.00
C328   C     0.76226   0.48243   0.01598   0.00000  Uiso   1.00
Cu329  Cu    0.78645   0.49999   0.25000   0.00000  Uiso   1.00
Cu330  Cu    0.88022   0.50001   0.25000   0.00000  Uiso   1.00
H331   H     0.94499   0.53061   0.08634   0.00000  Uiso   1.00
H332   H     0.90615   0.37143   0.25776   0.00000  Uiso   1.00
H333   H     0.76059   0.36995   0.24037   0.00000  Uiso   1.00
H334   H     0.76118   0.62861   0.23930   0.00000  Uiso   1.00
H335   H     0.72595   0.55129   0.19959   0.00000  Uiso   1.00
H336   H     0.69480   0.44895   0.30176   0.00000  Uiso   1.00
H337   H     0.94130   0.44914   0.30204   0.00000  Uiso   1.00
H338   H     0.81637   0.46847   0.08262   0.00000  Uiso   1.00
H339   H     0.72738   0.46067   0.40831   0.00000  Uiso   1.00
H340   H     0.90642   0.63036   0.25749   0.00000  Uiso   1.00
N341   N     0.71598   0.49999   0.24999   0.00000  Uiso   1.00
N342   N     0.95069   0.50002   0.25000   0.00000  Uiso   1.00
O343   O     0.79375   0.56011   0.25001   0.00000  Uiso   1.00
O344   O     0.87294   0.56012   0.25001   0.00000  Uiso   1.00
O345   O     0.77441   0.49998   0.32549   0.00000  Uiso   1.00
O346   O     0.85360   0.49999   0.32549   0.00000  Uiso   1.00
O347   O     0.79373   0.43988   0.25000   0.00000  Uiso   1.00
O348   O     0.87292   0.43989   0.25000   0.00000  Uiso   1.00
O349   O     0.81306   0.50001   0.17451   0.00000  Uiso   1.00
O350   O     0.89225   0.50002   0.17451   0.00000  Uiso   1.00
I351   I     0.97013   0.57431   0.17144   0.00000  Uiso   1.00
I352   I     0.95610   0.58097   0.38676   0.00000  Uiso   1.00
N353   N     0.97445   0.55550   0.49174   0.00000  Uiso   1.00
H354   H     0.99374   0.53946   0.45837   0.00000  Uiso   1.00
H355   H     0.97001   0.58662   0.48476   0.00000  Uiso   1.00
I356   I     0.72351   0.48686   0.09758   0.00000  Uiso   1.00
N357   N     0.68841   0.44550   0.00724   0.00000  Uiso   1.00
H358   H     0.99636   0.46517   0.03153   0.00000  Uiso   1.00
H359   H     0.69476   0.42088   0.02947   0.00000  Uiso   1.00
I360   I     0.83595   0.59456   0.37786   0.00000  Uiso   1.00
C361   C     0.16713   0.91262   0.24883   0.00000  Uiso   1.00
C362   C     0.14276   0.83425   0.49104   0.00000  Uiso   1.00
C363   C     0.15232   0.84695   0.43845   0.00000  Uiso   1.00
C364   C     0.18021   0.84176   0.01550   0.00000  Uiso   1.00
C365   C     0.22418   0.86453   0.48860   0.00000  Uiso   1.00
C366   C     0.22762   0.88217   0.43882   0.00000  Uiso   1.00
C367   C     0.18842   0.87715   0.41838   0.00000  Uiso   1.00
C368   C     0.17657   0.82493   0.06484   0.00000  Uiso   1.00
C369   C     0.25166   0.85703   0.06627   0.00000  Uiso   1.00
C370   C     0.12396   0.83083   0.40779   0.00000  Uiso   1.00
C371   C     0.20807   0.97926   0.25290   0.00000  Uiso   1.00
C372   C     0.14038   0.83329   0.35020   0.00000  Uiso   1.00
C373   C     0.20773   0.68845   0.25346   0.00000  Uiso   1.00
C374   C     0.16663   0.70946   0.24913   0.00000  Uiso   1.00
C375   C     0.12595   0.68758   0.24395   0.00000  Uiso   1.00
C376   C     0.12636   0.97832   0.24326   0.00000  Uiso   1.00
C377   C     0.16739   0.95730   0.24792   0.00000  Uiso   1.00
C378   C     0.31776   0.86203   0.22152   0.00000  Uiso   1.00
C379   C     0.03347   0.86204   0.22229   0.00000  Uiso   1.00
C380   C     0.01629   0.80502   0.27873   0.00000  Uiso   1.00
C381   C     0.30003   0.80511   0.27887   0.00000  Uiso   1.00
C382   C     0.16653   0.75406   0.24984   0.00000  Uiso   1.00
C383   C     0.19293   0.83270   0.14976   0.00000  Uiso   1.00
C384   C     0.26105   0.86969   0.01454   0.00000  Uiso   1.00
C385   C     0.20832   0.83686   0.09249   0.00000  Uiso   1.00
C386   C     0.08225   0.80718   0.43151   0.00000  Uiso   1.00
C387   C     0.06689   0.80089   0.48511   0.00000  Uiso   1.00
C388   C     0.09559   0.81576   0.01598   0.00000  Uiso   1.00
Cu389  Cu    0.11978   0.83333   0.25000   0.00000  Uiso   1.00
Cu390  Cu    0.21355   0.83334   0.25000   0.00000  Uiso   1.00
H391   H     0.27832   0.86394   0.08634   0.00000  Uiso   1.00
H392   H     0.23949   0.70476   0.25776   0.00000  Uiso   1.00
H393   H     0.09392   0.70329   0.24037   0.00000  Uiso   1.00
H394   H     0.09451   0.96195   0.23930   0.00000  Uiso   1.00
H395   H     0.05929   0.88462   0.19959   0.00000  Uiso   1.00
H396   H     0.02813   0.78228   0.30176   0.00000  Uiso   1.00
H397   H     0.27463   0.78247   0.30204   0.00000  Uiso   1.00
H398   H     0.14970   0.80180   0.08262   0.00000  Uiso   1.00
H399   H     0.06072   0.79401   0.40831   0.00000  Uiso   1.00
H400   H     0.23976   0.96369   0.25749   0.00000  Uiso   1.00
N401   N     0.04931   0.83332   0.24999   0.00000  Uiso   1.00
N402   N     0.28402   0.83335   0.25000   0.00000  Uiso   1.00
O403   O     0.12708   0.89345   0.25001   0.00000  Uiso   1.00
O404   O     0.20627   0.89346   0.25001   0.00000  Uiso   1.00
O405   O     0.10775   0.83332   0.32549   0.00000  Uiso   1.00
O406   O     0.18694   0.83333   0.32549   0.00000  Uiso   1.00
O407   O     0.12706   0.77321   0.25000   0.00000  Uiso   1.00
O408   O     0.20625   0.77322   0.25000   0.00000  Uiso   1.00
O409   O     0.14640   0.83334   0.17451   0.00000  Uiso   1.00
O410   O     0.22559   0.83335   0.17451   0.00000  Uiso   1.00
I411   I     0.30346   0.90765   0.17144   0.00000  Uiso   1.00
I412   I     0.28943   0.91430   0.38676   0.00000  Uiso   1.00
N413   N     0.30778   0.88884   0.49174   0.00000  Uiso   1.00
H414   H     0.32707   0.87279   0.45837   0.00000  Uiso   1.00
H415   H     0.30335   0.91995   0.48476   0.00000  Uiso   1.00
I416   I     0.05684   0.82019   0.09758   0.00000  Uiso   1.00
N417   N     0.02174   0.77883   0.00724   0.00000  Uiso   1.00
H418   H     0.32969   0.79850   0.03153   0.00000  Uiso   1.00
H419   H     0.02809   0.75422   0.02947   0.00000  Uiso   1.00
I420   I     0.16928   0.92790   0.37786   0.00000  Uiso   1.00
C421   C     0.50046   0.91262   0.24883   0.00000  Uiso   1.00
C422   C     0.47609   0.83425   0.49104   0.00000  Uiso   1.00
C423   C     0.48566   0.84695   0.43845   0.00000  Uiso   1.00
C424   C     0.51355   0.84176   0.01550   0.00000  Uiso   1.00
C425   C     0.55751   0.86453   0.48860   0.00000  Uiso   1.00
C426   C     0.56096   0.88217   0.43882   0.00000  Uiso   1.00
C427   C     0.52176   0.87715   0.41838   0.00000  Uiso   1.00
C428   C     0.50991   0.82493   0.06484   0.00000  Uiso   1.00
C429   C     0.58499   0.85703   0.06627   0.00000  Uiso   1.00
C430   C     0.45729   0.83083   0.40779   0.00000  Uiso   1.00
C431   C     0.54141   0.97926   0.25290   0.00000  Uiso   1.00
C432   C     0.47371   0.83329   0.35020   0.00000  Uiso   1.00
C433   C     0.54106   0.68845   0.25346   0.00000  Uiso   1.00
C434   C     0.49996   0.70946   0.24913   0.00000  Uiso   1.00
C435   C     0.45929   0.68758   0.24395   0.00000  Uiso   1.00
C436   C     0.45969   0.97832   0.24326   0.00000  Uiso   1.00
C437   C     0.50072   0.95730   0.24792   0.00000  Uiso   1.00
C438   C     0.65110   0.86203   0.22152   0.00000  Uiso   1.00
C439   C     0.36680   0.86204   0.22229   0.00000  Uiso   1.00
C440   C     0.34963   0.80502   0.27873   0.00000  Uiso   1.00
C441   C     0.63336   0.80511   0.27887   0.00000  Uiso   1.00
C442   C     0.49986   0.75406   0.24984   0.00000  Uiso   1.00
C443   C     0.52626   0.83270   0.14976   0.00000  Uiso   1.00
C444   C     0.59438   0.86969   0.01454   0.00000  Uiso   1.00
C445   C     0.54165   0.83686   0.09249   0.00000  Uiso   1.00
C446   C     0.41558   0.80718   0.43151   0.00000  Uiso   1.00
C447   C     0.40023   0.80089   0.48511   0.00000  Uiso   1.00
C448   C     0.42892   0.81576   0.01598   0.00000  Uiso   1.00
Cu449  Cu    0.45311   0.83333   0.25000   0.00000  Uiso   1.00
Cu450  Cu    0.54689   0.83334   0.25000   0.00000  Uiso   1.00
H451   H     0.61166   0.86394   0.08634   0.00000  Uiso   1.00
H452   H     0.57282   0.70476   0.25776   0.00000  Uiso   1.00
H453   H     0.42725   0.70329   0.24037   0.00000  Uiso   1.00
H454   H     0.42785   0.96195   0.23930   0.00000  Uiso   1.00
H455   H     0.39262   0.88462   0.19959   0.00000  Uiso   1.00
H456   H     0.36147   0.78228   0.30176   0.00000  Uiso   1.00
H457   H     0.60797   0.78247   0.30204   0.00000  Uiso   1.00
H458   H     0.48303   0.80180   0.08262   0.00000  Uiso   1.00
H459   H     0.39405   0.79401   0.40831   0.00000  Uiso   1.00
H460   H     0.57309   0.96369   0.25749   0.00000  Uiso   1.00
N461   N     0.38265   0.83332   0.24999   0.00000  Uiso   1.00
N462   N     0.61735   0.83335   0.25000   0.00000  Uiso   1.00
O463   O     0.46042   0.89345   0.25001   0.00000  Uiso   1.00
O464   O     0.53961   0.89346   0.25001   0.00000  Uiso   1.00
O465   O     0.44108   0.83332   0.32549   0.00000  Uiso   1.00
O466   O     0.52027   0.83333   0.32549   0.00000  Uiso   1.00
O467   O     0.46039   0.77321   0.25000   0.00000  Uiso   1.00
O468   O     0.53958   0.77322   0.25000   0.00000  Uiso   1.00
O469   O     0.47973   0.83334   0.17451   0.00000  Uiso   1.00
O470   O     0.55892   0.83335   0.17451   0.00000  Uiso   1.00
I471   I     0.63679   0.90765   0.17144   0.00000  Uiso   1.00
I472   I     0.62276   0.91430   0.38676   0.00000  Uiso   1.00
N473   N     0.64111   0.88884   0.49174   0.00000  Uiso   1.00
H474   H     0.66040   0.87279   0.45837   0.00000  Uiso   1.00
H475   H     0.63668   0.91995   0.48476   0.00000  Uiso   1.00
I476   I     0.39017   0.82019   0.09758   0.00000  Uiso   1.00
N477   N     0.35507   0.77883   0.00724   0.00000  Uiso   1.00
H478   H     0.66303   0.79850   0.03153   0.00000  Uiso   1.00
H479   H     0.36143   0.75422   0.02947   0.00000  Uiso   1.00
I480   I     0.50262   0.92790   0.37786   0.00000  Uiso   1.00
C481   C     0.83379   0.91262   0.24883   0.00000  Uiso   1.00
C482   C     0.80943   0.83425   0.49104   0.00000  Uiso   1.00
C483   C     0.81899   0.84695   0.43845   0.00000  Uiso   1.00
C484   C     0.84688   0.84176   0.01550   0.00000  Uiso   1.00
C485   C     0.89084   0.86453   0.48860   0.00000  Uiso   1.00
C486   C     0.89429   0.88217   0.43882   0.00000  Uiso   1.00
C487   C     0.85509   0.87715   0.41838   0.00000  Uiso   1.00
C488   C     0.84324   0.82493   0.06484   0.00000  Uiso   1.00
C489   C     0.91833   0.85703   0.06627   0.00000  Uiso   1.00
C490   C     0.79062   0.83083   0.40779   0.00000  Uiso   1.00
C491   C     0.87474   0.97926   0.25290   0.00000  Uiso   1.00
C492   C     0.80704   0.83329   0.35020   0.00000  Uiso   1.00
C493   C     0.87440   0.68845   0.25346   0.00000  Uiso   1.00
C494   C     0.83329   0.70946   0.24913   0.00000  Uiso   1.00
C495   C     0.79262   0.68758   0.24395   0.00000  Uiso   1.00
C496   C     0.79303   0.97832   0.24326   0.00000  Uiso   1.00
C497   C     0.83405   0.95730   0.24792   0.00000  Uiso   1.00
C498   C     0.98443   0.86203   0.22152   0.00000  Uiso   1.00
C499   C     0.70013   0.86204   0.22229   0.00000  Uiso   1.00
C500   C     0.68296   0.80502   0.27873   0.00000  Uiso   1.00
C501   C     0.96669   0.80511   0.27887   0.00000  Uiso   1.00
C502   C     0.83319   0.75406   0.24984   0.00000  Uiso   1.00
C503   C     0.85959   0.83270   0.14976   0.00000  Uiso   1.00
C504   C     0.92771   0.86969   0.01454   0.00000  Uiso   1.00
C505   C     0.87498   0.83686   0.09249   0.00000  Uiso   1.00
C506   C     0.74891   0.80718   0.43151   0.00000  Uiso   1.00
C507   C     0.73356   0.80089   0.48511   0.00000  Uiso   1.00
C508   C     0.76226   0.81576   0.01598   0.00000  Uiso   1.00
Cu509  Cu    0.78645   0.83333   0.25000   0.00000  Uiso   1.00
Cu510  Cu    0.88022   0.83334   0.25000   0.00000  Uiso   1.00
H511   H     0.94499   0.86394   0.08634   0.00000  Uiso   1.00
H512   H     0.90615   0.70476   0.25776   0.00000  Uiso   1.00
H513   H     0.76059   0.70329   0.24037   0.00000  Uiso   1.00
H514   H     0.76118   0.96195   0.23930   0.00000  Uiso   1.00
H515   H     0.72595   0.88462   0.19959   0.00000  Uiso   1.00
H516   H     0.69480   0.78228   0.30176   0.00000  Uiso   1.00
H517   H     0.94130   0.78247   0.30204   0.00000  Uiso   1.00
H518   H     0.81637   0.80180   0.08262   0.00000  Uiso   1.00
H519   H     0.72738   0.79401   0.40831   0.00000  Uiso   1.00
H520   H     0.90642   0.96369   0.25749   0.00000  Uiso   1.00
N521   N     0.71598   0.83332   0.24999   0.00000  Uiso   1.00
N522   N     0.95069   0.83335   0.25000   0.00000  Uiso   1.00
O523   O     0.79375   0.89345   0.25001   0.00000  Uiso   1.00
O524   O     0.87294   0.89346   0.25001   0.00000  Uiso   1.00
O525   O     0.77441   0.83332   0.32549   0.00000  Uiso   1.00
O526   O     0.85360   0.83333   0.32549   0.00000  Uiso   1.00
O527   O     0.79373   0.77321   0.25000   0.00000  Uiso   1.00
O528   O     0.87292   0.77322   0.25000   0.00000  Uiso   1.00
O529   O     0.81306   0.83334   0.17451   0.00000  Uiso   1.00
O530   O     0.89225   0.83335   0.17451   0.00000  Uiso   1.00
I531   I     0.97013   0.90765   0.17144   0.00000  Uiso   1.00
I532   I     0.95610   0.91430   0.38676   0.00000  Uiso   1.00
N533   N     0.97445   0.88884   0.49174   0.00000  Uiso   1.00
H534   H     0.99374   0.87279   0.45837   0.00000  Uiso   1.00
H535   H     0.97001   0.91995   0.48476   0.00000  Uiso   1.00
I536   I     0.72351   0.82019   0.09758   0.00000  Uiso   1.00
N537   N     0.68841   0.77883   0.00724   0.00000  Uiso   1.00
H538   H     0.99636   0.79850   0.03153   0.00000  Uiso   1.00
H539   H     0.69476   0.75422   0.02947   0.00000  Uiso   1.00
I540   I     0.83595   0.92790   0.37786   0.00000  Uiso   1.00
C541   C     0.16713   0.24596   0.74883   0.00000  Uiso   1.00
C542   C     0.14276   0.16758   0.99104   0.00000  Uiso   1.00
C543   C     0.15232   0.18029   0.93845   0.00000  Uiso   1.00
C544   C     0.18021   0.17510   0.51550   0.00000  Uiso   1.00
C545   C     0.22418   0.19786   0.98860   0.00000  Uiso   1.00
C546   C     0.22762   0.21551   0.93882   0.00000  Uiso   1.00
C547   C     0.18842   0.21049   0.91838   0.00000  Uiso   1.00
C548   C     0.17657   0.15826   0.56484   0.00000  Uiso   1.00
C549   C     0.25166   0.19036   0.56627   0.00000  Uiso   1.00
C550   C     0.12396   0.16416   0.90779   0.00000  Uiso   1.00
C551   C     0.20807   0.31259   0.75290   0.00000  Uiso   1.00
C552   C     0.14038   0.16663   0.85020   0.00000  Uiso   1.00
C553   C     0.20773   0.02178   0.75346   0.00000  Uiso   1.00
C554   C     0.16663   0.04279   0.74913   0.00000  Uiso   1.00
C555   C     0.12595   0.02092   0.74395   0.00000  Uiso   1.00
C556   C     0.12636   0.31166   0.74326   0.00000  Uiso   1.00
C557   C     0.16739   0.29064   0.74792   0.00000  Uiso   1.00
C558   C     0.31776   0.19537   0.72152   0.00000  Uiso   1.00
C559   C     0.03347   0.19538   0.72229   0.00000  Uiso   1.00
C560   C     0.01629   0.13835   0.77873   0.00000  Uiso   1.00
C561   C     0.30003   0.13844   0.77887   0.00000  Uiso   1.00
C562   C     0.16653   0.08739   0.74984   0.00000  Uiso   1.00
C563   C     0.19293   0.16603   0.64976   0.00000  Uiso   1.00
C564   C     0.26105   0.20302   0.51454   0.00000  Uiso   1.00
C565   C     0.20832   0.17019   0.59249   0.00000  Uiso   1.00
C566   C     0.08225   0.14052   0.93151   0.00000  Uiso   1.00
C567   C     0.06689   0.13422   0.98511   0.00000  Uiso   1.00
C568   C     0.09559   0.14909   0.51598   0.00000  Uiso   1.00
Cu569  Cu    0.11978   0.16666   0.75000   0.00000  Uiso   1.00
Cu570  Cu    0.21355   0.16667   0.75000   0.00000  Uiso   1.00
H571   H     0.27832   0.19727   0.58634   0.00000  Uiso   1.00
H572   H     0.23949   0.03809   0.75776   0.00000  Uiso   1.00
H573   H     0.09392   0.03662   0.74037   0.00000  Uiso   1.00
H574   H     0.09451   0.29528   0.73930   0.00000  Uiso   1.00
H575   H     0.05929   0.21795   0.69959   0.00000  Uiso   1.00
H576   H     0.02813   0.11561   0.80176   0.00000  Uiso   1.00
H577   H     0.27463   0.11581   0.80204   0.00000  Uiso   1.00
H578   H     0.14970   0.13513   0.58262   0.00000  Uiso   1.00
H579   H     0.06072   0.12734   0.90831   0.00000  Uiso   1.00
H580   H     0.23976   0.29702   0.75749   0.00000  Uiso   1.00
N581   N     0.04931   0.16666   0.74999   0.00000  Uiso   1.00
N582   N     0.28402   0.16669   0.75000   0.00000  Uiso   1.00
O583   O     0.12708   0.22678   0.75001   0.00000  Uiso   1.00
O584   O     0.20627   0.22679   0.75001   0.00000  Uiso   1.00
O585   O     0.10775   0.16665   0.82549   0.00000  Uiso   1.00
O586   O     0.18694   0.16666   0.82549   0.00000  Uiso   1.00
O587   O     0.12706   0.10654   0.75000   0.00000  Uiso   1.00
O588   O     0.20625   0.10655   0.75000   0.00000  Uiso   1.00
O589   O     0.14640   0.16667   0.67451   0.00000  Uiso   1.00
O590   O     0.22559   0.16668   0.67451   0.00000  Uiso   1.00
I591   I     0.30346   0.24098   0.67144   0.00000  Uiso   1.00
I592   I     0.28943   0.24763   0.88676   0.00000  Uiso   1.00
N593   N     0.30778   0.22217   0.99174   0.00000  Uiso   1.00
H594   H     0.32707   0.20612   0.95837   0.00000  Uiso   1.00
H595   H     0.30335   0.25328   0.98476   0.00000  Uiso   1.00
I596   I     0.05684   0.15352   0.59758   0.00000  Uiso   1.00
N597   N     0.02174   0.11216   0.50724   0.00000  Uiso   1.00
H598   H     0.32969   0.13184   0.53153   0.00000  Uiso   1.00
H599   H     0.02809   0.08755   0.52947   0.00000  Uiso   1.00
I600   I     0.16928   0.26123   0.87786   0.00000  Uiso   1.00
C601   C     0.50046   0.24596   0.74883   0.00000  Uiso   1.00
C602   C     0.47609   0.16758   0.99104   0.00000  Uiso   1.00
C603   C     0.48566   0.18029   0.93845   0.00000  Uiso   1.00
C604   C     0.51355   0.17510   0.51550   0.00000  Uiso   1.00
C605   C     0.55751   0.19786   0.98860   0.00000  Uiso   1.00
C606   C     0.56096   0.21551   0.93882   0.00000  Uiso   1.00
C607   C     0.52176   0.21049   0.91838   0.00000  Uiso   1.00
C608   C     0.50991   0.15826   0.56484   0.00000  Uiso   1.00
C609   C     0.58499   0.19036   0.56627   0.00000  Uiso   1.00
C610   C     0.45729   0.16416   0.90779   0.00000  Uiso   1.00
C611   C     0.54141   0.31259   0.75290   0.00000  Uiso   1.00
C612   C     0.47371   0.16663   0.85020   0.00000  Uiso   1.00
C613   C     0.54106   0.02178   0.75346   0.00000  Uiso   1.00
C614   C     0.49996   0.04279   0.74913   0.00000  Uiso   1.00
C615   C     0.45929   0.02092   0.74395   0.00000  Uiso   1.00
C616   C     0.45969   0.31166   0.74326   0.00000  Uiso   1.00
C617   C     0.50072   0.29064   0.74792   0.00000  Uiso   1.00
C618   C     0.65110   0.19537   0.72152   0.00000  Uiso   1.00
C619   C     0.36680   0.19538   0.72229   0.00000  Uiso   1.00
C620   C     0.34963   0.13835   0.77873   0.00000  Uiso   1.00
C621   C     0.63336   0.13844   0.77887   0.00000  Uiso   1.00
C622   C     0.49986   0.08739   0.74984   0.00000  Uiso   1.00
C623   C     0.52626   0.16603   0.64976   0.00000  Uiso   1.00
C624   C     0.59438   0.20302   0.51454   0.00000  Uiso   1.00
C625   C     0.54165   0.17019   0.59249   0.00000  Uiso   1.00
C626   C     0.41558   0.14052   0.93151   0.00000  Uiso   1.00
C627   C     0.40023   0.13422   0.98511   0.00000  Uiso   1.00
C628   C     0.42892   0.14909   0.51598   0.00000  Uiso   1.00
Cu629  Cu    0.45311   0.16666   0.75000   0.00000  Uiso   1.00
Cu630  Cu    0.54689   0.16667   0.75000   0.00000  Uiso   1.00
H631   H     0.61166   0.19727   0.58634   0.00000  Uiso   1.00
H632   H     0.57282   0.03809   0.75776   0.00000  Uiso   1.00
H633   H     0.42725   0.03662   0.74037   0.00000  Uiso   1.00
H634   H     0.42785   0.29528   0.73930   0.00000  Uiso   1.00
H635   H     0.39262   0.21795   0.69959   0.00000  Uiso   1.00
H636   H     0.36147   0.11561   0.80176   0.00000  Uiso   1.00
H637   H     0.60797   0.11581   0.80204   0.00000  Uiso   1.00
H638   H     0.48303   0.13513   0.58262   0.00000  Uiso   1.00
H639   H     0.39405   0.12734   0.90831   0.00000  Uiso   1.00
H640   H     0.57309   0.29702   0.75749   0.00000  Uiso   1.00
N641   N     0.38265   0.16666   0.74999   0.00000  Uiso   1.00
N642   N     0.61735   0.16669   0.75000   0.00000  Uiso   1.00
O643   O     0.46042   0.22678   0.75001   0.00000  Uiso   1.00
O644   O     0.53961   0.22679   0.75001   0.00000  Uiso   1.00
O645   O     0.44108   0.16665   0.82549   0.00000  Uiso   1.00
O646   O     0.52027   0.16666   0.82549   0.00000  Uiso   1.00
O647   O     0.46039   0.10654   0.75000   0.00000  Uiso   1.00
O648   O     0.53958   0.10655   0.75000   0.00000  Uiso   1.00
O649   O     0.47973   0.16667   0.67451   0.00000  Uiso   1.00
O650   O     0.55892   0.16668   0.67451   0.00000  Uiso   1.00
I651   I     0.63679   0.24098   0.67144   0.00000  Uiso   1.00
I652   I     0.62276   0.24763   0.88676   0.00000  Uiso   1.00
N653   N     0.64111   0.22217   0.99174   0.00000  Uiso   1.00
H654   H     0.66040   0.20612   0.95837   0.00000  Uiso   1.00
H655   H     0.63668   0.25328   0.98476   0.00000  Uiso   1.00
I656   I     0.39017   0.15352   0.59758   0.00000  Uiso   1.00
N657   N     0.35507   0.11216   0.50724   0.00000  Uiso   1.00
H658   H     0.66303   0.13184   0.53153   0.00000  Uiso   1.00
H659   H     0.36143   0.08755   0.52947   0.00000  Uiso   1.00
I660   I     0.50262   0.26123   0.87786   0.00000  Uiso   1.00
C661   C     0.83379   0.24596   0.74883   0.00000  Uiso   1.00
C662   C     0.80943   0.16758   0.99104   0.00000  Uiso   1.00
C663   C     0.81899   0.18029   0.93845   0.00000  Uiso   1.00
C664   C     0.84688   0.17510   0.51550   0.00000  Uiso   1.00
C665   C     0.89084   0.19786   0.98860   0.00000  Uiso   1.00
C666   C     0.89429   0.21551   0.93882   0.00000  Uiso   1.00
C667   C     0.85509   0.21049   0.91838   0.00000  Uiso   1.00
C668   C     0.84324   0.15826   0.56484   0.00000  Uiso   1.00
C669   C     0.91833   0.19036   0.56627   0.00000  Uiso   1.00
C670   C     0.79062   0.16416   0.90779   0.00000  Uiso   1.00
C671   C     0.87474   0.31259   0.75290   0.00000  Uiso   1.00
C672   C     0.80704   0.16663   0.85020   0.00000  Uiso   1.00
C673   C     0.87440   0.02178   0.75346   0.00000  Uiso   1.00
C674   C     0.83329   0.04279   0.74913   0.00000  Uiso   1.00
C675   C     0.79262   0.02092   0.74395   0.00000  Uiso   1.00
C676   C     0.79303   0.31166   0.74326   0.00000  Uiso   1.00
C677   C     0.83405   0.29064   0.74792   0.00000  Uiso   1.00
C678   C     0.98443   0.19537   0.72152   0.00000  Uiso   1.00
C679   C     0.70013   0.19538   0.72229   0.00000  Uiso   1.00
C680   C     0.68296   0.13835   0.77873   0.00000  Uiso   1.00
C681   C     0.96669   0.13844   0.77887   0.00000  Uiso   1.00
C682   C     0.83319   0.08739   0.74984   0.00000  Uiso   1.00
C683   C     0.85959   0.16603   0.64976   0.00000  Uiso   1.00
C684   C     0.92771   0.20302   0.51454   0.00000  Uiso   1.00
C685   C     0.87498   0.17019   0.59249   0.00000  Uiso   1.00
C686   C     0.74891   0.14052   0.93151   0.00000  Uiso   1.00
C687   C     0.73356   0.13422   0.98511   0.00000  Uiso   1.00
C688   C     0.76226   0.14909   0.51598   0.00000  Uiso   1.00
Cu689  Cu    0.78645   0.16666   0.75000   0.00000  Uiso   1.00
Cu690  Cu    0.88022   0.16667   0.75000   0.00000  Uiso   1.00
H691   H     0.94499   0.19727   0.58634   0.00000  Uiso   1.00
H692   H     0.90615   0.03809   0.75776   0.00000  Uiso   1.00
H693   H     0.76059   0.03662   0.74037   0.00000  Uiso   1.00
H694   H     0.76118   0.29528   0.73930   0.00000  Uiso   1.00
H695   H     0.72595   0.21795   0.69959   0.00000  Uiso   1.00
H696   H     0.69480   0.11561   0.80176   0.00000  Uiso   1.00
H697   H     0.94130   0.11581   0.80204   0.00000  Uiso   1.00
H698   H     0.81637   0.13513   0.58262   0.00000  Uiso   1.00
H699   H     0.72738   0.12734   0.90831   0.00000  Uiso   1.00
H700   H     0.90642   0.29702   0.75749   0.00000  Uiso   1.00
N701   N     0.71598   0.16666   0.74999   0.00000  Uiso   1.00
N702   N     0.95069   0.16669   0.75000   0.00000  Uiso   1.00
O703   O     0.79375   0.22678   0.75001   0.00000  Uiso   1.00
O704   O     0.87294   0.22679   0.75001   0.00000  Uiso   1.00
O705   O     0.77441   0.16665   0.82549   0.00000  Uiso   1.00
O706   O     0.85360   0.16666   0.82549   0.00000  Uiso   1.00
O707   O     0.79373   0.10654   0.75000   0.00000  Uiso   1.00
O708   O     0.87292   0.10655   0.75000   0.00000  Uiso   1.00
O709   O     0.81306   0.16667   0.67451   0.00000  Uiso   1.00
O710   O     0.89225   0.16668   0.67451   0.00000  Uiso   1.00
I711   I     0.97013   0.24098   0.67144   0.00000  Uiso   1.00
I712   I     0.95610   0.24763   0.88676   0.00000  Uiso   1.00
N713   N     0.97445   0.22217   0.99174   0.00000  Uiso   1.00
H714   H     0.99374   0.20612   0.95837   0.00000  Uiso   1.00
H715   H     0.97001   0.25328   0.98476   0.00000  Uiso   1.00
I716   I     0.72351   0.15352   0.59758   0.00000  Uiso   1.00
N717   N     0.68841   0.11216   0.50724   0.00000  Uiso   1.00
H718   H     0.99636   0.13184   0.53153   0.00000  Uiso   1.00
H719   H     0.69476   0.08755   0.52947   0.00000  Uiso   1.00
I720   I     0.83595   0.26123   0.87786   0.00000  Uiso   1.00
C721   C     0.16713   0.57929   0.74883   0.00000  Uiso   1.00
C722   C     0.14276   0.50091   0.99104   0.00000  Uiso   1.00
C723   C     0.15232   0.51362   0.93845   0.00000  Uiso   1.00
C724   C     0.18021   0.50843   0.51550   0.00000  Uiso   1.00
C725   C     0.22418   0.53119   0.98860   0.00000  Uiso   1.00
C726   C     0.22762   0.54884   0.93882   0.00000  Uiso   1.00
C727   C     0.18842   0.54382   0.91838   0.00000  Uiso   1.00
C728   C     0.17657   0.49159   0.56484   0.00000  Uiso   1.00
C729   C     0.25166   0.52369   0.56627   0.00000  Uiso   1.00
C730   C     0.12396   0.49750   0.90779   0.00000  Uiso   1.00
C731   C     0.20807   0.64593   0.75290   0.00000  Uiso   1.00
C732   C     0.14038   0.49996   0.85020   0.00000  Uiso   1.00
C733   C     0.20773   0.35511   0.75346   0.00000  Uiso   1.00
C734   C     0.16663   0.37613   0.74913   0.00000  Uiso   1.00
C735   C     0.12595   0.35425   0.74395   0.00000  Uiso   1.00
C736   C     0.12636   0.64499   0.74326   0.00000  Uiso   1.00
C737   C     0.16739   0.62397   0.74792   0.00000  Uiso   1.00
C738   C     0.31776   0.52870   0.72152   0.00000  Uiso   1.00
C739   C     0.03347   0.52871   0.72229   0.00000  Uiso   1.00
C740   C     0.01629   0.47168   0.77873   0.00000  Uiso   1.00
C741   C     0.30003   0.47177   0.77887   0.00000  Uiso   1.00
C742   C     0.16653   0.42073   0.74984   0.00000  Uiso   1.00
C743   C     0.19293   0.49937   0.64976   0.00000  Uiso   1.00
C744   C     0.26105   0.53636   0.51454   0.00000  Uiso   1.00
C745   C     0.20832   0.50353   0.59249   0.00000  Uiso   1.00
C746   C     0.08225   0.47385   0.93151   0.00000  Uiso   1.00
C747   C     0.06689   0.46755   0.98511   0.00000  Uiso   1.00
C748   C     0.09559   0.48243   0.51598   0.00000  Uiso   1.00
Cu749  Cu    0.11978   0.49999   0.75000   0.00000  Uiso   1.00
Cu750  Cu    0.21355   0.50001   0.75000   0.00000  Uiso   1.00
H751   H     0.27832   0.53061   0.58634   0.00000  Uiso   1.00
H752   H     0.23949   0.37143   0.75776   0.00000  Uiso   1.00
H753   H     0.09392   0.36995   0.74037   0.00000  Uiso   1.00
H754   H     0.09451   0.62861   0.73930   0.00000  Uiso   1.00
H755   H     0.05929   0.55129   0.69959   0.00000  Uiso   1.00
H756   H     0.02813   0.44895   0.80176   0.00000  Uiso   1.00
H757   H     0.27463   0.44914   0.80204   0.00000  Uiso   1.00
H758   H     0.14970   0.46847   0.58262   0.00000  Uiso   1.00
H759   H     0.06072   0.46067   0.90831   0.00000  Uiso   1.00
H760   H     0.23976   0.63036   0.75749   0.00000  Uiso   1.00
N761   N     0.04931   0.49999   0.74999   0.00000  Uiso   1.00
N762   N     0.28402   0.50002   0.75000   0.00000  Uiso   1.00
O763   O     0.12708   0.56011   0.75001   0.00000  Uiso   1.00
O764   O     0.20627   0.56012   0.75001   0.00000  Uiso   1.00
O765   O     0.10775   0.49998   0.82549   0.00000  Uiso   1.00
O766   O     0.18694   0.49999   0.82549   0.00000  Uiso   1.00
O767   O     0.12706   0.43988   0.75000   0.00000  Uiso   1.00
O768   O     0.20625   0.43989   0.75000   0.00000  Uiso   1.00
O769   O     0.14640   0.50001   0.67451   0.00000  Uiso   1.00
O770   O     0.22559   0.50002   0.67451   0.00000  Uiso   1.00
I771   I     0.30346   0.57431   0.67144   0.00000  Uiso   1.00
I772   I     0.28943   0.58097   0.88676   0.00000  Uiso   1.00
N773   N     0.30778   0.55550   0.99174   0.00000  Uiso   1.00
H774   H     0.32707   0.53946   0.95837   0.00000  Uiso   1.00
H775   H     0.30335   0.58662   0.98476   0.00000  Uiso   1.00
I776   I     0.05684   0.48686   0.59758   0.00000  Uiso   1.00
N777   N     0.02174   0.44550   0.50724   0.00000  Uiso   1.00
H778   H     0.32969   0.46517   0.53153   0.00000  Uiso   1.00
H779   H     0.02809   0.42088   0.52947   0.00000  Uiso   1.00
I780   I     0.16928   0.59456   0.87786   0.00000  Uiso   1.00
C781   C     0.50046   0.57929   0.74883   0.00000  Uiso   1.00
C782   C     0.47609   0.50091   0.99104   0.00000  Uiso   1.00
C783   C     0.48566   0.51362   0.93845   0.00000  Uiso   1.00
C784   C     0.51355   0.50843   0.51550   0.00000  Uiso   1.00
C785   C     0.55751   0.53119   0.98860   0.00000  Uiso   1.00
C786   C     0.56096   0.54884   0.93882   0.00000  Uiso   1.00
C787   C     0.52176   0.54382   0.91838   0.00000  Uiso   1.00
C788   C     0.50991   0.49159   0.56484   0.00000  Uiso   1.00
C789   C     0.58499   0.52369   0.56627   0.00000  Uiso   1.00
C790   C     0.45729   0.49750   0.90779   0.00000  Uiso   1.00
C791   C     0.54141   0.64593   0.75290   0.00000  Uiso   1.00
C792   C     0.47371   0.49996   0.85020   0.00000  Uiso   1.00
C793   C     0.54106   0.35511   0.75346   0.00000  Uiso   1.00
C794   C     0.49996   0.37613   0.74913   0.00000  Uiso   1.00
C795   C     0.45929   0.35425   0.74395   0.00000  Uiso   1.00
C796   C     0.45969   0.64499   0.74326   0.00000  Uiso   1.00
C797   C     0.50072   0.62397   0.74792   0.00000  Uiso   1.00
C798   C     0.65110   0.52870   0.72152   0.00000  Uiso   1.00
C799   C     0.36680   0.52871   0.72229   0.00000  Uiso   1.00
C800   C     0.34963   0.47168   0.77873   0.00000  Uiso   1.00
C801   C     0.63336   0.47177   0.77887   0.00000  Uiso   1.00
C802   C     0.49986   0.42073   0.74984   0.00000  Uiso   1.00
C803   C     0.52626   0.49937   0.64976   0.00000  Uiso   1.00
C804   C     0.59438   0.53636   0.51454   0.00000  Uiso   1.00
C805   C     0.54165   0.50353   0.59249   0.00000  Uiso   1.00
C806   C     0.41558   0.47385   0.93151   0.00000  Uiso   1.00
C807   C     0.40023   0.46755   0.98511   0.00000  Uiso   1.00
C808   C     0.42892   0.48243   0.51598   0.00000  Uiso   1.00
Cu809  Cu    0.45311   0.49999   0.75000   0.00000  Uiso   1.00
Cu810  Cu    0.54689   0.50001   0.75000   0.00000  Uiso   1.00
H811   H     0.61166   0.53061   0.58634   0.00000  Uiso   1.00
H812   H     0.57282   0.37143   0.75776   0.00000  Uiso   1.00
H813   H     0.42725   0.36995   0.74037   0.00000  Uiso   1.00
H814   H     0.42785   0.62861   0.73930   0.00000  Uiso   1.00
H815   H     0.39262   0.55129   0.69959   0.00000  Uiso   1.00
H816   H     0.36147   0.44895   0.80176   0.00000  Uiso   1.00
H817   H     0.60797   0.44914   0.80204   0.00000  Uiso   1.00
H818   H     0.48303   0.46847   0.58262   0.00000  Uiso   1.00
H819   H     0.39405   0.46067   0.90831   0.00000  Uiso   1.00
H820   H     0.57309   0.63036   0.75749   0.00000  Uiso   1.00
N821   N     0.38265   0.49999   0.74999   0.00000  Uiso   1.00
N822   N     0.61735   0.50002   0.75000   0.00000  Uiso   1.00
O823   O     0.46042   0.56011   0.75001   0.00000  Uiso   1.00
O824   O     0.53961   0.56012   0.75001   0.00000  Uiso   1.00
O825   O     0.44108   0.49998   0.82549   0.00000  Uiso   1.00
O826   O     0.52027   0.49999   0.82549   0.00000  Uiso   1.00
O827   O     0.46039   0.43988   0.75000   0.00000  Uiso   1.00
O828   O     0.53958   0.43989   0.75000   0.00000  Uiso   1.00
O829   O     0.47973   0.50001   0.67451   0.00000  Uiso   1.00
O830   O     0.55892   0.50002   0.67451   0.00000  Uiso   1.00
I831   I     0.63679   0.57431   0.67144   0.00000  Uiso   1.00
I832   I     0.62276   0.58097   0.88676   0.00000  Uiso   1.00
N833   N     0.64111   0.55550   0.99174   0.00000  Uiso   1.00
H834   H     0.66040   0.53946   0.95837   0.00000  Uiso   1.00
H835   H     0.63668   0.58662   0.98476   0.00000  Uiso   1.00
I836   I     0.39017   0.48686   0.59758   0.00000  Uiso   1.00
N837   N     0.35507   0.44550   0.50724   0.00000  Uiso   1.00
H838   H     0.66303   0.46517   0.53153   0.00000  Uiso   1.00
H839   H     0.36143   0.42088   0.52947   0.00000  Uiso   1.00
I840   I     0.50262   0.59456   0.87786   0.00000  Uiso   1.00
C841   C     0.83379   0.57929   0.74883   0.00000  Uiso   1.00
C842   C     0.80943   0.50091   0.99104   0.00000  Uiso   1.00
C843   C     0.81899   0.51362   0.93845   0.00000  Uiso   1.00
C844   C     0.84688   0.50843   0.51550   0.00000  Uiso   1.00
C845   C     0.89084   0.53119   0.98860   0.00000  Uiso   1.00
C846   C     0.89429   0.54884   0.93882   0.00000  Uiso   1.00
C847   C     0.85509   0.54382   0.91838   0.00000  Uiso   1.00
C848   C     0.84324   0.49159   0.56484   0.00000  Uiso   1.00
C849   C     0.91833   0.52369   0.56627   0.00000  Uiso   1.00
C850   C     0.79062   0.49750   0.90779   0.00000  Uiso   1.00
C851   C     0.87474   0.64593   0.75290   0.00000  Uiso   1.00
C852   C     0.80704   0.49996   0.85020   0.00000  Uiso   1.00
C853   C     0.87440   0.35511   0.75346   0.00000  Uiso   1.00
C854   C     0.83329   0.37613   0.74913   0.00000  Uiso   1.00
C855   C     0.79262   0.35425   0.74395   0.00000  Uiso   1.00
C856   C     0.79303   0.64499   0.74326   0.00000  Uiso   1.00
C857   C     0.83405   0.62397   0.74792   0.00000  Uiso   1.00
C858   C     0.98443   0.52870   0.72152   0.00000  Uiso   1.00
C859   C     0.70013   0.52871   0.72229   0.00000  Uiso   1.00
C860   C     0.68296   0.47168   0.77873   0.00000  Uiso   1.00
C861   C     0.96669   0.47177   0.77887   0.00000  Uiso   1.00
C862   C     0.83319   0.42073   0.74984   0.00000  Uiso   1.00
C863   C     0.85959   0.49937   0.64976   0.00000  Uiso   1.00
C864   C     0.92771   0.53636   0.51454   0.00000  Uiso   1.00
C865   C     0.87498   0.50353   0.59249   0.00000  Uiso   1.00
C866   C     0.74891   0.47385   0.93151   0.00000  Uiso   1.00
C867   C     0.73356   0.46755   0.98511   0.00000  Uiso   1.00
C868   C     0.76226   0.48243   0.51598   0.00000  Uiso   1.00
Cu869  Cu    0.78645   0.49999   0.75000   0.00000  Uiso   1.00
Cu870  Cu    0.88022   0.50001   0.75000   0.00000  Uiso   1.00
H871   H     0.94499   0.53061   0.58634   0.00000  Uiso   1.00
H872   H     0.90615   0.37143   0.75776   0.00000  Uiso   1.00
H873   H     0.76059   0.36995   0.74037   0.00000  Uiso   1.00
H874   H     0.76118   0.62861   0.73930   0.00000  Uiso   1.00
H875   H     0.72595   0.55129   0.69959   0.00000  Uiso   1.00
H876   H     0.69480   0.44895   0.80176   0.00000  Uiso   1.00
H877   H     0.94130   0.44914   0.80204   0.00000  Uiso   1.00
H878   H     0.81637   0.46847   0.58262   0.00000  Uiso   1.00
H879   H     0.72738   0.46067   0.90831   0.00000  Uiso   1.00
H880   H     0.90642   0.63036   0.75749   0.00000  Uiso   1.00
N881   N     0.71598   0.49999   0.74999   0.00000  Uiso   1.00
N882   N     0.95069   0.50002   0.75000   0.00000  Uiso   1.00
O883   O     0.79375   0.56011   0.75001   0.00000  Uiso   1.00
O884   O     0.87294   0.56012   0.75001   0.00000  Uiso   1.00
O885   O     0.77441   0.49998   0.82549   0.00000  Uiso   1.00
O886   O     0.85360   0.49999   0.82549   0.00000  Uiso   1.00
O887   O     0.79373   0.43988   0.75000   0.00000  Uiso   1.00
O888   O     0.87292   0.43989   0.75000   0.00000  Uiso   1.00
O889   O     0.81306   0.50001   0.67451   0.00000  Uiso   1.00
O890   O     0.89225   0.50002   0.67451   0.00000  Uiso   1.00
I891   I     0.97013   0.57431   0.67144   0.00000  Uiso   1.00
I892   I     0.95610   0.58097   0.88676   0.00000  Uiso   1.00
N893   N     0.97445   0.55550   0.99174   0.00000  Uiso   1.00
H894   H     0.99374   0.53946   0.95837   0.00000  Uiso   1.00
H895   H     0.97001   0.58662   0.98476   0.00000  Uiso   1.00
I896   I     0.72351   0.48686   0.59758   0.00000  Uiso   1.00
N897   N     0.68841   0.44550   0.50724   0.00000  Uiso   1.00
H898   H     0.99636   0.46517   0.53153   0.00000  Uiso   1.00
H899   H     0.69476   0.42088   0.52947   0.00000  Uiso   1.00
I900   I     0.83595   0.59456   0.87786   0.00000  Uiso   1.00
C901   C     0.16713   0.91262   0.74883   0.00000  Uiso   1.00
C902   C     0.14276   0.83425   0.99104   0.00000  Uiso   1.00
C903   C     0.15232   0.84695   0.93845   0.00000  Uiso   1.00
C904   C     0.18021   0.84176   0.51550   0.00000  Uiso   1.00
C905   C     0.22418   0.86453   0.98860   0.00000  Uiso   1.00
C906   C     0.22762   0.88217   0.93882   0.00000  Uiso   1.00
C907   C     0.18842   0.87715   0.91838   0.00000  Uiso   1.00
C908   C     0.17657   0.82493   0.56484   0.00000  Uiso   1.00
C909   C     0.25166   0.85703   0.56627   0.00000  Uiso   1.00
C910   C     0.12396   0.83083   0.90779   0.00000  Uiso   1.00
C911   C     0.20807   0.97926   0.75290   0.00000  Uiso   1.00
C912   C     0.14038   0.83329   0.85020   0.00000  Uiso   1.00
C913   C     0.20773   0.68845   0.75346   0.00000  Uiso   1.00
C914   C     0.16663   0.70946   0.74913   0.00000  Uiso   1.00
C915   C     0.12595   0.68758   0.74395   0.00000  Uiso   1.00
C916   C     0.12636   0.97832   0.74326   0.00000  Uiso   1.00
C917   C     0.16739   0.95730   0.74792   0.00000  Uiso   1.00
C918   C     0.31776   0.86203   0.72152   0.00000  Uiso   1.00
C919   C     0.03347   0.86204   0.72229   0.00000  Uiso   1.00
C920   C     0.01629   0.80502   0.77873   0.00000  Uiso   1.00
C921   C     0.30003   0.80511   0.77887   0.00000  Uiso   1.00
C922   C     0.16653   0.75406   0.74984   0.00000  Uiso   1.00
C923   C     0.19293   0.83270   0.64976   0.00000  Uiso   1.00
C924   C     0.26105   0.86969   0.51454   0.00000  Uiso   1.00
C925   C     0.20832   0.83686   0.59249   0.00000  Uiso   1.00
C926   C     0.08225   0.80718   0.93151   0.00000  Uiso   1.00
C927   C     0.06689   0.80089   0.98511   0.00000  Uiso   1.00
C928   C     0.09559   0.81576   0.51598   0.00000  Uiso   1.00
Cu929  Cu    0.11978   0.83333   0.75000   0.00000  Uiso   1.00
Cu930  Cu    0.21355   0.83334   0.75000   0.00000  Uiso   1.00
H931   H     0.27832   0.86394   0.58634   0.00000  Uiso   1.00
H932   H     0.23949   0.70476   0.75776   0.00000  Uiso   1.00
H933   H     0.09392   0.70329   0.74037   0.00000  Uiso   1.00
H934   H     0.09451   0.96195   0.73930   0.00000  Uiso   1.00
H935   H     0.05929   0.88462   0.69959   0.00000  Uiso   1.00
H936   H     0.02813   0.78228   0.80176   0.00000  Uiso   1.00
H937   H     0.27463   0.78247   0.80204   0.00000  Uiso   1.00
H938   H     0.14970   0.80180   0.58262   0.00000  Uiso   1.00
H939   H     0.06072   0.79401   0.90831   0.00000  Uiso   1.00
H940   H     0.23976   0.96369   0.75749   0.00000  Uiso   1.00
N941   N     0.04931   0.83332   0.74999   0.00000  Uiso   1.00
N942   N     0.28402   0.83335   0.75000   0.00000  Uiso   1.00
O943   O     0.12708   0.89345   0.75001   0.00000  Uiso   1.00
O944   O     0.20627   0.89346   0.75001   0.00000  Uiso   1.00
O945   O     0.10775   0.83332   0.82549   0.00000  Uiso   1.00
O946   O     0.18694   0.83333   0.82549   0.00000  Uiso   1.00
O947   O     0.12706   0.77321   0.75000   0.00000  Uiso   1.00
O948   O     0.20625   0.77322   0.75000   0.00000  Uiso   1.00
O949   O     0.14640   0.83334   0.67451   0.00000  Uiso   1.00
O950   O     0.22559   0.83335   0.67451   0.00000  Uiso   1.00
I951   I     0.30346   0.90765   0.67144   0.00000  Uiso   1.00
I952   I     0.28943   0.91430   0.88676   0.00000  Uiso   1.00
N953   N     0.30778   0.88884   0.99174   0.00000  Uiso   1.00
H954   H     0.32707   0.87279   0.95837   0.00000  Uiso   1.00
H955   H     0.30335   0.91995   0.98476   0.00000  Uiso   1.00
I956   I     0.05684   0.82019   0.59758   0.00000  Uiso   1.00
N957   N     0.02174   0.77883   0.50724   0.00000  Uiso   1.00
H958   H     0.32969   0.79850   0.53153   0.00000  Uiso   1.00
H959   H     0.02809   0.75422   0.52947   0.00000  Uiso   1.00
I960   I     0.16928   0.92790   0.87786   0.00000  Uiso   1.00
C961   C     0.50046   0.91262   0.74883   0.00000  Uiso   1.00
C962   C     0.47609   0.83425   0.99104   0.00000  Uiso   1.00
C963   C     0.48566   0.84695   0.93845   0.00000  Uiso   1.00
C964   C     0.51355   0.84176   0.51550   0.00000  Uiso   1.00
C965   C     0.55751   0.86453   0.98860   0.00000  Uiso   1.00
C966   C     0.56096   0.88217   0.93882   0.00000  Uiso   1.00
C967   C     0.52176   0.87715   0.91838   0.00000  Uiso   1.00
C968   C     0.50991   0.82493   0.56484   0.00000  Uiso   1.00
C969   C     0.58499   0.85703   0.56627   0.00000  Uiso   1.00
C970   C     0.45729   0.83083   0.90779   0.00000  Uiso   1.00
C971   C     0.54141   0.97926   0.75290   0.00000  Uiso   1.00
C972   C     0.47371   0.83329   0.85020   0.00000  Uiso   1.00
C973   C     0.54106   0.68845   0.75346   0.00000  Uiso   1.00
C974   C     0.49996   0.70946   0.74913   0.00000  Uiso   1.00
C975   C     0.45929   0.68758   0.74395   0.00000  Uiso   1.00
C976   C     0.45969   0.97832   0.74326   0.00000  Uiso   1.00
C977   C     0.50072   0.95730   0.74792   0.00000  Uiso   1.00
C978   C     0.65110   0.86203   0.72152   0.00000  Uiso   1.00
C979   C     0.36680   0.86204   0.72229   0.00000  Uiso   1.00
C980   C     0.34963   0.80502   0.77873   0.00000  Uiso   1.00
C981   C     0.63336   0.80511   0.77887   0.00000  Uiso   1.00
C982   C     0.49986   0.75406   0.74984   0.00000  Uiso   1.00
C983   C     0.52626   0.83270   0.64976   0.00000  Uiso   1.00
C984   C     0.59438   0.86969   0.51454   0.00000  Uiso   1.00
C985   C     0.54165   0.83686   0.59249   0.00000  Uiso   1.00
C986   C     0.41558   0.80718   0.93151   0.00000  Uiso   1.00
C987   C     0.40023   0.80089   0.98511   0.00000  Uiso   1.00
C988   C     0.42892   0.81576   0.51598   0.00000  Uiso   1.00
Cu989  Cu    0.45311   0.83333   0.75000   0.00000  Uiso   1.00
Cu990  Cu    0.54689   0.83334   0.75000   0.00000  Uiso   1.00
H991   H     0.61166   0.86394   0.58634   0.00000  Uiso   1.00
H992   H     0.57282   0.70476   0.75776   0.00000  Uiso   1.00
H993   H     0.42725   0.70329   0.74037   0.00000  Uiso   1.00
H994   H     0.42785   0.96195   0.73930   0.00000  Uiso   1.00
H995   H     0.39262   0.88462   0.69959   0.00000  Uiso   1.00
H996   H     0.36147   0.78228   0.80176   0.00000  Uiso   1.00
H997   H     0.60797   0.78247   0.80204   0.00000  Uiso   1.00
H998   H     0.48303   0.80180   0.58262   0.00000  Uiso   1.00
H999   H     0.39405   0.79401   0.90831   0.00000  Uiso   1.00
H1000  H     0.57309   0.96369   0.75749   0.00000  Uiso   1.00
N1001  N     0.38265   0.83332   0.74999   0.00000  Uiso   1.00
N1002  N     0.61735   0.83335   0.75000   0.00000  Uiso   1.00
O1003  O     0.46042   0.89345   0.75001   0.00000  Uiso   1.00
O1004  O     0.53961   0.89346   0.75001   0.00000  Uiso   1.00
O1005  O     0.44108   0.83332   0.82549   0.00000  Uiso   1.00
O1006  O     0.52027   0.83333   0.82549   0.00000  Uiso   1.00
O1007  O     0.46039   0.77321   0.75000   0.00000  Uiso   1.00
O1008  O     0.53958   0.77322   0.75000   0.00000  Uiso   1.00
O1009  O     0.47973   0.83334   0.67451   0.00000  Uiso   1.00
O1010  O     0.55892   0.83335   0.67451   0.00000  Uiso   1.00
I1011  I     0.63679   0.90765   0.67144   0.00000  Uiso   1.00
I1012  I     0.62276   0.91430   0.88676   0.00000  Uiso   1.00
N1013  N     0.64111   0.88884   0.99174   0.00000  Uiso   1.00
H1014  H     0.66040   0.87279   0.95837   0.00000  Uiso   1.00
H1015  H     0.63668   0.91995   0.98476   0.00000  Uiso   1.00
I1016  I     0.39017   0.82019   0.59758   0.00000  Uiso   1.00
N1017  N     0.35507   0.77883   0.50724   0.00000  Uiso   1.00
H1018  H     0.66303   0.79850   0.53153   0.00000  Uiso   1.00
H1019  H     0.36143   0.75422   0.52947   0.00000  Uiso   1.00
I1020  I     0.50262   0.92790   0.87786   0.00000  Uiso   1.00
C1021  C     0.83379   0.91262   0.74883   0.00000  Uiso   1.00
C1022  C     0.80943   0.83425   0.99104   0.00000  Uiso   1.00
C1023  C     0.81899   0.84695   0.93845   0.00000  Uiso   1.00
C1024  C     0.84688   0.84176   0.51550   0.00000  Uiso   1.00
C1025  C     0.89084   0.86453   0.98860   0.00000  Uiso   1.00
C1026  C     0.89429   0.88217   0.93882   0.00000  Uiso   1.00
C1027  C     0.85509   0.87715   0.91838   0.00000  Uiso   1.00
C1028  C     0.84324   0.82493   0.56484   0.00000  Uiso   1.00
C1029  C     0.91833   0.85703   0.56627   0.00000  Uiso   1.00
C1030  C     0.79062   0.83083   0.90779   0.00000  Uiso   1.00
C1031  C     0.87474   0.97926   0.75290   0.00000  Uiso   1.00
C1032  C     0.80704   0.83329   0.85020   0.00000  Uiso   1.00
C1033  C     0.87440   0.68845   0.75346   0.00000  Uiso   1.00
C1034  C     0.83329   0.70946   0.74913   0.00000  Uiso   1.00
C1035  C     0.79262   0.68758   0.74395   0.00000  Uiso   1.00
C1036  C     0.79303   0.97832   0.74326   0.00000  Uiso   1.00
C1037  C     0.83405   0.95730   0.74792   0.00000  Uiso   1.00
C1038  C     0.98443   0.86203   0.72152   0.00000  Uiso   1.00
C1039  C     0.70013   0.86204   0.72229   0.00000  Uiso   1.00
C1040  C     0.68296   0.80502   0.77873   0.00000  Uiso   1.00
C1041  C     0.96669   0.80511   0.77887   0.00000  Uiso   1.00
C1042  C     0.83319   0.75406   0.74984   0.00000  Uiso   1.00
C1043  C     0.85959   0.83270   0.64976   0.00000  Uiso   1.00
C1044  C     0.92771   0.86969   0.51454   0.00000  Uiso   1.00
C1045  C     0.87498   0.83686   0.59249   0.00000  Uiso   1.00
C1046  C     0.74891   0.80718   0.93151   0.00000  Uiso   1.00
C1047  C     0.73356   0.80089   0.98511   0.00000  Uiso   1.00
C1048  C     0.76226   0.81576   0.51598   0.00000  Uiso   1.00
Cu1049 Cu    0.78645   0.83333   0.75000   0.00000  Uiso   1.00
Cu1050 Cu    0.88022   0.83334   0.75000   0.00000  Uiso   1.00
H1051  H     0.94499   0.86394   0.58634   0.00000  Uiso   1.00
H1052  H     0.90615   0.70476   0.75776   0.00000  Uiso   1.00
H1053  H     0.76059   0.70329   0.74037   0.00000  Uiso   1.00
H1054  H     0.76118   0.96195   0.73930   0.00000  Uiso   1.00
H1055  H     0.72595   0.88462   0.69959   0.00000  Uiso   1.00
H1056  H     0.69480   0.78228   0.80176   0.00000  Uiso   1.00
H1057  H     0.94130   0.78247   0.80204   0.00000  Uiso   1.00
H1058  H     0.81637   0.80180   0.58262   0.00000  Uiso   1.00
H1059  H     0.72738   0.79401   0.90831   0.00000  Uiso   1.00
H1060  H     0.90642   0.96369   0.75749   0.00000  Uiso   1.00
N1061  N     0.71598   0.83332   0.74999   0.00000  Uiso   1.00
N1062  N     0.95069   0.83335   0.75000   0.00000  Uiso   1.00
O1063  O     0.79375   0.89345   0.75001   0.00000  Uiso   1.00
O1064  O     0.87294   0.89346   0.75001   0.00000  Uiso   1.00
O1065  O     0.77441   0.83332   0.82549   0.00000  Uiso   1.00
O1066  O     0.85360   0.83333   0.82549   0.00000  Uiso   1.00
O1067  O     0.79373   0.77321   0.75000   0.00000  Uiso   1.00
O1068  O     0.87292   0.77322   0.75000   0.00000  Uiso   1.00
O1069  O     0.81306   0.83334   0.67451   0.00000  Uiso   1.00
O1070  O     0.89225   0.83335   0.67451   0.00000  Uiso   1.00
I1071  I     0.97013   0.90765   0.67144   0.00000  Uiso   1.00
I1072  I     0.95610   0.91430   0.88676   0.00000  Uiso   1.00
N1073  N     0.97445   0.88884   0.99174   0.00000  Uiso   1.00
H1074  H     0.99374   0.87279   0.95837   0.00000  Uiso   1.00
H1075  H     0.97001   0.91995   0.98476   0.00000  Uiso   1.00
I1076  I     0.72351   0.82019   0.59758   0.00000  Uiso   1.00
N1077  N     0.68841   0.77883   0.50724   0.00000  Uiso   1.00
H1078  H     0.99636   0.79850   0.53153   0.00000  Uiso   1.00
H1079  H     0.69476   0.75422   0.52947   0.00000  Uiso   1.00
I1080  I     0.83595   0.92790   0.87786   0.00000  Uiso   1.00
loop_
_geom_bond_atom_site_label_1
_geom_bond_atom_site_label_2
_geom_bond_distance
_geom_bond_site_symmetry_2
_ccdc_geom_bond_type
C1     C17     1.452   .     S
C1     O44     1.297   .     A
C1     O43     1.291   .     A
C2     C3      1.413   .     A
C2     C544    1.434   .     S
C2     C568    1.439   .     S
C3     C10     1.415   .     A
C3     C7      1.401   .     A
C4     C8      1.404   .     A
C4     C542    1.434   1_554 S
C4     C545    1.443   1_554 S
C5     C6      1.427   .     A
C5     C544    1.443   .     S
C5     C564    1.436   .     S
C6     C7      1.397   .     A
C6     I52     2.154   .     S
C7     I60     2.136   .     S
C8     C25     1.387   .     A
C8     H38     1.072   .     S
C9     C24     1.391   .     A
C9     C25     1.385   .     A
C9     H31     1.080   .     S
C10    C26     1.394   .     A
C10    C12     1.475   .     S
C11    H40     1.082   .     S
C11    C17     1.400   .     A
C11    C193    1.382   .     S
C12    O46     1.299   .     A
C12    O45     1.297   .     A
C13    H32     1.083   .     S
C13    C14     1.401   .     A
C13    C371    1.382   1_545 S
C14    C22     1.449   .     S
C14    C15     1.400   .     A
C15    H33     1.083   .     S
C15    C376    1.384   1_545 S
C16    C17     1.403   .     A
C16    H34     1.083   .     S
C16    C195    1.384   .     S
C18    I51     2.121   .     S
C18    N42     1.385   .     A
C18    C79     1.410   .     S
C19    N41     1.355   .     A
C19    H35     1.082   .     S
C19    C138    1.410   1_455 S
C20    N41     1.369   .     A
C20    H36     1.082   .     S
C20    C141    1.419   1_455 S
C21    H37     1.082   .     S
C21    N42     1.367   .     A
C21    C80     1.419   .     S
C22    O48     1.292   .     A
C22    O47     1.295   .     A
C23    O49     1.299   .     A
C23    C25     1.470   .     S
C23    O50     1.299   .     A
C24    C545    1.436   1_554 S
C24    N593    1.428   1_554 S
C26    C27     1.385   .     A
C26    H39     1.084   .     S
C27    C568    1.413   .     S
C27    N597    1.433   .     S
C28    I56     2.142   .     S
C28    C567    1.413   1_554 S
C28    C542    1.439   1_554 S
Cu29   N41     2.018   .     S
Cu29   O49     1.937   .     S
Cu29   O43     1.962   .     S
Cu29   Cu30    2.685   .     S
Cu29   O47     1.967   .     S
Cu29   O45     1.949   .     S
Cu30   O48     1.962   .     S
Cu30   O46     1.937   .     S
Cu30   O44     1.967   .     S
Cu30   O50     1.949   .     S
Cu30   N42     2.018   .     S
N53    H55     1.044   .     S
N53    H54     1.044   .     S
N53    C564    1.428   .     S
N57    H59     1.045   .     S
N57    C567    1.433   1_554 S
N57    H178    1.044   1_455 S
H58    N117    1.044   .     S
C61    C77     1.452   .     S
C61    O104    1.297   .     A
C61    O103    1.291   .     A
C62    C63     1.413   .     A
C62    C604    1.434   .     S
C62    C628    1.439   .     S
C63    C70     1.415   .     A
C63    C67     1.401   .     A
C64    C68     1.404   .     A
C64    C602    1.434   1_554 S
C64    C605    1.443   1_554 S
C65    C66     1.427   .     A
C65    C604    1.443   .     S
C65    C624    1.436   .     S
C66    C67     1.397   .     A
C66    I112    2.154   .     S
C67    I120    2.136   .     S
C68    C85     1.387   .     A
C68    H98     1.072   .     S
C69    C84     1.391   .     A
C69    C85     1.385   .     A
C69    H91     1.080   .     S
C70    C86     1.394   .     A
C70    C72     1.475   .     S
C71    H100    1.082   .     S
C71    C77     1.400   .     A
C71    C253    1.382   .     S
C72    O106    1.299   .     A
C72    O105    1.297   .     A
C73    H92     1.083   .     S
C73    C74     1.401   .     A
C73    C431    1.382   1_545 S
C74    C82     1.449   .     S
C74    C75     1.400   .     A
C75    H93     1.083   .     S
C75    C436    1.384   1_545 S
C76    C77     1.403   .     A
C76    H94     1.083   .     S
C76    C255    1.384   .     S
C78    I111    2.121   .     S
C78    N102    1.385   .     A
C78    C139    1.410   .     S
C79    N101    1.355   .     A
C79    H95     1.082   .     S
C80    N101    1.369   .     A
C80    H96     1.082   .     S
C81    H97     1.082   .     S
C81    N102    1.367   .     A
C81    C140    1.419   .     S
C82    O108    1.292   .     A
C82    O107    1.295   .     A
C83    O109    1.299   .     A
C83    C85     1.470   .     S
C83    O110    1.299   .     A
C84    C605    1.436   1_554 S
C84    N653    1.428   1_554 S
C86    C87     1.385   .     A
C86    H99     1.084   .     S
C87    C628    1.413   .     S
C87    N657    1.433   .     S
C88    I116    2.142   .     S
C88    C627    1.413   1_554 S
C88    C602    1.439   1_554 S
Cu89   N101    2.018   .     S
Cu89   O109    1.937   .     S
Cu89   O103    1.962   .     S
Cu89   Cu90    2.685   .     S
Cu89   O107    1.967   .     S
Cu89   O105    1.949   .     S
Cu90   O108    1.962   .     S
Cu90   O106    1.937   .     S
Cu90   O104    1.967   .     S
Cu90   O110    1.949   .     S
Cu90   N102    2.018   .     S
N113   H115    1.044   .     S
N113   H114    1.044   .     S
N113   C624    1.428   .     S
N117   H119    1.045   .     S
N117   C627    1.433   1_554 S
H118   N177    1.044   .     S
C121   C137    1.452   .     S
C121   O164    1.297   .     A
C121   O163    1.291   .     A
C122   C123    1.413   .     A
C122   C664    1.434   .     S
C122   C688    1.439   .     S
C123   C130    1.415   .     A
C123   C127    1.401   .     A
C124   C128    1.404   .     A
C124   C662    1.434   1_554 S
C124   C665    1.443   1_554 S
C125   C126    1.427   .     A
C125   C664    1.443   .     S
C125   C684    1.436   .     S
C126   C127    1.397   .     A
C126   I172    2.154   .     S
C127   I180    2.136   .     S
C128   C145    1.387   .     A
C128   H158    1.072   .     S
C129   C144    1.391   .     A
C129   C145    1.385   .     A
C129   H151    1.080   .     S
C130   C146    1.394   .     A
C130   C132    1.475   .     S
C131   H160    1.082   .     S
C131   C137    1.400   .     A
C131   C313    1.382   .     S
C132   O166    1.299   .     A
C132   O165    1.297   .     A
C133   H152    1.083   .     S
C133   C134    1.401   .     A
C133   C491    1.382   1_545 S
C134   C142    1.449   .     S
C134   C135    1.400   .     A
C135   H153    1.083   .     S
C135   C496    1.384   1_545 S
C136   C137    1.403   .     A
C136   H154    1.083   .     S
C136   C315    1.384   .     S
C138   I171    2.121   .     S
C138   N162    1.385   .     A
C138   C19     1.410   1_655 S
C139   N161    1.355   .     A
C139   H155    1.082   .     S
C140   N161    1.369   .     A
C140   H156    1.082   .     S
C141   H157    1.082   .     S
C141   N162    1.367   .     A
C141   C20     1.419   1_655 S
C142   O168    1.292   .     A
C142   O167    1.295   .     A
C143   O169    1.299   .     A
C143   C145    1.470   .     S
C143   O170    1.299   .     A
C144   C665    1.436   1_554 S
C144   N713    1.428   1_554 S
C146   C147    1.385   .     A
C146   H159    1.084   .     S
C147   C688    1.413   .     S
C147   N717    1.433   .     S
C148   I176    2.142   .     S
C148   C687    1.413   1_554 S
C148   C662    1.439   1_554 S
Cu149  N161    2.018   .     S
Cu149  O169    1.937   .     S
Cu149  O163    1.962   .     S
Cu149  Cu150   2.685   .     S
Cu149  O167    1.967   .     S
Cu149  O165    1.949   .     S
Cu150  O168    1.962   .     S
Cu150  O166    1.937   .     S
Cu150  O164    1.967   .     S
Cu150  O170    1.949   .     S
Cu150  N162    2.018   .     S
N173   H175    1.044   .     S
N173   H174    1.044   .     S
N173   C684    1.428   .     S
N177   H179    1.045   .     S
N177   C687    1.433   1_554 S
H178   N57     1.044   1_655 S
C181   C197    1.452   .     S
C181   O224    1.297   .     A
C181   O223    1.291   .     A
C182   C183    1.413   .     A
C182   C724    1.434   .     S
C182   C748    1.439   .     S
C183   C190    1.415   .     A
C183   C187    1.401   .     A
C184   C188    1.404   .     A
C184   C722    1.434   1_554 S
C184   C725    1.443   1_554 S
C185   C186    1.427   .     A
C185   C724    1.443   .     S
C185   C744    1.436   .     S
C186   C187    1.397   .     A
C186   I232    2.154   .     S
C187   I240    2.136   .     S
C188   C205    1.387   .     A
C188   H218    1.072   .     S
C189   C204    1.391   .     A
C189   C205    1.385   .     A
C189   H211    1.080   .     S
C190   C206    1.394   .     A
C190   C192    1.475   .     S
C191   H220    1.082   .     S
C191   C197    1.400   .     A
C191   C373    1.382   .     S
C192   O226    1.299   .     A
C192   O225    1.297   .     A
C193   H212    1.083   .     S
C193   C194    1.401   .     A
C194   C202    1.449   .     S
C194   C195    1.400   .     A
C195   H213    1.083   .     S
C196   C197    1.403   .     A
C196   H214    1.083   .     S
C196   C375    1.384   .     S
C198   I231    2.121   .     S
C198   N222    1.385   .     A
C198   C259    1.410   .     S
C199   N221    1.355   .     A
C199   H215    1.082   .     S
C199   C318    1.410   1_455 S
C200   N221    1.369   .     A
C200   H216    1.082   .     S
C200   C321    1.419   1_455 S
C201   H217    1.082   .     S
C201   N222    1.367   .     A
C201   C260    1.419   .     S
C202   O228    1.292   .     A
C202   O227    1.295   .     A
C203   O229    1.299   .     A
C203   C205    1.470   .     S
C203   O230    1.299   .     A
C204   C725    1.436   1_554 S
C204   N773    1.428   1_554 S
C206   C207    1.385   .     A
C206   H219    1.084   .     S
C207   C748    1.413   .     S
C207   N777    1.433   .     S
C208   I236    2.142   .     S
C208   C747    1.413   1_554 S
C208   C722    1.439   1_554 S
Cu209  N221    2.018   .     S
Cu209  O229    1.937   .     S
Cu209  O223    1.962   .     S
Cu209  Cu210   2.685   .     S
Cu209  O227    1.967   .     S
Cu209  O225    1.949   .     S
Cu210  O228    1.962   .     S
Cu210  O226    1.937   .     S
Cu210  O224    1.967   .     S
Cu210  O230    1.949   .     S
Cu210  N222    2.018   .     S
N233   H235    1.044   .     S
N233   H234    1.044   .     S
N233   C744    1.428   .     S
N237   H239    1.045   .     S
N237   C747    1.433   1_554 S
N237   H358    1.044   1_455 S
H238   N297    1.044   .     S
C241   C257    1.452   .     S
C241   O284    1.297   .     A
C241   O283    1.291   .     A
C242   C243    1.413   .     A
C242   C784    1.434   .     S
C242   C808    1.439   .     S
C243   C250    1.415   .     A
C243   C247    1.401   .     A
C244   C248    1.404   .     A
C244   C782    1.434   1_554 S
C244   C785    1.443   1_554 S
C245   C246    1.427   .     A
C245   C784    1.443   .     S
C245   C804    1.436   .     S
C246   C247    1.397   .     A
C246   I292    2.154   .     S
C247   I300    2.136   .     S
C248   C265    1.387   .     A
C248   H278    1.072   .     S
C249   C264    1.391   .     A
C249   C265    1.385   .     A
C249   H271    1.080   .     S
C250   C266    1.394   .     A
C250   C252    1.475   .     S
C251   H280    1.082   .     S
C251   C257    1.400   .     A
C251   C433    1.382   .     S
C252   O286    1.299   .     A
C252   O285    1.297   .     A
C253   H272    1.083   .     S
C253   C254    1.401   .     A
C254   C262    1.449   .     S
C254   C255    1.400   .     A
C255   H273    1.083   .     S
C256   C257    1.403   .     A
C256   H274    1.083   .     S
C256   C435    1.384   .     S
C258   I291    2.121   .     S
C258   N282    1.385   .     A
C258   C319    1.410   .     S
C259   N281    1.355   .     A
C259   H275    1.082   .     S
C260   N281    1.369   .     A
C260   H276    1.082   .     S
C261   H277    1.082   .     S
C261   N282    1.367   .     A
C261   C320    1.419   .     S
C262   O288    1.292   .     A
C262   O287    1.295   .     A
C263   O289    1.299   .     A
C263   C265    1.470   .     S
C263   O290    1.299   .     A
C264   C785    1.436   1_554 S
C264   N833    1.428   1_554 S
C266   C267    1.385   .     A
C266   H279    1.084   .     S
C267   C808    1.413   .     S
C267   N837    1.433   .     S
C268   I296    2.142   .     S
C268   C807    1.413   1_554 S
C268   C782    1.439   1_554 S
Cu269  N281    2.018   .     S
Cu269  O289    1.937   .     S
Cu269  O283    1.962   .     S
Cu269  Cu270   2.685   .     S
Cu269  O287    1.967   .     S
Cu269  O285    1.949   .     S
Cu270  O288    1.962   .     S
Cu270  O286    1.937   .     S
Cu270  O284    1.967   .     S
Cu270  O290    1.949   .     S
Cu270  N282    2.018   .     S
N293   H295    1.044   .     S
N293   H294    1.044   .     S
N293   C804    1.428   .     S
N297   H299    1.045   .     S
N297   C807    1.433   1_554 S
H298   N357    1.044   .     S
C301   C317    1.452   .     S
C301   O344    1.297   .     A
C301   O343    1.291   .     A
C302   C303    1.413   .     A
C302   C844    1.434   .     S
C302   C868    1.439   .     S
C303   C310    1.415   .     A
C303   C307    1.401   .     A
C304   C308    1.404   .     A
C304   C842    1.434   1_554 S
C304   C845    1.443   1_554 S
C305   C306    1.427   .     A
C305   C844    1.443   .     S
C305   C864    1.436   .     S
C306   C307    1.397   .     A
C306   I352    2.154   .     S
C307   I360    2.136   .     S
C308   C325    1.387   .     A
C308   H338    1.072   .     S
C309   C324    1.391   .     A
C309   C325    1.385   .     A
C309   H331    1.080   .     S
C310   C326    1.394   .     A
C310   C312    1.475   .     S
C311   H340    1.082   .     S
C311   C317    1.400   .     A
C311   C493    1.382   .     S
C312   O346    1.299   .     A
C312   O345    1.297   .     A
C313   H332    1.083   .     S
C313   C314    1.401   .     A
C314   C322    1.449   .     S
C314   C315    1.400   .     A
C315   H333    1.083   .     S
C316   C317    1.403   .     A
C316   H334    1.083   .     S
C316   C495    1.384   .     S
C318   I351    2.121   .     S
C318   N342    1.385   .     A
C318   C199    1.410   1_655 S
C319   N341    1.355   .     A
C319   H335    1.082   .     S
C320   N341    1.369   .     A
C320   H336    1.082   .     S
C321   H337    1.082   .     S
C321   N342    1.367   .     A
C321   C200    1.419   1_655 S
C322   O348    1.292   .     A
C322   O347    1.295   .     A
C323   O349    1.299   .     A
C323   C325    1.470   .     S
C323   O350    1.299   .     A
C324   C845    1.436   1_554 S
C324   N893    1.428   1_554 S
C326   C327    1.385   .     A
C326   H339    1.084   .     S
C327   C868    1.413   .     S
C327   N897    1.433   .     S
C328   I356    2.142   .     S
C328   C867    1.413   1_554 S
C328   C842    1.439   1_554 S
Cu329  N341    2.018   .     S
Cu329  O349    1.937   .     S
Cu329  O343    1.962   .     S
Cu329  Cu330   2.685   .     S
Cu329  O347    1.967   .     S
Cu329  O345    1.949   .     S
Cu330  O348    1.962   .     S
Cu330  O346    1.937   .     S
Cu330  O344    1.967   .     S
Cu330  O350    1.949   .     S
Cu330  N342    2.018   .     S
N353   H355    1.044   .     S
N353   H354    1.044   .     S
N353   C864    1.428   .     S
N357   H359    1.045   .     S
N357   C867    1.433   1_554 S
H358   N237    1.044   1_655 S
C361   C377    1.452   .     S
C361   O404    1.297   .     A
C361   O403    1.291   .     A
C362   C363    1.413   .     A
C362   C904    1.434   .     S
C362   C928    1.439   .     S
C363   C370    1.415   .     A
C363   C367    1.401   .     A
C364   C368    1.404   .     A
C364   C902    1.434   1_554 S
C364   C905    1.443   1_554 S
C365   C366    1.427   .     A
C365   C904    1.443   .     S
C365   C924    1.436   .     S
C366   C367    1.397   .     A
C366   I412    2.154   .     S
C367   I420    2.136   .     S
C368   C385    1.387   .     A
C368   H398    1.072   .     S
C369   C384    1.391   .     A
C369   C385    1.385   .     A
C369   H391    1.080   .     S
C370   C386    1.394   .     A
C370   C372    1.475   .     S
C371   H400    1.082   .     S
C371   C377    1.400   .     A
C371   C13     1.382   1_565 S
C372   O406    1.299   .     A
C372   O405    1.297   .     A
C373   H392    1.083   .     S
C373   C374    1.401   .     A
C374   C382    1.449   .     S
C374   C375    1.400   .     A
C375   H393    1.083   .     S
C376   C377    1.403   .     A
C376   H394    1.083   .     S
C376   C15     1.384   1_565 S
C378   I411    2.121   .     S
C378   N402    1.385   .     A
C378   C439    1.410   .     S
C379   N401    1.355   .     A
C379   H395    1.082   .     S
C379   C498    1.410   1_455 S
C380   N401    1.369   .     A
C380   H396    1.082   .     S
C380   C501    1.419   1_455 S
C381   H397    1.082   .     S
C381   N402    1.367   .     A
C381   C440    1.419   .     S
C382   O408    1.292   .     A
C382   O407    1.295   .     A
C383   O409    1.299   .     A
C383   C385    1.470   .     S
C383   O410    1.299   .     A
C384   C905    1.436   1_554 S
C384   N953    1.428   1_554 S
C386   C387    1.385   .     A
C386   H399    1.084   .     S
C387   C928    1.413   .     S
C387   N957    1.433   .     S
C388   I416    2.142   .     S
C388   C927    1.413   1_554 S
C388   C902    1.439   1_554 S
Cu389  N401    2.018   .     S
Cu389  O409    1.937   .     S
Cu389  O403    1.962   .     S
Cu389  Cu390   2.685   .     S
Cu389  O407    1.967   .     S
Cu389  O405    1.949   .     S
Cu390  O408    1.962   .     S
Cu390  O406    1.937   .     S
Cu390  O404    1.967   .     S
Cu390  O410    1.949   .     S
Cu390  N402    2.018   .     S
N413   H415    1.044   .     S
N413   H414    1.044   .     S
N413   C924    1.428   .     S
N417   H419    1.045   .     S
N417   C927    1.433   1_554 S
N417   H538    1.044   1_455 S
H418   N477    1.044   .     S
C421   C437    1.452   .     S
C421   O464    1.297   .     A
C421   O463    1.291   .     A
C422   C423    1.413   .     A
C422   C964    1.434   .     S
C422   C988    1.439   .     S
C423   C430    1.415   .     A
C423   C427    1.401   .     A
C424   C428    1.404   .     A
C424   C962    1.434   1_554 S
C424   C965    1.443   1_554 S
C425   C426    1.427   .     A
C425   C964    1.443   .     S
C425   C984    1.436   .     S
C426   C427    1.397   .     A
C426   I472    2.154   .     S
C427   I480    2.136   .     S
C428   C445    1.387   .     A
C428   H458    1.072   .     S
C429   C444    1.391   .     A
C429   C445    1.385   .     A
C429   H451    1.080   .     S
C430   C446    1.394   .     A
C430   C432    1.475   .     S
C431   H460    1.082   .     S
C431   C437    1.400   .     A
C431   C73     1.382   1_565 S
C432   O466    1.299   .     A
C432   O465    1.297   .     A
C433   H452    1.083   .     S
C433   C434    1.401   .     A
C434   C442    1.449   .     S
C434   C435    1.400   .     A
C435   H453    1.083   .     S
C436   C437    1.403   .     A
C436   H454    1.083   .     S
C436   C75     1.384   1_565 S
C438   I471    2.121   .     S
C438   N462    1.385   .     A
C438   C499    1.410   .     S
C439   N461    1.355   .     A
C439   H455    1.082   .     S
C440   N461    1.369   .     A
C440   H456    1.082   .     S
C441   H457    1.082   .     S
C441   N462    1.367   .     A
C441   C500    1.419   .     S
C442   O468    1.292   .     A
C442   O467    1.295   .     A
C443   O469    1.299   .     A
C443   C445    1.470   .     S
C443   O470    1.299   .     A
C444   C965    1.436   1_554 S
C444   N1013   1.428   1_554 S
C446   C447    1.385   .     A
C446   H459    1.084   .     S
C447   C988    1.413   .     S
C447   N1017   1.433   .     S
C448   I476    2.142   .     S
C448   C987    1.413   1_554 S
C448   C962    1.439   1_554 S
Cu449  N461    2.018   .     S
Cu449  O469    1.937   .     S
Cu449  O463    1.962   .     S
Cu449  Cu450   2.685   .     S
Cu449  O467    1.967   .     S
Cu449  O465    1.949   .     S
Cu450  O468    1.962   .     S
Cu450  O466    1.937   .     S
Cu450  O464    1.967   .     S
Cu450  O470    1.949   .     S
Cu450  N462    2.018   .     S
N473   H475    1.044   .     S
N473   H474    1.044   .     S
N473   C984    1.428   .     S
N477   H479    1.045   .     S
N477   C987    1.433   1_554 S
H478   N537    1.044   .     S
C481   C497    1.452   .     S
C481   O524    1.297   .     A
C481   O523    1.291   .     A
C482   C483    1.413   .     A
C482   C1024   1.434   .     S
C482   C1048   1.439   .     S
C483   C490    1.415   .     A
C483   C487    1.401   .     A
C484   C488    1.404   .     A
C484   C1022   1.434   1_554 S
C484   C1025   1.443   1_554 S
C485   C486    1.427   .     A
C485   C1024   1.443   .     S
C485   C1044   1.436   .     S
C486   C487    1.397   .     A
C486   I532    2.154   .     S
C487   I540    2.136   .     S
C488   C505    1.387   .     A
C488   H518    1.072   .     S
C489   C504    1.391   .     A
C489   C505    1.385   .     A
C489   H511    1.080   .     S
C490   C506    1.394   .     A
C490   C492    1.475   .     S
C491   H520    1.082   .     S
C491   C497    1.400   .     A
C491   C133    1.382   1_565 S
C492   O526    1.299   .     A
C492   O525    1.297   .     A
C493   H512    1.083   .     S
C493   C494    1.401   .     A
C494   C502    1.449   .     S
C494   C495    1.400   .     A
C495   H513    1.083   .     S
C496   C497    1.403   .     A
C496   H514    1.083   .     S
C496   C135    1.384   1_565 S
C498   I531    2.121   .     S
C498   N522    1.385   .     A
C498   C379    1.410   1_655 S
C499   N521    1.355   .     A
C499   H515    1.082   .     S
C500   N521    1.369   .     A
C500   H516    1.082   .     S
C501   H517    1.082   .     S
C501   N522    1.367   .     A
C501   C380    1.419   1_655 S
C502   O528    1.292   .     A
C502   O527    1.295   .     A
C503   O529    1.299   .     A
C503   C505    1.470   .     S
C503   O530    1.299   .     A
C504   C1025   1.436   1_554 S
C504   N1073   1.428   1_554 S
C506   C507    1.385   .     A
C506   H519    1.084   .     S
C507   C1048   1.413   .     S
C507   N1077   1.433   .     S
C508   I536    2.142   .     S
C508   C1047   1.413   1_554 S
C508   C1022   1.439   1_554 S
Cu509  N521    2.018   .     S
Cu509  O529    1.937   .     S
Cu509  O523    1.962   .     S
Cu509  Cu510   2.685   .     S
Cu509  O527    1.967   .     S
Cu509  O525    1.949   .     S
Cu510  O528    1.962   .     S
Cu510  O526    1.937   .     S
Cu510  O524    1.967   .     S
Cu510  O530    1.949   .     S
Cu510  N522    2.018   .     S
N533   H535    1.044   .     S
N533   H534    1.044   .     S
N533   C1044   1.428   .     S
N537   H539    1.045   .     S
N537   C1047   1.433   1_554 S
H538   N417    1.044   1_655 S
C541   C557    1.452   .     S
C541   O584    1.297   .     A
C541   O583    1.291   .     A
C542   C543    1.413   .     A
C542   C4      1.434   1_556 S
C542   C28     1.439   1_556 S
C543   C550    1.415   .     A
C543   C547    1.401   .     A
C544   C548    1.404   .     A
C545   C546    1.427   .     A
C545   C4      1.443   1_556 S
C545   C24     1.436   1_556 S
C546   C547    1.397   .     A
C546   I592    2.154   .     S
C547   I600    2.136   .     S
C548   C565    1.387   .     A
C548   H578    1.072   .     S
C549   C564    1.391   .     A
C549   C565    1.385   .     A
C549   H571    1.080   .     S
C550   C566    1.394   .     A
C550   C552    1.475   .     S
C551   H580    1.082   .     S
C551   C557    1.400   .     A
C551   C733    1.382   .     S
C552   O586    1.299   .     A
C552   O585    1.297   .     A
C553   H572    1.083   .     S
C553   C554    1.401   .     A
C553   C911    1.382   1_545 S
C554   C562    1.449   .     S
C554   C555    1.400   .     A
C555   H573    1.083   .     S
C555   C916    1.384   1_545 S
C556   C557    1.403   .     A
C556   H574    1.083   .     S
C556   C735    1.384   .     S
C558   I591    2.121   .     S
C558   N582    1.385   .     A
C558   C619    1.410   .     S
C559   N581    1.355   .     A
C559   H575    1.082   .     S
C559   C678    1.410   1_455 S
C560   N581    1.369   .     A
C560   H576    1.082   .     S
C560   C681    1.419   1_455 S
C561   H577    1.082   .     S
C561   N582    1.367   .     A
C561   C620    1.419   .     S
C562   O588    1.292   .     A
C562   O587    1.295   .     A
C563   O589    1.299   .     A
C563   C565    1.470   .     S
C563   O590    1.299   .     A
C566   C567    1.385   .     A
C566   H579    1.084   .     S
C567   C28     1.413   1_556 S
C567   N57     1.433   1_556 S
C568   I596    2.142   .     S
Cu569  N581    2.018   .     S
Cu569  O589    1.937   .     S
Cu569  O583    1.962   .     S
Cu569  Cu570   2.685   .     S
Cu569  O587    1.967   .     S
Cu569  O585    1.949   .     S
Cu570  O588    1.962   .     S
Cu570  O586    1.937   .     S
Cu570  O584    1.967   .     S
Cu570  O590    1.949   .     S
Cu570  N582    2.018   .     S
N593   H595    1.044   .     S
N593   H594    1.044   .     S
N593   C24     1.428   1_556 S
N597   H599    1.045   .     S
N597   H718    1.044   1_455 S
H598   N657    1.044   .     S
C601   C617    1.452   .     S
C601   O644    1.297   .     A
C601   O643    1.291   .     A
C602   C603    1.413   .     A
C602   C64     1.434   1_556 S
C602   C88     1.439   1_556 S
C603   C610    1.415   .     A
C603   C607    1.401   .     A
C604   C608    1.404   .     A
C605   C606    1.427   .     A
C605   C64     1.443   1_556 S
C605   C84     1.436   1_556 S
C606   C607    1.397   .     A
C606   I652    2.154   .     S
C607   I660    2.136   .     S
C608   C625    1.387   .     A
C608   H638    1.072   .     S
C609   C624    1.391   .     A
C609   C625    1.385   .     A
C609   H631    1.080   .     S
C610   C626    1.394   .     A
C610   C612    1.475   .     S
C611   H640    1.082   .     S
C611   C617    1.400   .     A
C611   C793    1.382   .     S
C612   O646    1.299   .     A
C612   O645    1.297   .     A
C613   H632    1.083   .     S
C613   C614    1.401   .     A
C613   C971    1.382   1_545 S
C614   C622    1.449   .     S
C614   C615    1.400   .     A
C615   H633    1.083   .     S
C615   C976    1.384   1_545 S
C616   C617    1.403   .     A
C616   H634    1.083   .     S
C616   C795    1.384   .     S
C618   I651    2.121   .     S
C618   N642    1.385   .     A
C618   C679    1.410   .     S
C619   N641    1.355   .     A
C619   H635    1.082   .     S
C620   N641    1.369   .     A
C620   H636    1.082   .     S
C621   H637    1.082   .     S
C621   N642    1.367   .     A
C621   C680    1.419   .     S
C622   O648    1.292   .     A
C622   O647    1.295   .     A
C623   O649    1.299   .     A
C623   C625    1.470   .     S
C623   O650    1.299   .     A
C626   C627    1.385   .     A
C626   H639    1.084   .     S
C627   C88     1.413   1_556 S
C627   N117    1.433   1_556 S
C628   I656    2.142   .     S
Cu629  N641    2.018   .     S
Cu629  O649    1.937   .     S
Cu629  O643    1.962   .     S
Cu629  Cu630   2.685   .     S
Cu629  O647    1.967   .     S
Cu629  O645    1.949   .     S
Cu630  O648    1.962   .     S
Cu630  O646    1.937   .     S
Cu630  O644    1.967   .     S
Cu630  O650    1.949   .     S
Cu630  N642    2.018   .     S
N653   H655    1.044   .     S
N653   H654    1.044   .     S
N653   C84     1.428   1_556 S
N657   H659    1.045   .     S
H658   N717    1.044   .     S
C661   C677    1.452   .     S
C661   O704    1.297   .     A
C661   O703    1.291   .     A
C662   C663    1.413   .     A
C662   C124    1.434   1_556 S
C662   C148    1.439   1_556 S
C663   C670    1.415   .     A
C663   C667    1.401   .     A
C664   C668    1.404   .     A
C665   C666    1.427   .     A
C665   C124    1.443   1_556 S
C665   C144    1.436   1_556 S
C666   C667    1.397   .     A
C666   I712    2.154   .     S
C667   I720    2.136   .     S
C668   C685    1.387   .     A
C668   H698    1.072   .     S
C669   C684    1.391   .     A
C669   C685    1.385   .     A
C669   H691    1.080   .     S
C670   C686    1.394   .     A
C670   C672    1.475   .     S
C671   H700    1.082   .     S
C671   C677    1.400   .     A
C671   C853    1.382   .     S
C672   O706    1.299   .     A
C672   O705    1.297   .     A
C673   H692    1.083   .     S
C673   C674    1.401   .     A
C673   C1031   1.382   1_545 S
C674   C682    1.449   .     S
C674   C675    1.400   .     A
C675   H693    1.083   .     S
C675   C1036   1.384   1_545 S
C676   C677    1.403   .     A
C676   H694    1.083   .     S
C676   C855    1.384   .     S
C678   I711    2.121   .     S
C678   N702    1.385   .     A
C678   C559    1.410   1_655 S
C679   N701    1.355   .     A
C679   H695    1.082   .     S
C680   N701    1.369   .     A
C680   H696    1.082   .     S
C681   H697    1.082   .     S
C681   N702    1.367   .     A
C681   C560    1.419   1_655 S
C682   O708    1.292   .     A
C682   O707    1.295   .     A
C683   O709    1.299   .     A
C683   C685    1.470   .     S
C683   O710    1.299   .     A
C686   C687    1.385   .     A
C686   H699    1.084   .     S
C687   C148    1.413   1_556 S
C687   N177    1.433   1_556 S
C688   I716    2.142   .     S
Cu689  N701    2.018   .     S
Cu689  O709    1.937   .     S
Cu689  O703    1.962   .     S
Cu689  Cu690   2.685   .     S
Cu689  O707    1.967   .     S
Cu689  O705    1.949   .     S
Cu690  O708    1.962   .     S
Cu690  O706    1.937   .     S
Cu690  O704    1.967   .     S
Cu690  O710    1.949   .     S
Cu690  N702    2.018   .     S
N713   H715    1.044   .     S
N713   H714    1.044   .     S
N713   C144    1.428   1_556 S
N717   H719    1.045   .     S
H718   N597    1.044   1_655 S
C721   C737    1.452   .     S
C721   O764    1.297   .     A
C721   O763    1.291   .     A
C722   C723    1.413   .     A
C722   C184    1.434   1_556 S
C722   C208    1.439   1_556 S
C723   C730    1.415   .     A
C723   C727    1.401   .     A
C724   C728    1.404   .     A
C725   C726    1.427   .     A
C725   C184    1.443   1_556 S
C725   C204    1.436   1_556 S
C726   C727    1.397   .     A
C726   I772    2.154   .     S
C727   I780    2.136   .     S
C728   C745    1.387   .     A
C728   H758    1.072   .     S
C729   C744    1.391   .     A
C729   C745    1.385   .     A
C729   H751    1.080   .     S
C730   C746    1.394   .     A
C730   C732    1.475   .     S
C731   H760    1.082   .     S
C731   C737    1.400   .     A
C731   C913    1.382   .     S
C732   O766    1.299   .     A
C732   O765    1.297   .     A
C733   H752    1.083   .     S
C733   C734    1.401   .     A
C734   C742    1.449   .     S
C734   C735    1.400   .     A
C735   H753    1.083   .     S
C736   C737    1.403   .     A
C736   H754    1.083   .     S
C736   C915    1.384   .     S
C738   I771    2.121   .     S
C738   N762    1.385   .     A
C738   C799    1.410   .     S
C739   N761    1.355   .     A
C739   H755    1.082   .     S
C739   C858    1.410   1_455 S
C740   N761    1.369   .     A
C740   H756    1.082   .     S
C740   C861    1.419   1_455 S
C741   H757    1.082   .     S
C741   N762    1.367   .     A
C741   C800    1.419   .     S
C742   O768    1.292   .     A
C742   O767    1.295   .     A
C743   O769    1.299   .     A
C743   C745    1.470   .     S
C743   O770    1.299   .     A
C746   C747    1.385   .     A
C746   H759    1.084   .     S
C747   C208    1.413   1_556 S
C747   N237    1.433   1_556 S
C748   I776    2.142   .     S
Cu749  N761    2.018   .     S
Cu749  O769    1.937   .     S
Cu749  O763    1.962   .     S
Cu749  Cu750   2.685   .     S
Cu749  O767    1.967   .     S
Cu749  O765    1.949   .     S
Cu750  O768    1.962   .     S
Cu750  O766    1.937   .     S
Cu750  O764    1.967   .     S
Cu750  O770    1.949   .     S
Cu750  N762    2.018   .     S
N773   H775    1.044   .     S
N773   H774    1.044   .     S
N773   C204    1.428   1_556 S
N777   H779    1.045   .     S
N777   H898    1.044   1_455 S
H778   N837    1.044   .     S
C781   C797    1.452   .     S
C781   O824    1.297   .     A
C781   O823    1.291   .     A
C782   C783    1.413   .     A
C782   C244    1.434   1_556 S
C782   C268    1.439   1_556 S
C783   C790    1.415   .     A
C783   C787    1.401   .     A
C784   C788    1.404   .     A
C785   C786    1.427   .     A
C785   C244    1.443   1_556 S
C785   C264    1.436   1_556 S
C786   C787    1.397   .     A
C786   I832    2.154   .     S
C787   I840    2.136   .     S
C788   C805    1.387   .     A
C788   H818    1.072   .     S
C789   C804    1.391   .     A
C789   C805    1.385   .     A
C789   H811    1.080   .     S
C790   C806    1.394   .     A
C790   C792    1.475   .     S
C791   H820    1.082   .     S
C791   C797    1.400   .     A
C791   C973    1.382   .     S
C792   O826    1.299   .     A
C792   O825    1.297   .     A
C793   H812    1.083   .     S
C793   C794    1.401   .     A
C794   C802    1.449   .     S
C794   C795    1.400   .     A
C795   H813    1.083   .     S
C796   C797    1.403   .     A
C796   H814    1.083   .     S
C796   C975    1.384   .     S
C798   I831    2.121   .     S
C798   N822    1.385   .     A
C798   C859    1.410   .     S
C799   N821    1.355   .     A
C799   H815    1.082   .     S
C800   N821    1.369   .     A
C800   H816    1.082   .     S
C801   H817    1.082   .     S
C801   N822    1.367   .     A
C801   C860    1.419   .     S
C802   O828    1.292   .     A
C802   O827    1.295   .     A
C803   O829    1.299   .     A
C803   C805    1.470   .     S
C803   O830    1.299   .     A
C806   C807    1.385   .     A
C806   H819    1.084   .     S
C807   C268    1.413   1_556 S
C807   N297    1.433   1_556 S
C808   I836    2.142   .     S
Cu809  N821    2.018   .     S
Cu809  O829    1.937   .     S
Cu809  O823    1.962   .     S
Cu809  Cu810   2.685   .     S
Cu809  O827    1.967   .     S
Cu809  O825    1.949   .     S
Cu810  O828    1.962   .     S
Cu810  O826    1.937   .     S
Cu810  O824    1.967   .     S
Cu810  O830    1.949   .     S
Cu810  N822    2.018   .     S
N833   H835    1.044   .     S
N833   H834    1.044   .     S
N833   C264    1.428   1_556 S
N837   H839    1.045   .     S
H838   N897    1.044   .     S
C841   C857    1.452   .     S
C841   O884    1.297   .     A
C841   O883    1.291   .     A
C842   C843    1.413   .     A
C842   C304    1.434   1_556 S
C842   C328    1.439   1_556 S
C843   C850    1.415   .     A
C843   C847    1.401   .     A
C844   C848    1.404   .     A
C845   C846    1.427   .     A
C845   C304    1.443   1_556 S
C845   C324    1.436   1_556 S
C846   C847    1.397   .     A
C846   I892    2.154   .     S
C847   I900    2.136   .     S
C848   C865    1.387   .     A
C848   H878    1.072   .     S
C849   C864    1.391   .     A
C849   C865    1.385   .     A
C849   H871    1.080   .     S
C850   C866    1.394   .     A
C850   C852    1.475   .     S
C851   H880    1.082   .     S
C851   C857    1.400   .     A
C851   C1033   1.382   .     S
C852   O886    1.299   .     A
C852   O885    1.297   .     A
C853   H872    1.083   .     S
C853   C854    1.401   .     A
C854   C862    1.449   .     S
C854   C855    1.400   .     A
C855   H873    1.083   .     S
C856   C857    1.403   .     A
C856   H874    1.083   .     S
C856   C1035   1.384   .     S
C858   I891    2.121   .     S
C858   N882    1.385   .     A
C858   C739    1.410   1_655 S
C859   N881    1.355   .     A
C859   H875    1.082   .     S
C860   N881    1.369   .     A
C860   H876    1.082   .     S
C861   H877    1.082   .     S
C861   N882    1.367   .     A
C861   C740    1.419   1_655 S
C862   O888    1.292   .     A
C862   O887    1.295   .     A
C863   O889    1.299   .     A
C863   C865    1.470   .     S
C863   O890    1.299   .     A
C866   C867    1.385   .     A
C866   H879    1.084   .     S
C867   C328    1.413   1_556 S
C867   N357    1.433   1_556 S
C868   I896    2.142   .     S
Cu869  N881    2.018   .     S
Cu869  O889    1.937   .     S
Cu869  O883    1.962   .     S
Cu869  Cu870   2.685   .     S
Cu869  O887    1.967   .     S
Cu869  O885    1.949   .     S
Cu870  O888    1.962   .     S
Cu870  O886    1.937   .     S
Cu870  O884    1.967   .     S
Cu870  O890    1.949   .     S
Cu870  N882    2.018   .     S
N893   H895    1.044   .     S
N893   H894    1.044   .     S
N893   C324    1.428   1_556 S
N897   H899    1.045   .     S
H898   N777    1.044   1_655 S
C901   C917    1.452   .     S
C901   O944    1.297   .     A
C901   O943    1.291   .     A
C902   C903    1.413   .     A
C902   C364    1.434   1_556 S
C902   C388    1.439   1_556 S
C903   C910    1.415   .     A
C903   C907    1.401   .     A
C904   C908    1.404   .     A
C905   C906    1.427   .     A
C905   C364    1.443   1_556 S
C905   C384    1.436   1_556 S
C906   C907    1.397   .     A
C906   I952    2.154   .     S
C907   I960    2.136   .     S
C908   C925    1.387   .     A
C908   H938    1.072   .     S
C909   C924    1.391   .     A
C909   C925    1.385   .     A
C909   H931    1.080   .     S
C910   C926    1.394   .     A
C910   C912    1.475   .     S
C911   H940    1.082   .     S
C911   C917    1.400   .     A
C911   C553    1.382   1_565 S
C912   O946    1.299   .     A
C912   O945    1.297   .     A
C913   H932    1.083   .     S
C913   C914    1.401   .     A
C914   C922    1.449   .     S
C914   C915    1.400   .     A
C915   H933    1.083   .     S
C916   C917    1.403   .     A
C916   H934    1.083   .     S
C916   C555    1.384   1_565 S
C918   I951    2.121   .     S
C918   N942    1.385   .     A
C918   C979    1.410   .     S
C919   N941    1.355   .     A
C919   H935    1.082   .     S
C919   C1038   1.410   1_455 S
C920   N941    1.369   .     A
C920   H936    1.082   .     S
C920   C1041   1.419   1_455 S
C921   H937    1.082   .     S
C921   N942    1.367   .     A
C921   C980    1.419   .     S
C922   O948    1.292   .     A
C922   O947    1.295   .     A
C923   O949    1.299   .     A
C923   C925    1.470   .     S
C923   O950    1.299   .     A
C926   C927    1.385   .     A
C926   H939    1.084   .     S
C927   C388    1.413   1_556 S
C927   N417    1.433   1_556 S
C928   I956    2.142   .     S
Cu929  N941    2.018   .     S
Cu929  O949    1.937   .     S
Cu929  O943    1.962   .     S
Cu929  Cu930   2.685   .     S
Cu929  O947    1.967   .     S
Cu929  O945    1.949   .     S
Cu930  O948    1.962   .     S
Cu930  O946    1.937   .     S
Cu930  O944    1.967   .     S
Cu930  O950    1.949   .     S
Cu930  N942    2.018   .     S
N953   H955    1.044   .     S
N953   H954    1.044   .     S
N953   C384    1.428   1_556 S
N957   H959    1.045   .     S
N957   H1078   1.044   1_455 S
H958   N1017   1.044   .     S
C961   C977    1.452   .     S
C961   O1004   1.297   .     A
C961   O1003   1.291   .     A
C962   C963    1.413   .     A
C962   C424    1.434   1_556 S
C962   C448    1.439   1_556 S
C963   C970    1.415   .     A
C963   C967    1.401   .     A
C964   C968    1.404   .     A
C965   C966    1.427   .     A
C965   C424    1.443   1_556 S
C965   C444    1.436   1_556 S
C966   C967    1.397   .     A
C966   I1012   2.154   .     S
C967   I1020   2.136   .     S
C968   C985    1.387   .     A
C968   H998    1.072   .     S
C969   C984    1.391   .     A
C969   C985    1.385   .     A
C969   H991    1.080   .     S
C970   C986    1.394   .     A
C970   C972    1.475   .     S
C971   H1000   1.082   .     S
C971   C977    1.400   .     A
C971   C613    1.382   1_565 S
C972   O1006   1.299   .     A
C972   O1005   1.297   .     A
C973   H992    1.083   .     S
C973   C974    1.401   .     A
C974   C982    1.449   .     S
C974   C975    1.400   .     A
C975   H993    1.083   .     S
C976   C977    1.403   .     A
C976   H994    1.083   .     S
C976   C615    1.384   1_565 S
C978   I1011   2.121   .     S
C978   N1002   1.385   .     A
C978   C1039   1.410   .     S
C979   N1001   1.355   .     A
C979   H995    1.082   .     S
C980   N1001   1.369   .     A
C980   H996    1.082   .     S
C981   H997    1.082   .     S
C981   N1002   1.367   .     A
C981   C1040   1.419   .     S
C982   O1008   1.292   .     A
C982   O1007   1.295   .     A
C983   O1009   1.299   .     A
C983   C985    1.470   .     S
C983   O1010   1.299   .     A
C986   C987    1.385   .     A
C986   H999    1.084   .     S
C987   C448    1.413   1_556 S
C987   N477    1.433   1_556 S
C988   I1016   2.142   .     S
Cu989  N1001   2.018   .     S
Cu989  O1009   1.937   .     S
Cu989  O1003   1.962   .     S
Cu989  Cu990   2.685   .     S
Cu989  O1007   1.967   .     S
Cu989  O1005   1.949   .     S
Cu990  O1008   1.962   .     S
Cu990  O1006   1.937   .     S
Cu990  O1004   1.967   .     S
Cu990  O1010   1.949   .     S
Cu990  N1002   2.018   .     S
N1013  H1015   1.044   .     S
N1013  H1014   1.044   .     S
N1013  C444    1.428   1_556 S
N1017  H1019   1.045   .     S
H1018  N1077   1.044   .     S
C1021  C1037   1.452   .     S
C1021  O1064   1.297   .     A
C1021  O1063   1.291   .     A
C1022  C1023   1.413   .     A
C1022  C484    1.434   1_556 S
C1022  C508    1.439   1_556 S
C1023  C1030   1.415   .     A
C1023  C1027   1.401   .     A
C1024  C1028   1.404   .     A
C1025  C1026   1.427   .     A
C1025  C484    1.443   1_556 S
C1025  C504    1.436   1_556 S
C1026  C1027   1.397   .     A
C1026  I1072   2.154   .     S
C1027  I1080   2.136   .     S
C1028  C1045   1.387   .     A
C1028  H1058   1.072   .     S
C1029  C1044   1.391   .     A
C1029  C1045   1.385   .     A
C1029  H1051   1.080   .     S
C1030  C1046   1.394   .     A
C1030  C1032   1.475   .     S
C1031  H1060   1.082   .     S
C1031  C1037   1.400   .     A
C1031  C673    1.382   1_565 S
C1032  O1066   1.299   .     A
C1032  O1065   1.297   .     A
C1033  H1052   1.083   .     S
C1033  C1034   1.401   .     A
C1034  C1042   1.449   .     S
C1034  C1035   1.400   .     A
C1035  H1053   1.083   .     S
C1036  C1037   1.403   .     A
C1036  H1054   1.083   .     S
C1036  C675    1.384   1_565 S
C1038  I1071   2.121   .     S
C1038  N1062   1.385   .     A
C1038  C919    1.410   1_655 S
C1039  N1061   1.355   .     A
C1039  H1055   1.082   .     S
C1040  N1061   1.369   .     A
C1040  H1056   1.082   .     S
C1041  H1057   1.082   .     S
C1041  N1062   1.367   .     A
C1041  C920    1.419   1_655 S
C1042  O1068   1.292   .     A
C1042  O1067   1.295   .     A
C1043  O1069   1.299   .     A
C1043  C1045   1.470   .     S
C1043  O1070   1.299   .     A
C1046  C1047   1.385   .     A
C1046  H1059   1.084   .     S
C1047  C508    1.413   1_556 S
C1047  N537    1.433   1_556 S
C1048  I1076   2.142   .     S
Cu1049 N1061   2.018   .     S
Cu1049 O1069   1.937   .     S
Cu1049 O1063   1.962   .     S
Cu1049 Cu1050  2.685   .     S
Cu1049 O1067   1.967   .     S
Cu1049 O1065   1.949   .     S
Cu1050 O1068   1.962   .     S
Cu1050 O1066   1.937   .     S
Cu1050 O1064   1.967   .     S
Cu1050 O1070   1.949   .     S
Cu1050 N1062   2.018   .     S
N1073  H1075   1.044   .     S
N1073  H1074   1.044   .     S
N1073  C504    1.428   1_556 S
N1077  H1079   1.045   .     S
H1078  N957    1.044   1_655 S
