data_str_m3_o1_o17_pcu_sym.68
_audit_creation_date              2020-01-03
_audit_creation_method            'Materials Studio'
_symmetry_space_group_name_H-M    'P1'
_symmetry_Int_Tables_number       1
_symmetry_cell_setting            triclinic
loop_
_symmetry_equiv_pos_as_xyz
  x,y,z
_cell_length_a                    32.1004
_cell_length_b                    29.5409
_cell_length_c                    29.8299
_cell_angle_alpha                 89.8926
_cell_angle_beta                  90.1654
_cell_angle_gamma                 90.0380
loop_
_atom_site_label
_atom_site_type_symbol
_atom_site_fract_x
_atom_site_fract_y
_atom_site_fract_z
_atom_site_U_iso_or_equiv
_atom_site_adp_type
_atom_site_occupancy
O1     O     0.10559   0.20487   0.25000   0.00000  Uiso   1.00
O2     O     0.22774   0.12846   0.25000   0.00000  Uiso   1.00
O3     O     0.22774   0.20487   0.25001   0.00000  Uiso   1.00
O4     O     0.10559   0.12846   0.24999   0.00000  Uiso   1.00
C5     C     0.08664   0.16666   0.24995   0.00000  Uiso   1.00
C6     C     0.24669   0.16667   0.25005   0.00000  Uiso   1.00
O7     O     0.16666   0.20489   0.18393   0.00000  Uiso   1.00
O8     O     0.16667   0.12844   0.31607   0.00000  Uiso   1.00
O9     O     0.16667   0.20489   0.31607   0.00000  Uiso   1.00
O10    O     0.16666   0.12844   0.18392   0.00000  Uiso   1.00
C11    C     0.16592   0.16671   0.16359   0.00000  Uiso   1.00
C12    C     0.16742   0.16663   0.33641   0.00000  Uiso   1.00
Zn13   Zn    0.16667   0.21771   0.25000   0.00000  Uiso   1.00
Zn14   Zn    0.16667   0.11563   0.25000   0.00000  Uiso   1.00
C15    C     0.20487   0.15586   0.40700   0.00000  Uiso   1.00
C16    C     0.12847   0.17747   0.09300   0.00000  Uiso   1.00
C17    C     0.16820   0.16658   0.38402   0.00000  Uiso   1.00
C18    C     0.16514   0.16675   0.11598   0.00000  Uiso   1.00
C19    C     0.13189   0.17871   0.40596   0.00000  Uiso   1.00
C20    C     0.20144   0.15462   0.09404   0.00000  Uiso   1.00
C21    C     0.13094   0.18028   0.45243   0.00000  Uiso   1.00
C22    C     0.20240   0.15305   0.04757   0.00000  Uiso   1.00
C23    C     0.16715   0.16730   0.47658   0.00000  Uiso   1.00
C24    C     0.16619   0.16603   0.02342   0.00000  Uiso   1.00
C25    C     0.20432   0.15548   0.45384   0.00000  Uiso   1.00
C26    C     0.12902   0.17785   0.04616   0.00000  Uiso   1.00
C27    C     0.09437   0.19315   0.47524   0.00000  Uiso   1.00
C28    C     0.23896   0.14018   0.02476   0.00000  Uiso   1.00
C29    C     0.09367   0.19118   0.02181   0.00000  Uiso   1.00
C30    C     0.23967   0.14215   0.47819   0.00000  Uiso   1.00
H31    H     0.10437   0.18603   0.38615   0.00000  Uiso   1.00
H32    H     0.22896   0.14730   0.11385   0.00000  Uiso   1.00
H33    H     0.06557   0.20172   0.03883   0.00000  Uiso   1.00
H34    H     0.26777   0.13161   0.46117   0.00000  Uiso   1.00
C35    C     0.02127   0.12689   0.23895   0.00000  Uiso   1.00
C36    C     0.31206   0.20645   0.26105   0.00000  Uiso   1.00
C37    C     0.31194   0.12687   0.23905   0.00000  Uiso   1.00
C38    C     0.02139   0.20646   0.26095   0.00000  Uiso   1.00
H39    H     0.03752   0.09605   0.23002   0.00000  Uiso   1.00
H40    H     0.29582   0.23729   0.26998   0.00000  Uiso   1.00
H41    H     0.29561   0.09602   0.23020   0.00000  Uiso   1.00
H42    H     0.03773   0.23732   0.26980   0.00000  Uiso   1.00
C43    C     0.29084   0.16666   0.25008   0.00000  Uiso   1.00
C44    C     0.04250   0.16667   0.24992   0.00000  Uiso   1.00
C45    C     0.19467   0.02394   0.27543   0.00000  Uiso   1.00
C46    C     0.13866   0.30939   0.22457   0.00000  Uiso   1.00
C47    C     0.13866   0.02401   0.22456   0.00000  Uiso   1.00
C48    C     0.19467   0.30933   0.27544   0.00000  Uiso   1.00
H49    H     0.21708   0.04206   0.29576   0.00000  Uiso   1.00
H50    H     0.11626   0.29128   0.20424   0.00000  Uiso   1.00
H51    H     0.11627   0.04219   0.20420   0.00000  Uiso   1.00
H52    H     0.21706   0.29115   0.29580   0.00000  Uiso   1.00
N53    N     0.16667   0.28573   0.25000   0.00000  Uiso   1.00
N54    N     0.16667   0.04760   0.25000   0.00000  Uiso   1.00
N55    N     0.24247   0.14647   0.38270   0.00000  Uiso   1.00
O56    O     0.24525   0.11044   0.35791   0.00000  Uiso   1.00
O57    O     0.27385   0.17426   0.38509   0.00000  Uiso   1.00
N58    N     0.09087   0.18687   0.11730   0.00000  Uiso   1.00
O59    O     0.08808   0.22293   0.14206   0.00000  Uiso   1.00
O60    O     0.05949   0.15908   0.11493   0.00000  Uiso   1.00
N61    N     0.05810   0.20949   0.45190   0.00000  Uiso   1.00
O62    O     0.06146   0.24277   0.42350   0.00000  Uiso   1.00
O63    O     0.02116   0.19711   0.46495   0.00000  Uiso   1.00
N64    N     0.27523   0.12384   0.04810   0.00000  Uiso   1.00
O65    O     0.27187   0.09055   0.07650   0.00000  Uiso   1.00
O66    O     0.31217   0.13622   0.03506   0.00000  Uiso   1.00
O67    O     0.43892   0.20487   0.25000   0.00000  Uiso   1.00
O68    O     0.56108   0.12846   0.25000   0.00000  Uiso   1.00
O69    O     0.56108   0.20487   0.25001   0.00000  Uiso   1.00
O70    O     0.43892   0.12846   0.24999   0.00000  Uiso   1.00
C71    C     0.41997   0.16666   0.24995   0.00000  Uiso   1.00
C72    C     0.58003   0.16667   0.25005   0.00000  Uiso   1.00
O73    O     0.49999   0.20489   0.18393   0.00000  Uiso   1.00
O74    O     0.50001   0.12844   0.31607   0.00000  Uiso   1.00
O75    O     0.50001   0.20489   0.31607   0.00000  Uiso   1.00
O76    O     0.49999   0.12844   0.18392   0.00000  Uiso   1.00
C77    C     0.49925   0.16671   0.16359   0.00000  Uiso   1.00
C78    C     0.50075   0.16663   0.33641   0.00000  Uiso   1.00
Zn79   Zn    0.50000   0.21771   0.25000   0.00000  Uiso   1.00
Zn80   Zn    0.50000   0.11563   0.25000   0.00000  Uiso   1.00
C81    C     0.53820   0.15586   0.40700   0.00000  Uiso   1.00
C82    C     0.46180   0.17747   0.09300   0.00000  Uiso   1.00
C83    C     0.50153   0.16658   0.38402   0.00000  Uiso   1.00
C84    C     0.49847   0.16675   0.11598   0.00000  Uiso   1.00
C85    C     0.46522   0.17871   0.40596   0.00000  Uiso   1.00
C86    C     0.53478   0.15462   0.09404   0.00000  Uiso   1.00
C87    C     0.46427   0.18028   0.45243   0.00000  Uiso   1.00
C88    C     0.53573   0.15305   0.04757   0.00000  Uiso   1.00
C89    C     0.50048   0.16730   0.47658   0.00000  Uiso   1.00
C90    C     0.49952   0.16603   0.02342   0.00000  Uiso   1.00
C91    C     0.53765   0.15548   0.45384   0.00000  Uiso   1.00
C92    C     0.46235   0.17785   0.04616   0.00000  Uiso   1.00
C93    C     0.42770   0.19315   0.47524   0.00000  Uiso   1.00
C94    C     0.57230   0.14018   0.02476   0.00000  Uiso   1.00
C95    C     0.42700   0.19118   0.02181   0.00000  Uiso   1.00
C96    C     0.57300   0.14215   0.47819   0.00000  Uiso   1.00
H97    H     0.43771   0.18603   0.38615   0.00000  Uiso   1.00
H98    H     0.56229   0.14730   0.11385   0.00000  Uiso   1.00
H99    H     0.39890   0.20172   0.03883   0.00000  Uiso   1.00
H100   H     0.60110   0.13161   0.46117   0.00000  Uiso   1.00
C101   C     0.35461   0.12689   0.23895   0.00000  Uiso   1.00
C102   C     0.64539   0.20645   0.26105   0.00000  Uiso   1.00
C103   C     0.64528   0.12687   0.23905   0.00000  Uiso   1.00
C104   C     0.35472   0.20646   0.26095   0.00000  Uiso   1.00
H105   H     0.37085   0.09605   0.23002   0.00000  Uiso   1.00
H106   H     0.62915   0.23729   0.26998   0.00000  Uiso   1.00
H107   H     0.62894   0.09602   0.23020   0.00000  Uiso   1.00
H108   H     0.37106   0.23732   0.26980   0.00000  Uiso   1.00
C109   C     0.62417   0.16666   0.25008   0.00000  Uiso   1.00
C110   C     0.37583   0.16667   0.24992   0.00000  Uiso   1.00
C111   C     0.52801   0.02394   0.27543   0.00000  Uiso   1.00
C112   C     0.47199   0.30939   0.22457   0.00000  Uiso   1.00
C113   C     0.47200   0.02401   0.22456   0.00000  Uiso   1.00
C114   C     0.52800   0.30933   0.27544   0.00000  Uiso   1.00
H115   H     0.55041   0.04206   0.29576   0.00000  Uiso   1.00
H116   H     0.44959   0.29128   0.20424   0.00000  Uiso   1.00
H117   H     0.44961   0.04219   0.20420   0.00000  Uiso   1.00
H118   H     0.55039   0.29115   0.29580   0.00000  Uiso   1.00
N119   N     0.50000   0.28573   0.25000   0.00000  Uiso   1.00
N120   N     0.50000   0.04760   0.25000   0.00000  Uiso   1.00
N121   N     0.57580   0.14647   0.38270   0.00000  Uiso   1.00
O122   O     0.57859   0.11044   0.35791   0.00000  Uiso   1.00
O123   O     0.60719   0.17426   0.38509   0.00000  Uiso   1.00
N124   N     0.42421   0.18687   0.11730   0.00000  Uiso   1.00
O125   O     0.42142   0.22293   0.14206   0.00000  Uiso   1.00
O126   O     0.39282   0.15908   0.11493   0.00000  Uiso   1.00
N127   N     0.39144   0.20949   0.45190   0.00000  Uiso   1.00
O128   O     0.39479   0.24277   0.42350   0.00000  Uiso   1.00
O129   O     0.35449   0.19711   0.46495   0.00000  Uiso   1.00
N130   N     0.60856   0.12384   0.04810   0.00000  Uiso   1.00
O131   O     0.60521   0.09055   0.07650   0.00000  Uiso   1.00
O132   O     0.64551   0.13622   0.03506   0.00000  Uiso   1.00
O133   O     0.77226   0.20487   0.25000   0.00000  Uiso   1.00
O134   O     0.89441   0.12846   0.25000   0.00000  Uiso   1.00
O135   O     0.89441   0.20487   0.25001   0.00000  Uiso   1.00
O136   O     0.77226   0.12846   0.24999   0.00000  Uiso   1.00
C137   C     0.75331   0.16666   0.24995   0.00000  Uiso   1.00
C138   C     0.91336   0.16667   0.25005   0.00000  Uiso   1.00
O139   O     0.83333   0.20489   0.18393   0.00000  Uiso   1.00
O140   O     0.83334   0.12844   0.31607   0.00000  Uiso   1.00
O141   O     0.83334   0.20489   0.31607   0.00000  Uiso   1.00
O142   O     0.83333   0.12844   0.18392   0.00000  Uiso   1.00
C143   C     0.83258   0.16671   0.16359   0.00000  Uiso   1.00
C144   C     0.83408   0.16663   0.33641   0.00000  Uiso   1.00
Zn145  Zn    0.83333   0.21771   0.25000   0.00000  Uiso   1.00
Zn146  Zn    0.83333   0.11563   0.25000   0.00000  Uiso   1.00
C147   C     0.87154   0.15586   0.40700   0.00000  Uiso   1.00
C148   C     0.79513   0.17747   0.09300   0.00000  Uiso   1.00
C149   C     0.83487   0.16658   0.38402   0.00000  Uiso   1.00
C150   C     0.83180   0.16675   0.11598   0.00000  Uiso   1.00
C151   C     0.79856   0.17871   0.40596   0.00000  Uiso   1.00
C152   C     0.86811   0.15462   0.09404   0.00000  Uiso   1.00
C153   C     0.79761   0.18028   0.45243   0.00000  Uiso   1.00
C154   C     0.86906   0.15305   0.04757   0.00000  Uiso   1.00
C155   C     0.83382   0.16730   0.47658   0.00000  Uiso   1.00
C156   C     0.83285   0.16603   0.02342   0.00000  Uiso   1.00
C157   C     0.87098   0.15548   0.45384   0.00000  Uiso   1.00
C158   C     0.79569   0.17785   0.04616   0.00000  Uiso   1.00
C159   C     0.76104   0.19315   0.47524   0.00000  Uiso   1.00
C160   C     0.90563   0.14018   0.02476   0.00000  Uiso   1.00
C161   C     0.76034   0.19118   0.02181   0.00000  Uiso   1.00
C162   C     0.90633   0.14215   0.47819   0.00000  Uiso   1.00
H163   H     0.77104   0.18603   0.38615   0.00000  Uiso   1.00
H164   H     0.89563   0.14730   0.11385   0.00000  Uiso   1.00
H165   H     0.73223   0.20172   0.03883   0.00000  Uiso   1.00
H166   H     0.93444   0.13161   0.46117   0.00000  Uiso   1.00
C167   C     0.68794   0.12689   0.23895   0.00000  Uiso   1.00
C168   C     0.97873   0.20645   0.26105   0.00000  Uiso   1.00
C169   C     0.97861   0.12687   0.23905   0.00000  Uiso   1.00
C170   C     0.68806   0.20646   0.26095   0.00000  Uiso   1.00
H171   H     0.70418   0.09605   0.23002   0.00000  Uiso   1.00
H172   H     0.96248   0.23729   0.26998   0.00000  Uiso   1.00
H173   H     0.96227   0.09602   0.23020   0.00000  Uiso   1.00
H174   H     0.70439   0.23732   0.26980   0.00000  Uiso   1.00
C175   C     0.95750   0.16666   0.25008   0.00000  Uiso   1.00
C176   C     0.70916   0.16667   0.24992   0.00000  Uiso   1.00
C177   C     0.86134   0.02394   0.27543   0.00000  Uiso   1.00
C178   C     0.80533   0.30939   0.22457   0.00000  Uiso   1.00
C179   C     0.80533   0.02401   0.22456   0.00000  Uiso   1.00
C180   C     0.86134   0.30933   0.27544   0.00000  Uiso   1.00
H181   H     0.88374   0.04206   0.29576   0.00000  Uiso   1.00
H182   H     0.78292   0.29128   0.20424   0.00000  Uiso   1.00
H183   H     0.78294   0.04219   0.20420   0.00000  Uiso   1.00
H184   H     0.88373   0.29115   0.29580   0.00000  Uiso   1.00
N185   N     0.83333   0.28573   0.25000   0.00000  Uiso   1.00
N186   N     0.83333   0.04760   0.25000   0.00000  Uiso   1.00
N187   N     0.90913   0.14647   0.38270   0.00000  Uiso   1.00
O188   O     0.91192   0.11044   0.35791   0.00000  Uiso   1.00
O189   O     0.94052   0.17426   0.38509   0.00000  Uiso   1.00
N190   N     0.75754   0.18687   0.11730   0.00000  Uiso   1.00
O191   O     0.75475   0.22293   0.14206   0.00000  Uiso   1.00
O192   O     0.72616   0.15908   0.11493   0.00000  Uiso   1.00
N193   N     0.72477   0.20949   0.45190   0.00000  Uiso   1.00
O194   O     0.72813   0.24277   0.42350   0.00000  Uiso   1.00
O195   O     0.68783   0.19711   0.46495   0.00000  Uiso   1.00
N196   N     0.94190   0.12384   0.04810   0.00000  Uiso   1.00
O197   O     0.93854   0.09055   0.07650   0.00000  Uiso   1.00
O198   O     0.97884   0.13622   0.03506   0.00000  Uiso   1.00
O199   O     0.10559   0.53821   0.25000   0.00000  Uiso   1.00
O200   O     0.22774   0.46179   0.25000   0.00000  Uiso   1.00
O201   O     0.22774   0.53821   0.25001   0.00000  Uiso   1.00
O202   O     0.10559   0.46179   0.24999   0.00000  Uiso   1.00
C203   C     0.08664   0.49999   0.24995   0.00000  Uiso   1.00
C204   C     0.24669   0.50001   0.25005   0.00000  Uiso   1.00
O205   O     0.16666   0.53823   0.18393   0.00000  Uiso   1.00
O206   O     0.16667   0.46177   0.31607   0.00000  Uiso   1.00
O207   O     0.16667   0.53823   0.31607   0.00000  Uiso   1.00
O208   O     0.16666   0.46177   0.18392   0.00000  Uiso   1.00
C209   C     0.16592   0.50004   0.16359   0.00000  Uiso   1.00
C210   C     0.16742   0.49996   0.33641   0.00000  Uiso   1.00
Zn211  Zn    0.16667   0.55104   0.25000   0.00000  Uiso   1.00
Zn212  Zn    0.16667   0.44896   0.25000   0.00000  Uiso   1.00
C213   C     0.20487   0.48920   0.40700   0.00000  Uiso   1.00
C214   C     0.12847   0.51080   0.09300   0.00000  Uiso   1.00
C215   C     0.16820   0.49992   0.38402   0.00000  Uiso   1.00
C216   C     0.16514   0.50008   0.11598   0.00000  Uiso   1.00
C217   C     0.13189   0.51204   0.40596   0.00000  Uiso   1.00
C218   C     0.20144   0.48795   0.09404   0.00000  Uiso   1.00
C219   C     0.13094   0.51361   0.45243   0.00000  Uiso   1.00
C220   C     0.20240   0.48638   0.04757   0.00000  Uiso   1.00
C221   C     0.16715   0.50064   0.47658   0.00000  Uiso   1.00
C222   C     0.16619   0.49936   0.02342   0.00000  Uiso   1.00
C223   C     0.20432   0.48881   0.45384   0.00000  Uiso   1.00
C224   C     0.12902   0.51118   0.04616   0.00000  Uiso   1.00
C225   C     0.09437   0.52648   0.47524   0.00000  Uiso   1.00
C226   C     0.23896   0.47351   0.02476   0.00000  Uiso   1.00
C227   C     0.09367   0.52452   0.02181   0.00000  Uiso   1.00
C228   C     0.23967   0.47548   0.47819   0.00000  Uiso   1.00
H229   H     0.10437   0.51936   0.38615   0.00000  Uiso   1.00
H230   H     0.22896   0.48063   0.11385   0.00000  Uiso   1.00
H231   H     0.06557   0.53505   0.03883   0.00000  Uiso   1.00
H232   H     0.26777   0.46494   0.46117   0.00000  Uiso   1.00
C233   C     0.02127   0.46022   0.23895   0.00000  Uiso   1.00
C234   C     0.31206   0.53978   0.26105   0.00000  Uiso   1.00
C235   C     0.31194   0.46021   0.23905   0.00000  Uiso   1.00
C236   C     0.02139   0.53979   0.26095   0.00000  Uiso   1.00
H237   H     0.03752   0.42938   0.23002   0.00000  Uiso   1.00
H238   H     0.29582   0.57062   0.26998   0.00000  Uiso   1.00
H239   H     0.29561   0.42935   0.23020   0.00000  Uiso   1.00
H240   H     0.03773   0.57065   0.26980   0.00000  Uiso   1.00
C241   C     0.29084   0.50000   0.25008   0.00000  Uiso   1.00
C242   C     0.04250   0.50000   0.24992   0.00000  Uiso   1.00
C243   C     0.19467   0.35727   0.27543   0.00000  Uiso   1.00
C244   C     0.13866   0.64273   0.22457   0.00000  Uiso   1.00
C245   C     0.13866   0.35734   0.22456   0.00000  Uiso   1.00
C246   C     0.19467   0.64266   0.27544   0.00000  Uiso   1.00
H247   H     0.21708   0.37539   0.29576   0.00000  Uiso   1.00
H248   H     0.11626   0.62461   0.20424   0.00000  Uiso   1.00
H249   H     0.11627   0.37552   0.20420   0.00000  Uiso   1.00
H250   H     0.21706   0.62448   0.29580   0.00000  Uiso   1.00
N251   N     0.16667   0.61907   0.25000   0.00000  Uiso   1.00
N252   N     0.16667   0.38093   0.25000   0.00000  Uiso   1.00
N253   N     0.24247   0.47981   0.38270   0.00000  Uiso   1.00
O254   O     0.24525   0.44377   0.35791   0.00000  Uiso   1.00
O255   O     0.27385   0.50760   0.38509   0.00000  Uiso   1.00
N256   N     0.09087   0.52020   0.11730   0.00000  Uiso   1.00
O257   O     0.08808   0.55627   0.14206   0.00000  Uiso   1.00
O258   O     0.05949   0.49241   0.11493   0.00000  Uiso   1.00
N259   N     0.05810   0.54282   0.45190   0.00000  Uiso   1.00
O260   O     0.06146   0.57611   0.42350   0.00000  Uiso   1.00
O261   O     0.02116   0.53044   0.46495   0.00000  Uiso   1.00
N262   N     0.27523   0.45717   0.04810   0.00000  Uiso   1.00
O263   O     0.27187   0.42389   0.07650   0.00000  Uiso   1.00
O264   O     0.31217   0.46955   0.03506   0.00000  Uiso   1.00
O265   O     0.43892   0.53821   0.25000   0.00000  Uiso   1.00
O266   O     0.56108   0.46179   0.25000   0.00000  Uiso   1.00
O267   O     0.56108   0.53821   0.25001   0.00000  Uiso   1.00
O268   O     0.43892   0.46179   0.24999   0.00000  Uiso   1.00
C269   C     0.41997   0.49999   0.24995   0.00000  Uiso   1.00
C270   C     0.58003   0.50001   0.25005   0.00000  Uiso   1.00
O271   O     0.49999   0.53823   0.18393   0.00000  Uiso   1.00
O272   O     0.50001   0.46177   0.31607   0.00000  Uiso   1.00
O273   O     0.50001   0.53823   0.31607   0.00000  Uiso   1.00
O274   O     0.49999   0.46177   0.18392   0.00000  Uiso   1.00
C275   C     0.49925   0.50004   0.16359   0.00000  Uiso   1.00
C276   C     0.50075   0.49996   0.33641   0.00000  Uiso   1.00
Zn277  Zn    0.50000   0.55104   0.25000   0.00000  Uiso   1.00
Zn278  Zn    0.50000   0.44896   0.25000   0.00000  Uiso   1.00
C279   C     0.53820   0.48920   0.40700   0.00000  Uiso   1.00
C280   C     0.46180   0.51080   0.09300   0.00000  Uiso   1.00
C281   C     0.50153   0.49992   0.38402   0.00000  Uiso   1.00
C282   C     0.49847   0.50008   0.11598   0.00000  Uiso   1.00
C283   C     0.46522   0.51204   0.40596   0.00000  Uiso   1.00
C284   C     0.53478   0.48795   0.09404   0.00000  Uiso   1.00
C285   C     0.46427   0.51361   0.45243   0.00000  Uiso   1.00
C286   C     0.53573   0.48638   0.04757   0.00000  Uiso   1.00
C287   C     0.50048   0.50064   0.47658   0.00000  Uiso   1.00
C288   C     0.49952   0.49936   0.02342   0.00000  Uiso   1.00
C289   C     0.53765   0.48881   0.45384   0.00000  Uiso   1.00
C290   C     0.46235   0.51118   0.04616   0.00000  Uiso   1.00
C291   C     0.42770   0.52648   0.47524   0.00000  Uiso   1.00
C292   C     0.57230   0.47351   0.02476   0.00000  Uiso   1.00
C293   C     0.42700   0.52452   0.02181   0.00000  Uiso   1.00
C294   C     0.57300   0.47548   0.47819   0.00000  Uiso   1.00
H295   H     0.43771   0.51936   0.38615   0.00000  Uiso   1.00
H296   H     0.56229   0.48063   0.11385   0.00000  Uiso   1.00
H297   H     0.39890   0.53505   0.03883   0.00000  Uiso   1.00
H298   H     0.60110   0.46494   0.46117   0.00000  Uiso   1.00
C299   C     0.35461   0.46022   0.23895   0.00000  Uiso   1.00
C300   C     0.64539   0.53978   0.26105   0.00000  Uiso   1.00
C301   C     0.64528   0.46021   0.23905   0.00000  Uiso   1.00
C302   C     0.35472   0.53979   0.26095   0.00000  Uiso   1.00
H303   H     0.37085   0.42938   0.23002   0.00000  Uiso   1.00
H304   H     0.62915   0.57062   0.26998   0.00000  Uiso   1.00
H305   H     0.62894   0.42935   0.23020   0.00000  Uiso   1.00
H306   H     0.37106   0.57065   0.26980   0.00000  Uiso   1.00
C307   C     0.62417   0.50000   0.25008   0.00000  Uiso   1.00
C308   C     0.37583   0.50000   0.24992   0.00000  Uiso   1.00
C309   C     0.52801   0.35727   0.27543   0.00000  Uiso   1.00
C310   C     0.47199   0.64273   0.22457   0.00000  Uiso   1.00
C311   C     0.47200   0.35734   0.22456   0.00000  Uiso   1.00
C312   C     0.52800   0.64266   0.27544   0.00000  Uiso   1.00
H313   H     0.55041   0.37539   0.29576   0.00000  Uiso   1.00
H314   H     0.44959   0.62461   0.20424   0.00000  Uiso   1.00
H315   H     0.44961   0.37552   0.20420   0.00000  Uiso   1.00
H316   H     0.55039   0.62448   0.29580   0.00000  Uiso   1.00
N317   N     0.50000   0.61907   0.25000   0.00000  Uiso   1.00
N318   N     0.50000   0.38093   0.25000   0.00000  Uiso   1.00
N319   N     0.57580   0.47981   0.38270   0.00000  Uiso   1.00
O320   O     0.57859   0.44377   0.35791   0.00000  Uiso   1.00
O321   O     0.60719   0.50760   0.38509   0.00000  Uiso   1.00
N322   N     0.42421   0.52020   0.11730   0.00000  Uiso   1.00
O323   O     0.42142   0.55627   0.14206   0.00000  Uiso   1.00
O324   O     0.39282   0.49241   0.11493   0.00000  Uiso   1.00
N325   N     0.39144   0.54282   0.45190   0.00000  Uiso   1.00
O326   O     0.39479   0.57611   0.42350   0.00000  Uiso   1.00
O327   O     0.35449   0.53044   0.46495   0.00000  Uiso   1.00
N328   N     0.60856   0.45717   0.04810   0.00000  Uiso   1.00
O329   O     0.60521   0.42389   0.07650   0.00000  Uiso   1.00
O330   O     0.64551   0.46955   0.03506   0.00000  Uiso   1.00
O331   O     0.77226   0.53821   0.25000   0.00000  Uiso   1.00
O332   O     0.89441   0.46179   0.25000   0.00000  Uiso   1.00
O333   O     0.89441   0.53821   0.25001   0.00000  Uiso   1.00
O334   O     0.77226   0.46179   0.24999   0.00000  Uiso   1.00
C335   C     0.75331   0.49999   0.24995   0.00000  Uiso   1.00
C336   C     0.91336   0.50001   0.25005   0.00000  Uiso   1.00
O337   O     0.83333   0.53823   0.18393   0.00000  Uiso   1.00
O338   O     0.83334   0.46177   0.31607   0.00000  Uiso   1.00
O339   O     0.83334   0.53823   0.31607   0.00000  Uiso   1.00
O340   O     0.83333   0.46177   0.18392   0.00000  Uiso   1.00
C341   C     0.83258   0.50004   0.16359   0.00000  Uiso   1.00
C342   C     0.83408   0.49996   0.33641   0.00000  Uiso   1.00
Zn343  Zn    0.83333   0.55104   0.25000   0.00000  Uiso   1.00
Zn344  Zn    0.83333   0.44896   0.25000   0.00000  Uiso   1.00
C345   C     0.87154   0.48920   0.40700   0.00000  Uiso   1.00
C346   C     0.79513   0.51080   0.09300   0.00000  Uiso   1.00
C347   C     0.83487   0.49992   0.38402   0.00000  Uiso   1.00
C348   C     0.83180   0.50008   0.11598   0.00000  Uiso   1.00
C349   C     0.79856   0.51204   0.40596   0.00000  Uiso   1.00
C350   C     0.86811   0.48795   0.09404   0.00000  Uiso   1.00
C351   C     0.79761   0.51361   0.45243   0.00000  Uiso   1.00
C352   C     0.86906   0.48638   0.04757   0.00000  Uiso   1.00
C353   C     0.83382   0.50064   0.47658   0.00000  Uiso   1.00
C354   C     0.83285   0.49936   0.02342   0.00000  Uiso   1.00
C355   C     0.87098   0.48881   0.45384   0.00000  Uiso   1.00
C356   C     0.79569   0.51118   0.04616   0.00000  Uiso   1.00
C357   C     0.76104   0.52648   0.47524   0.00000  Uiso   1.00
C358   C     0.90563   0.47351   0.02476   0.00000  Uiso   1.00
C359   C     0.76034   0.52452   0.02181   0.00000  Uiso   1.00
C360   C     0.90633   0.47548   0.47819   0.00000  Uiso   1.00
H361   H     0.77104   0.51936   0.38615   0.00000  Uiso   1.00
H362   H     0.89563   0.48063   0.11385   0.00000  Uiso   1.00
H363   H     0.73223   0.53505   0.03883   0.00000  Uiso   1.00
H364   H     0.93444   0.46494   0.46117   0.00000  Uiso   1.00
C365   C     0.68794   0.46022   0.23895   0.00000  Uiso   1.00
C366   C     0.97873   0.53978   0.26105   0.00000  Uiso   1.00
C367   C     0.97861   0.46021   0.23905   0.00000  Uiso   1.00
C368   C     0.68806   0.53979   0.26095   0.00000  Uiso   1.00
H369   H     0.70418   0.42938   0.23002   0.00000  Uiso   1.00
H370   H     0.96248   0.57062   0.26998   0.00000  Uiso   1.00
H371   H     0.96227   0.42935   0.23020   0.00000  Uiso   1.00
H372   H     0.70439   0.57065   0.26980   0.00000  Uiso   1.00
C373   C     0.95750   0.50000   0.25008   0.00000  Uiso   1.00
C374   C     0.70916   0.50000   0.24992   0.00000  Uiso   1.00
C375   C     0.86134   0.35727   0.27543   0.00000  Uiso   1.00
C376   C     0.80533   0.64273   0.22457   0.00000  Uiso   1.00
C377   C     0.80533   0.35734   0.22456   0.00000  Uiso   1.00
C378   C     0.86134   0.64266   0.27544   0.00000  Uiso   1.00
H379   H     0.88374   0.37539   0.29576   0.00000  Uiso   1.00
H380   H     0.78292   0.62461   0.20424   0.00000  Uiso   1.00
H381   H     0.78294   0.37552   0.20420   0.00000  Uiso   1.00
H382   H     0.88373   0.62448   0.29580   0.00000  Uiso   1.00
N383   N     0.83333   0.61907   0.25000   0.00000  Uiso   1.00
N384   N     0.83333   0.38093   0.25000   0.00000  Uiso   1.00
N385   N     0.90913   0.47981   0.38270   0.00000  Uiso   1.00
O386   O     0.91192   0.44377   0.35791   0.00000  Uiso   1.00
O387   O     0.94052   0.50760   0.38509   0.00000  Uiso   1.00
N388   N     0.75754   0.52020   0.11730   0.00000  Uiso   1.00
O389   O     0.75475   0.55627   0.14206   0.00000  Uiso   1.00
O390   O     0.72616   0.49241   0.11493   0.00000  Uiso   1.00
N391   N     0.72477   0.54282   0.45190   0.00000  Uiso   1.00
O392   O     0.72813   0.57611   0.42350   0.00000  Uiso   1.00
O393   O     0.68783   0.53044   0.46495   0.00000  Uiso   1.00
N394   N     0.94190   0.45717   0.04810   0.00000  Uiso   1.00
O395   O     0.93854   0.42389   0.07650   0.00000  Uiso   1.00
O396   O     0.97884   0.46955   0.03506   0.00000  Uiso   1.00
O397   O     0.10559   0.87154   0.25000   0.00000  Uiso   1.00
O398   O     0.22774   0.79513   0.25000   0.00000  Uiso   1.00
O399   O     0.22774   0.87154   0.25001   0.00000  Uiso   1.00
O400   O     0.10559   0.79513   0.24999   0.00000  Uiso   1.00
C401   C     0.08664   0.83333   0.24995   0.00000  Uiso   1.00
C402   C     0.24669   0.83334   0.25005   0.00000  Uiso   1.00
O403   O     0.16666   0.87156   0.18393   0.00000  Uiso   1.00
O404   O     0.16667   0.79511   0.31607   0.00000  Uiso   1.00
O405   O     0.16667   0.87156   0.31607   0.00000  Uiso   1.00
O406   O     0.16666   0.79511   0.18392   0.00000  Uiso   1.00
C407   C     0.16592   0.83337   0.16359   0.00000  Uiso   1.00
C408   C     0.16742   0.83329   0.33641   0.00000  Uiso   1.00
Zn409  Zn    0.16667   0.88437   0.25000   0.00000  Uiso   1.00
Zn410  Zn    0.16667   0.78229   0.25000   0.00000  Uiso   1.00
C411   C     0.20487   0.82253   0.40700   0.00000  Uiso   1.00
C412   C     0.12847   0.84414   0.09300   0.00000  Uiso   1.00
C413   C     0.16820   0.83325   0.38402   0.00000  Uiso   1.00
C414   C     0.16514   0.83342   0.11598   0.00000  Uiso   1.00
C415   C     0.13189   0.84537   0.40596   0.00000  Uiso   1.00
C416   C     0.20144   0.82129   0.09404   0.00000  Uiso   1.00
C417   C     0.13094   0.84694   0.45243   0.00000  Uiso   1.00
C418   C     0.20240   0.81972   0.04757   0.00000  Uiso   1.00
C419   C     0.16715   0.83397   0.47658   0.00000  Uiso   1.00
C420   C     0.16619   0.83269   0.02342   0.00000  Uiso   1.00
C421   C     0.20432   0.82215   0.45384   0.00000  Uiso   1.00
C422   C     0.12902   0.84452   0.04616   0.00000  Uiso   1.00
C423   C     0.09437   0.85982   0.47524   0.00000  Uiso   1.00
C424   C     0.23896   0.80684   0.02476   0.00000  Uiso   1.00
C425   C     0.09367   0.85785   0.02181   0.00000  Uiso   1.00
C426   C     0.23967   0.80881   0.47819   0.00000  Uiso   1.00
H427   H     0.10437   0.85270   0.38615   0.00000  Uiso   1.00
H428   H     0.22896   0.81396   0.11385   0.00000  Uiso   1.00
H429   H     0.06557   0.86838   0.03883   0.00000  Uiso   1.00
H430   H     0.26777   0.79828   0.46117   0.00000  Uiso   1.00
C431   C     0.02127   0.79355   0.23895   0.00000  Uiso   1.00
C432   C     0.31206   0.87311   0.26105   0.00000  Uiso   1.00
C433   C     0.31194   0.79354   0.23905   0.00000  Uiso   1.00
C434   C     0.02139   0.87313   0.26095   0.00000  Uiso   1.00
H435   H     0.03752   0.76271   0.23002   0.00000  Uiso   1.00
H436   H     0.29582   0.90395   0.26998   0.00000  Uiso   1.00
H437   H     0.29561   0.76268   0.23020   0.00000  Uiso   1.00
H438   H     0.03773   0.90398   0.26980   0.00000  Uiso   1.00
C439   C     0.29084   0.83333   0.25008   0.00000  Uiso   1.00
C440   C     0.04250   0.83334   0.24992   0.00000  Uiso   1.00
C441   C     0.19467   0.69061   0.27543   0.00000  Uiso   1.00
C442   C     0.13866   0.97606   0.22457   0.00000  Uiso   1.00
C443   C     0.13866   0.69067   0.22456   0.00000  Uiso   1.00
C444   C     0.19467   0.97599   0.27544   0.00000  Uiso   1.00
H445   H     0.21708   0.70872   0.29576   0.00000  Uiso   1.00
H446   H     0.11626   0.95794   0.20424   0.00000  Uiso   1.00
H447   H     0.11627   0.70885   0.20420   0.00000  Uiso   1.00
H448   H     0.21706   0.95781   0.29580   0.00000  Uiso   1.00
N449   N     0.16667   0.95240   0.25000   0.00000  Uiso   1.00
N450   N     0.16667   0.71427   0.25000   0.00000  Uiso   1.00
N451   N     0.24247   0.81314   0.38270   0.00000  Uiso   1.00
O452   O     0.24525   0.77710   0.35791   0.00000  Uiso   1.00
O453   O     0.27385   0.84093   0.38509   0.00000  Uiso   1.00
N454   N     0.09087   0.85354   0.11730   0.00000  Uiso   1.00
O455   O     0.08808   0.88960   0.14206   0.00000  Uiso   1.00
O456   O     0.05949   0.82574   0.11493   0.00000  Uiso   1.00
N457   N     0.05810   0.87615   0.45190   0.00000  Uiso   1.00
O458   O     0.06146   0.90944   0.42350   0.00000  Uiso   1.00
O459   O     0.02116   0.86377   0.46495   0.00000  Uiso   1.00
N460   N     0.27523   0.79051   0.04810   0.00000  Uiso   1.00
O461   O     0.27187   0.75722   0.07650   0.00000  Uiso   1.00
O462   O     0.31217   0.80289   0.03506   0.00000  Uiso   1.00
O463   O     0.43892   0.87154   0.25000   0.00000  Uiso   1.00
O464   O     0.56108   0.79513   0.25000   0.00000  Uiso   1.00
O465   O     0.56108   0.87154   0.25001   0.00000  Uiso   1.00
O466   O     0.43892   0.79513   0.24999   0.00000  Uiso   1.00
C467   C     0.41997   0.83333   0.24995   0.00000  Uiso   1.00
C468   C     0.58003   0.83334   0.25005   0.00000  Uiso   1.00
O469   O     0.49999   0.87156   0.18393   0.00000  Uiso   1.00
O470   O     0.50001   0.79511   0.31607   0.00000  Uiso   1.00
O471   O     0.50001   0.87156   0.31607   0.00000  Uiso   1.00
O472   O     0.49999   0.79511   0.18392   0.00000  Uiso   1.00
C473   C     0.49925   0.83337   0.16359   0.00000  Uiso   1.00
C474   C     0.50075   0.83329   0.33641   0.00000  Uiso   1.00
Zn475  Zn    0.50000   0.88437   0.25000   0.00000  Uiso   1.00
Zn476  Zn    0.50000   0.78229   0.25000   0.00000  Uiso   1.00
C477   C     0.53820   0.82253   0.40700   0.00000  Uiso   1.00
C478   C     0.46180   0.84414   0.09300   0.00000  Uiso   1.00
C479   C     0.50153   0.83325   0.38402   0.00000  Uiso   1.00
C480   C     0.49847   0.83342   0.11598   0.00000  Uiso   1.00
C481   C     0.46522   0.84537   0.40596   0.00000  Uiso   1.00
C482   C     0.53478   0.82129   0.09404   0.00000  Uiso   1.00
C483   C     0.46427   0.84694   0.45243   0.00000  Uiso   1.00
C484   C     0.53573   0.81972   0.04757   0.00000  Uiso   1.00
C485   C     0.50048   0.83397   0.47658   0.00000  Uiso   1.00
C486   C     0.49952   0.83269   0.02342   0.00000  Uiso   1.00
C487   C     0.53765   0.82215   0.45384   0.00000  Uiso   1.00
C488   C     0.46235   0.84452   0.04616   0.00000  Uiso   1.00
C489   C     0.42770   0.85982   0.47524   0.00000  Uiso   1.00
C490   C     0.57230   0.80684   0.02476   0.00000  Uiso   1.00
C491   C     0.42700   0.85785   0.02181   0.00000  Uiso   1.00
C492   C     0.57300   0.80881   0.47819   0.00000  Uiso   1.00
H493   H     0.43771   0.85270   0.38615   0.00000  Uiso   1.00
H494   H     0.56229   0.81396   0.11385   0.00000  Uiso   1.00
H495   H     0.39890   0.86838   0.03883   0.00000  Uiso   1.00
H496   H     0.60110   0.79828   0.46117   0.00000  Uiso   1.00
C497   C     0.35461   0.79355   0.23895   0.00000  Uiso   1.00
C498   C     0.64539   0.87311   0.26105   0.00000  Uiso   1.00
C499   C     0.64528   0.79354   0.23905   0.00000  Uiso   1.00
C500   C     0.35472   0.87313   0.26095   0.00000  Uiso   1.00
H501   H     0.37085   0.76271   0.23002   0.00000  Uiso   1.00
H502   H     0.62915   0.90395   0.26998   0.00000  Uiso   1.00
H503   H     0.62894   0.76268   0.23020   0.00000  Uiso   1.00
H504   H     0.37106   0.90398   0.26980   0.00000  Uiso   1.00
C505   C     0.62417   0.83333   0.25008   0.00000  Uiso   1.00
C506   C     0.37583   0.83334   0.24992   0.00000  Uiso   1.00
C507   C     0.52801   0.69061   0.27543   0.00000  Uiso   1.00
C508   C     0.47199   0.97606   0.22457   0.00000  Uiso   1.00
C509   C     0.47200   0.69067   0.22456   0.00000  Uiso   1.00
C510   C     0.52800   0.97599   0.27544   0.00000  Uiso   1.00
H511   H     0.55041   0.70872   0.29576   0.00000  Uiso   1.00
H512   H     0.44959   0.95794   0.20424   0.00000  Uiso   1.00
H513   H     0.44961   0.70885   0.20420   0.00000  Uiso   1.00
H514   H     0.55039   0.95781   0.29580   0.00000  Uiso   1.00
N515   N     0.50000   0.95240   0.25000   0.00000  Uiso   1.00
N516   N     0.50000   0.71427   0.25000   0.00000  Uiso   1.00
N517   N     0.57580   0.81314   0.38270   0.00000  Uiso   1.00
O518   O     0.57859   0.77710   0.35791   0.00000  Uiso   1.00
O519   O     0.60719   0.84093   0.38509   0.00000  Uiso   1.00
N520   N     0.42421   0.85354   0.11730   0.00000  Uiso   1.00
O521   O     0.42142   0.88960   0.14206   0.00000  Uiso   1.00
O522   O     0.39282   0.82574   0.11493   0.00000  Uiso   1.00
N523   N     0.39144   0.87615   0.45190   0.00000  Uiso   1.00
O524   O     0.39479   0.90944   0.42350   0.00000  Uiso   1.00
O525   O     0.35449   0.86377   0.46495   0.00000  Uiso   1.00
N526   N     0.60856   0.79051   0.04810   0.00000  Uiso   1.00
O527   O     0.60521   0.75722   0.07650   0.00000  Uiso   1.00
O528   O     0.64551   0.80289   0.03506   0.00000  Uiso   1.00
O529   O     0.77226   0.87154   0.25000   0.00000  Uiso   1.00
O530   O     0.89441   0.79513   0.25000   0.00000  Uiso   1.00
O531   O     0.89441   0.87154   0.25001   0.00000  Uiso   1.00
O532   O     0.77226   0.79513   0.24999   0.00000  Uiso   1.00
C533   C     0.75331   0.83333   0.24995   0.00000  Uiso   1.00
C534   C     0.91336   0.83334   0.25005   0.00000  Uiso   1.00
O535   O     0.83333   0.87156   0.18393   0.00000  Uiso   1.00
O536   O     0.83334   0.79511   0.31607   0.00000  Uiso   1.00
O537   O     0.83334   0.87156   0.31607   0.00000  Uiso   1.00
O538   O     0.83333   0.79511   0.18392   0.00000  Uiso   1.00
C539   C     0.83258   0.83337   0.16359   0.00000  Uiso   1.00
C540   C     0.83408   0.83329   0.33641   0.00000  Uiso   1.00
Zn541  Zn    0.83333   0.88437   0.25000   0.00000  Uiso   1.00
Zn542  Zn    0.83333   0.78229   0.25000   0.00000  Uiso   1.00
C543   C     0.87154   0.82253   0.40700   0.00000  Uiso   1.00
C544   C     0.79513   0.84414   0.09300   0.00000  Uiso   1.00
C545   C     0.83487   0.83325   0.38402   0.00000  Uiso   1.00
C546   C     0.83180   0.83342   0.11598   0.00000  Uiso   1.00
C547   C     0.79856   0.84537   0.40596   0.00000  Uiso   1.00
C548   C     0.86811   0.82129   0.09404   0.00000  Uiso   1.00
C549   C     0.79761   0.84694   0.45243   0.00000  Uiso   1.00
C550   C     0.86906   0.81972   0.04757   0.00000  Uiso   1.00
C551   C     0.83382   0.83397   0.47658   0.00000  Uiso   1.00
C552   C     0.83285   0.83269   0.02342   0.00000  Uiso   1.00
C553   C     0.87098   0.82215   0.45384   0.00000  Uiso   1.00
C554   C     0.79569   0.84452   0.04616   0.00000  Uiso   1.00
C555   C     0.76104   0.85982   0.47524   0.00000  Uiso   1.00
C556   C     0.90563   0.80684   0.02476   0.00000  Uiso   1.00
C557   C     0.76034   0.85785   0.02181   0.00000  Uiso   1.00
C558   C     0.90633   0.80881   0.47819   0.00000  Uiso   1.00
H559   H     0.77104   0.85270   0.38615   0.00000  Uiso   1.00
H560   H     0.89563   0.81396   0.11385   0.00000  Uiso   1.00
H561   H     0.73223   0.86838   0.03883   0.00000  Uiso   1.00
H562   H     0.93444   0.79828   0.46117   0.00000  Uiso   1.00
C563   C     0.68794   0.79355   0.23895   0.00000  Uiso   1.00
C564   C     0.97873   0.87311   0.26105   0.00000  Uiso   1.00
C565   C     0.97861   0.79354   0.23905   0.00000  Uiso   1.00
C566   C     0.68806   0.87313   0.26095   0.00000  Uiso   1.00
H567   H     0.70418   0.76271   0.23002   0.00000  Uiso   1.00
H568   H     0.96248   0.90395   0.26998   0.00000  Uiso   1.00
H569   H     0.96227   0.76268   0.23020   0.00000  Uiso   1.00
H570   H     0.70439   0.90398   0.26980   0.00000  Uiso   1.00
C571   C     0.95750   0.83333   0.25008   0.00000  Uiso   1.00
C572   C     0.70916   0.83334   0.24992   0.00000  Uiso   1.00
C573   C     0.86134   0.69061   0.27543   0.00000  Uiso   1.00
C574   C     0.80533   0.97606   0.22457   0.00000  Uiso   1.00
C575   C     0.80533   0.69067   0.22456   0.00000  Uiso   1.00
C576   C     0.86134   0.97599   0.27544   0.00000  Uiso   1.00
H577   H     0.88374   0.70872   0.29576   0.00000  Uiso   1.00
H578   H     0.78292   0.95794   0.20424   0.00000  Uiso   1.00
H579   H     0.78294   0.70885   0.20420   0.00000  Uiso   1.00
H580   H     0.88373   0.95781   0.29580   0.00000  Uiso   1.00
N581   N     0.83333   0.95240   0.25000   0.00000  Uiso   1.00
N582   N     0.83333   0.71427   0.25000   0.00000  Uiso   1.00
N583   N     0.90913   0.81314   0.38270   0.00000  Uiso   1.00
O584   O     0.91192   0.77710   0.35791   0.00000  Uiso   1.00
O585   O     0.94052   0.84093   0.38509   0.00000  Uiso   1.00
N586   N     0.75754   0.85354   0.11730   0.00000  Uiso   1.00
O587   O     0.75475   0.88960   0.14206   0.00000  Uiso   1.00
O588   O     0.72616   0.82574   0.11493   0.00000  Uiso   1.00
N589   N     0.72477   0.87615   0.45190   0.00000  Uiso   1.00
O590   O     0.72813   0.90944   0.42350   0.00000  Uiso   1.00
O591   O     0.68783   0.86377   0.46495   0.00000  Uiso   1.00
N592   N     0.94190   0.79051   0.04810   0.00000  Uiso   1.00
O593   O     0.93854   0.75722   0.07650   0.00000  Uiso   1.00
O594   O     0.97884   0.80289   0.03506   0.00000  Uiso   1.00
O595   O     0.10559   0.20487   0.75000   0.00000  Uiso   1.00
O596   O     0.22774   0.12846   0.75000   0.00000  Uiso   1.00
O597   O     0.22774   0.20487   0.75001   0.00000  Uiso   1.00
O598   O     0.10559   0.12846   0.74999   0.00000  Uiso   1.00
C599   C     0.08664   0.16666   0.74995   0.00000  Uiso   1.00
C600   C     0.24669   0.16667   0.75005   0.00000  Uiso   1.00
O601   O     0.16666   0.20489   0.68393   0.00000  Uiso   1.00
O602   O     0.16667   0.12844   0.81607   0.00000  Uiso   1.00
O603   O     0.16667   0.20489   0.81607   0.00000  Uiso   1.00
O604   O     0.16666   0.12844   0.68392   0.00000  Uiso   1.00
C605   C     0.16592   0.16671   0.66359   0.00000  Uiso   1.00
C606   C     0.16742   0.16663   0.83641   0.00000  Uiso   1.00
Zn607  Zn    0.16667   0.21771   0.75000   0.00000  Uiso   1.00
Zn608  Zn    0.16667   0.11563   0.75000   0.00000  Uiso   1.00
C609   C     0.20487   0.15586   0.90700   0.00000  Uiso   1.00
C610   C     0.12847   0.17747   0.59300   0.00000  Uiso   1.00
C611   C     0.16820   0.16658   0.88402   0.00000  Uiso   1.00
C612   C     0.16514   0.16675   0.61598   0.00000  Uiso   1.00
C613   C     0.13189   0.17871   0.90596   0.00000  Uiso   1.00
C614   C     0.20144   0.15462   0.59404   0.00000  Uiso   1.00
C615   C     0.13094   0.18028   0.95243   0.00000  Uiso   1.00
C616   C     0.20240   0.15305   0.54757   0.00000  Uiso   1.00
C617   C     0.16715   0.16730   0.97658   0.00000  Uiso   1.00
C618   C     0.16619   0.16603   0.52342   0.00000  Uiso   1.00
C619   C     0.20432   0.15548   0.95384   0.00000  Uiso   1.00
C620   C     0.12902   0.17785   0.54616   0.00000  Uiso   1.00
C621   C     0.09437   0.19315   0.97524   0.00000  Uiso   1.00
C622   C     0.23896   0.14018   0.52476   0.00000  Uiso   1.00
C623   C     0.09367   0.19118   0.52181   0.00000  Uiso   1.00
C624   C     0.23967   0.14215   0.97819   0.00000  Uiso   1.00
H625   H     0.10437   0.18603   0.88615   0.00000  Uiso   1.00
H626   H     0.22896   0.14730   0.61385   0.00000  Uiso   1.00
H627   H     0.06557   0.20172   0.53883   0.00000  Uiso   1.00
H628   H     0.26777   0.13161   0.96117   0.00000  Uiso   1.00
C629   C     0.02127   0.12689   0.73895   0.00000  Uiso   1.00
C630   C     0.31206   0.20645   0.76105   0.00000  Uiso   1.00
C631   C     0.31194   0.12687   0.73905   0.00000  Uiso   1.00
C632   C     0.02139   0.20646   0.76095   0.00000  Uiso   1.00
H633   H     0.03752   0.09605   0.73002   0.00000  Uiso   1.00
H634   H     0.29582   0.23729   0.76998   0.00000  Uiso   1.00
H635   H     0.29561   0.09602   0.73020   0.00000  Uiso   1.00
H636   H     0.03773   0.23732   0.76980   0.00000  Uiso   1.00
C637   C     0.29084   0.16666   0.75008   0.00000  Uiso   1.00
C638   C     0.04250   0.16667   0.74992   0.00000  Uiso   1.00
C639   C     0.19467   0.02394   0.77543   0.00000  Uiso   1.00
C640   C     0.13866   0.30939   0.72457   0.00000  Uiso   1.00
C641   C     0.13866   0.02401   0.72456   0.00000  Uiso   1.00
C642   C     0.19467   0.30933   0.77544   0.00000  Uiso   1.00
H643   H     0.21708   0.04206   0.79576   0.00000  Uiso   1.00
H644   H     0.11626   0.29128   0.70424   0.00000  Uiso   1.00
H645   H     0.11627   0.04219   0.70420   0.00000  Uiso   1.00
H646   H     0.21706   0.29115   0.79580   0.00000  Uiso   1.00
N647   N     0.16667   0.28573   0.75000   0.00000  Uiso   1.00
N648   N     0.16667   0.04760   0.75000   0.00000  Uiso   1.00
N649   N     0.24247   0.14647   0.88270   0.00000  Uiso   1.00
O650   O     0.24525   0.11044   0.85791   0.00000  Uiso   1.00
O651   O     0.27385   0.17426   0.88509   0.00000  Uiso   1.00
N652   N     0.09087   0.18687   0.61730   0.00000  Uiso   1.00
O653   O     0.08808   0.22293   0.64206   0.00000  Uiso   1.00
O654   O     0.05949   0.15908   0.61493   0.00000  Uiso   1.00
N655   N     0.05810   0.20949   0.95190   0.00000  Uiso   1.00
O656   O     0.06146   0.24277   0.92350   0.00000  Uiso   1.00
O657   O     0.02116   0.19711   0.96495   0.00000  Uiso   1.00
N658   N     0.27523   0.12384   0.54810   0.00000  Uiso   1.00
O659   O     0.27187   0.09055   0.57650   0.00000  Uiso   1.00
O660   O     0.31217   0.13622   0.53506   0.00000  Uiso   1.00
O661   O     0.43892   0.20487   0.75000   0.00000  Uiso   1.00
O662   O     0.56108   0.12846   0.75000   0.00000  Uiso   1.00
O663   O     0.56108   0.20487   0.75001   0.00000  Uiso   1.00
O664   O     0.43892   0.12846   0.74999   0.00000  Uiso   1.00
C665   C     0.41997   0.16666   0.74995   0.00000  Uiso   1.00
C666   C     0.58003   0.16667   0.75005   0.00000  Uiso   1.00
O667   O     0.49999   0.20489   0.68393   0.00000  Uiso   1.00
O668   O     0.50001   0.12844   0.81607   0.00000  Uiso   1.00
O669   O     0.50001   0.20489   0.81607   0.00000  Uiso   1.00
O670   O     0.49999   0.12844   0.68392   0.00000  Uiso   1.00
C671   C     0.49925   0.16671   0.66359   0.00000  Uiso   1.00
C672   C     0.50075   0.16663   0.83641   0.00000  Uiso   1.00
Zn673  Zn    0.50000   0.21771   0.75000   0.00000  Uiso   1.00
Zn674  Zn    0.50000   0.11563   0.75000   0.00000  Uiso   1.00
C675   C     0.53820   0.15586   0.90700   0.00000  Uiso   1.00
C676   C     0.46180   0.17747   0.59300   0.00000  Uiso   1.00
C677   C     0.50153   0.16658   0.88402   0.00000  Uiso   1.00
C678   C     0.49847   0.16675   0.61598   0.00000  Uiso   1.00
C679   C     0.46522   0.17871   0.90596   0.00000  Uiso   1.00
C680   C     0.53478   0.15462   0.59404   0.00000  Uiso   1.00
C681   C     0.46427   0.18028   0.95243   0.00000  Uiso   1.00
C682   C     0.53573   0.15305   0.54757   0.00000  Uiso   1.00
C683   C     0.50048   0.16730   0.97658   0.00000  Uiso   1.00
C684   C     0.49952   0.16603   0.52342   0.00000  Uiso   1.00
C685   C     0.53765   0.15548   0.95384   0.00000  Uiso   1.00
C686   C     0.46235   0.17785   0.54616   0.00000  Uiso   1.00
C687   C     0.42770   0.19315   0.97524   0.00000  Uiso   1.00
C688   C     0.57230   0.14018   0.52476   0.00000  Uiso   1.00
C689   C     0.42700   0.19118   0.52181   0.00000  Uiso   1.00
C690   C     0.57300   0.14215   0.97819   0.00000  Uiso   1.00
H691   H     0.43771   0.18603   0.88615   0.00000  Uiso   1.00
H692   H     0.56229   0.14730   0.61385   0.00000  Uiso   1.00
H693   H     0.39890   0.20172   0.53883   0.00000  Uiso   1.00
H694   H     0.60110   0.13161   0.96117   0.00000  Uiso   1.00
C695   C     0.35461   0.12689   0.73895   0.00000  Uiso   1.00
C696   C     0.64539   0.20645   0.76105   0.00000  Uiso   1.00
C697   C     0.64528   0.12687   0.73905   0.00000  Uiso   1.00
C698   C     0.35472   0.20646   0.76095   0.00000  Uiso   1.00
H699   H     0.37085   0.09605   0.73002   0.00000  Uiso   1.00
H700   H     0.62915   0.23729   0.76998   0.00000  Uiso   1.00
H701   H     0.62894   0.09602   0.73020   0.00000  Uiso   1.00
H702   H     0.37106   0.23732   0.76980   0.00000  Uiso   1.00
C703   C     0.62417   0.16666   0.75008   0.00000  Uiso   1.00
C704   C     0.37583   0.16667   0.74992   0.00000  Uiso   1.00
C705   C     0.52801   0.02394   0.77543   0.00000  Uiso   1.00
C706   C     0.47199   0.30939   0.72457   0.00000  Uiso   1.00
C707   C     0.47200   0.02401   0.72456   0.00000  Uiso   1.00
C708   C     0.52800   0.30933   0.77544   0.00000  Uiso   1.00
H709   H     0.55041   0.04206   0.79576   0.00000  Uiso   1.00
H710   H     0.44959   0.29128   0.70424   0.00000  Uiso   1.00
H711   H     0.44961   0.04219   0.70420   0.00000  Uiso   1.00
H712   H     0.55039   0.29115   0.79580   0.00000  Uiso   1.00
N713   N     0.50000   0.28573   0.75000   0.00000  Uiso   1.00
N714   N     0.50000   0.04760   0.75000   0.00000  Uiso   1.00
N715   N     0.57580   0.14647   0.88270   0.00000  Uiso   1.00
O716   O     0.57859   0.11044   0.85791   0.00000  Uiso   1.00
O717   O     0.60719   0.17426   0.88509   0.00000  Uiso   1.00
N718   N     0.42421   0.18687   0.61730   0.00000  Uiso   1.00
O719   O     0.42142   0.22293   0.64206   0.00000  Uiso   1.00
O720   O     0.39282   0.15908   0.61493   0.00000  Uiso   1.00
N721   N     0.39144   0.20949   0.95190   0.00000  Uiso   1.00
O722   O     0.39479   0.24277   0.92350   0.00000  Uiso   1.00
O723   O     0.35449   0.19711   0.96495   0.00000  Uiso   1.00
N724   N     0.60856   0.12384   0.54810   0.00000  Uiso   1.00
O725   O     0.60521   0.09055   0.57650   0.00000  Uiso   1.00
O726   O     0.64551   0.13622   0.53506   0.00000  Uiso   1.00
O727   O     0.77226   0.20487   0.75000   0.00000  Uiso   1.00
O728   O     0.89441   0.12846   0.75000   0.00000  Uiso   1.00
O729   O     0.89441   0.20487   0.75001   0.00000  Uiso   1.00
O730   O     0.77226   0.12846   0.74999   0.00000  Uiso   1.00
C731   C     0.75331   0.16666   0.74995   0.00000  Uiso   1.00
C732   C     0.91336   0.16667   0.75005   0.00000  Uiso   1.00
O733   O     0.83333   0.20489   0.68393   0.00000  Uiso   1.00
O734   O     0.83334   0.12844   0.81607   0.00000  Uiso   1.00
O735   O     0.83334   0.20489   0.81607   0.00000  Uiso   1.00
O736   O     0.83333   0.12844   0.68392   0.00000  Uiso   1.00
C737   C     0.83258   0.16671   0.66359   0.00000  Uiso   1.00
C738   C     0.83408   0.16663   0.83641   0.00000  Uiso   1.00
Zn739  Zn    0.83333   0.21771   0.75000   0.00000  Uiso   1.00
Zn740  Zn    0.83333   0.11563   0.75000   0.00000  Uiso   1.00
C741   C     0.87154   0.15586   0.90700   0.00000  Uiso   1.00
C742   C     0.79513   0.17747   0.59300   0.00000  Uiso   1.00
C743   C     0.83487   0.16658   0.88402   0.00000  Uiso   1.00
C744   C     0.83180   0.16675   0.61598   0.00000  Uiso   1.00
C745   C     0.79856   0.17871   0.90596   0.00000  Uiso   1.00
C746   C     0.86811   0.15462   0.59404   0.00000  Uiso   1.00
C747   C     0.79761   0.18028   0.95243   0.00000  Uiso   1.00
C748   C     0.86906   0.15305   0.54757   0.00000  Uiso   1.00
C749   C     0.83382   0.16730   0.97658   0.00000  Uiso   1.00
C750   C     0.83285   0.16603   0.52342   0.00000  Uiso   1.00
C751   C     0.87098   0.15548   0.95384   0.00000  Uiso   1.00
C752   C     0.79569   0.17785   0.54616   0.00000  Uiso   1.00
C753   C     0.76104   0.19315   0.97524   0.00000  Uiso   1.00
C754   C     0.90563   0.14018   0.52476   0.00000  Uiso   1.00
C755   C     0.76034   0.19118   0.52181   0.00000  Uiso   1.00
C756   C     0.90633   0.14215   0.97819   0.00000  Uiso   1.00
H757   H     0.77104   0.18603   0.88615   0.00000  Uiso   1.00
H758   H     0.89563   0.14730   0.61385   0.00000  Uiso   1.00
H759   H     0.73223   0.20172   0.53883   0.00000  Uiso   1.00
H760   H     0.93444   0.13161   0.96117   0.00000  Uiso   1.00
C761   C     0.68794   0.12689   0.73895   0.00000  Uiso   1.00
C762   C     0.97873   0.20645   0.76105   0.00000  Uiso   1.00
C763   C     0.97861   0.12687   0.73905   0.00000  Uiso   1.00
C764   C     0.68806   0.20646   0.76095   0.00000  Uiso   1.00
H765   H     0.70418   0.09605   0.73002   0.00000  Uiso   1.00
H766   H     0.96248   0.23729   0.76998   0.00000  Uiso   1.00
H767   H     0.96227   0.09602   0.73020   0.00000  Uiso   1.00
H768   H     0.70439   0.23732   0.76980   0.00000  Uiso   1.00
C769   C     0.95750   0.16666   0.75008   0.00000  Uiso   1.00
C770   C     0.70916   0.16667   0.74992   0.00000  Uiso   1.00
C771   C     0.86134   0.02394   0.77543   0.00000  Uiso   1.00
C772   C     0.80533   0.30939   0.72457   0.00000  Uiso   1.00
C773   C     0.80533   0.02401   0.72456   0.00000  Uiso   1.00
C774   C     0.86134   0.30933   0.77544   0.00000  Uiso   1.00
H775   H     0.88374   0.04206   0.79576   0.00000  Uiso   1.00
H776   H     0.78292   0.29128   0.70424   0.00000  Uiso   1.00
H777   H     0.78294   0.04219   0.70420   0.00000  Uiso   1.00
H778   H     0.88373   0.29115   0.79580   0.00000  Uiso   1.00
N779   N     0.83333   0.28573   0.75000   0.00000  Uiso   1.00
N780   N     0.83333   0.04760   0.75000   0.00000  Uiso   1.00
N781   N     0.90913   0.14647   0.88270   0.00000  Uiso   1.00
O782   O     0.91192   0.11044   0.85791   0.00000  Uiso   1.00
O783   O     0.94052   0.17426   0.88509   0.00000  Uiso   1.00
N784   N     0.75754   0.18687   0.61730   0.00000  Uiso   1.00
O785   O     0.75475   0.22293   0.64206   0.00000  Uiso   1.00
O786   O     0.72616   0.15908   0.61493   0.00000  Uiso   1.00
N787   N     0.72477   0.20949   0.95190   0.00000  Uiso   1.00
O788   O     0.72813   0.24277   0.92350   0.00000  Uiso   1.00
O789   O     0.68783   0.19711   0.96495   0.00000  Uiso   1.00
N790   N     0.94190   0.12384   0.54810   0.00000  Uiso   1.00
O791   O     0.93854   0.09055   0.57650   0.00000  Uiso   1.00
O792   O     0.97884   0.13622   0.53506   0.00000  Uiso   1.00
O793   O     0.10559   0.53821   0.75000   0.00000  Uiso   1.00
O794   O     0.22774   0.46179   0.75000   0.00000  Uiso   1.00
O795   O     0.22774   0.53821   0.75001   0.00000  Uiso   1.00
O796   O     0.10559   0.46179   0.74999   0.00000  Uiso   1.00
C797   C     0.08664   0.49999   0.74995   0.00000  Uiso   1.00
C798   C     0.24669   0.50001   0.75005   0.00000  Uiso   1.00
O799   O     0.16666   0.53823   0.68393   0.00000  Uiso   1.00
O800   O     0.16667   0.46177   0.81607   0.00000  Uiso   1.00
O801   O     0.16667   0.53823   0.81607   0.00000  Uiso   1.00
O802   O     0.16666   0.46177   0.68392   0.00000  Uiso   1.00
C803   C     0.16592   0.50004   0.66359   0.00000  Uiso   1.00
C804   C     0.16742   0.49996   0.83641   0.00000  Uiso   1.00
Zn805  Zn    0.16667   0.55104   0.75000   0.00000  Uiso   1.00
Zn806  Zn    0.16667   0.44896   0.75000   0.00000  Uiso   1.00
C807   C     0.20487   0.48920   0.90700   0.00000  Uiso   1.00
C808   C     0.12847   0.51080   0.59300   0.00000  Uiso   1.00
C809   C     0.16820   0.49992   0.88402   0.00000  Uiso   1.00
C810   C     0.16514   0.50008   0.61598   0.00000  Uiso   1.00
C811   C     0.13189   0.51204   0.90596   0.00000  Uiso   1.00
C812   C     0.20144   0.48795   0.59404   0.00000  Uiso   1.00
C813   C     0.13094   0.51361   0.95243   0.00000  Uiso   1.00
C814   C     0.20240   0.48638   0.54757   0.00000  Uiso   1.00
C815   C     0.16715   0.50064   0.97658   0.00000  Uiso   1.00
C816   C     0.16619   0.49936   0.52342   0.00000  Uiso   1.00
C817   C     0.20432   0.48881   0.95384   0.00000  Uiso   1.00
C818   C     0.12902   0.51118   0.54616   0.00000  Uiso   1.00
C819   C     0.09437   0.52648   0.97524   0.00000  Uiso   1.00
C820   C     0.23896   0.47351   0.52476   0.00000  Uiso   1.00
C821   C     0.09367   0.52452   0.52181   0.00000  Uiso   1.00
C822   C     0.23967   0.47548   0.97819   0.00000  Uiso   1.00
H823   H     0.10437   0.51936   0.88615   0.00000  Uiso   1.00
H824   H     0.22896   0.48063   0.61385   0.00000  Uiso   1.00
H825   H     0.06557   0.53505   0.53883   0.00000  Uiso   1.00
H826   H     0.26777   0.46494   0.96117   0.00000  Uiso   1.00
C827   C     0.02127   0.46022   0.73895   0.00000  Uiso   1.00
C828   C     0.31206   0.53978   0.76105   0.00000  Uiso   1.00
C829   C     0.31194   0.46021   0.73905   0.00000  Uiso   1.00
C830   C     0.02139   0.53979   0.76095   0.00000  Uiso   1.00
H831   H     0.03752   0.42938   0.73002   0.00000  Uiso   1.00
H832   H     0.29582   0.57062   0.76998   0.00000  Uiso   1.00
H833   H     0.29561   0.42935   0.73020   0.00000  Uiso   1.00
H834   H     0.03773   0.57065   0.76980   0.00000  Uiso   1.00
C835   C     0.29084   0.50000   0.75008   0.00000  Uiso   1.00
C836   C     0.04250   0.50000   0.74992   0.00000  Uiso   1.00
C837   C     0.19467   0.35727   0.77543   0.00000  Uiso   1.00
C838   C     0.13866   0.64273   0.72457   0.00000  Uiso   1.00
C839   C     0.13866   0.35734   0.72456   0.00000  Uiso   1.00
C840   C     0.19467   0.64266   0.77544   0.00000  Uiso   1.00
H841   H     0.21708   0.37539   0.79576   0.00000  Uiso   1.00
H842   H     0.11626   0.62461   0.70424   0.00000  Uiso   1.00
H843   H     0.11627   0.37552   0.70420   0.00000  Uiso   1.00
H844   H     0.21706   0.62448   0.79580   0.00000  Uiso   1.00
N845   N     0.16667   0.61907   0.75000   0.00000  Uiso   1.00
N846   N     0.16667   0.38093   0.75000   0.00000  Uiso   1.00
N847   N     0.24247   0.47981   0.88270   0.00000  Uiso   1.00
O848   O     0.24525   0.44377   0.85791   0.00000  Uiso   1.00
O849   O     0.27385   0.50760   0.88509   0.00000  Uiso   1.00
N850   N     0.09087   0.52020   0.61730   0.00000  Uiso   1.00
O851   O     0.08808   0.55627   0.64206   0.00000  Uiso   1.00
O852   O     0.05949   0.49241   0.61493   0.00000  Uiso   1.00
N853   N     0.05810   0.54282   0.95190   0.00000  Uiso   1.00
O854   O     0.06146   0.57611   0.92350   0.00000  Uiso   1.00
O855   O     0.02116   0.53044   0.96495   0.00000  Uiso   1.00
N856   N     0.27523   0.45717   0.54810   0.00000  Uiso   1.00
O857   O     0.27187   0.42389   0.57650   0.00000  Uiso   1.00
O858   O     0.31217   0.46955   0.53506   0.00000  Uiso   1.00
O859   O     0.43892   0.53821   0.75000   0.00000  Uiso   1.00
O860   O     0.56108   0.46179   0.75000   0.00000  Uiso   1.00
O861   O     0.56108   0.53821   0.75001   0.00000  Uiso   1.00
O862   O     0.43892   0.46179   0.74999   0.00000  Uiso   1.00
C863   C     0.41997   0.49999   0.74995   0.00000  Uiso   1.00
C864   C     0.58003   0.50001   0.75005   0.00000  Uiso   1.00
O865   O     0.49999   0.53823   0.68393   0.00000  Uiso   1.00
O866   O     0.50001   0.46177   0.81607   0.00000  Uiso   1.00
O867   O     0.50001   0.53823   0.81607   0.00000  Uiso   1.00
O868   O     0.49999   0.46177   0.68392   0.00000  Uiso   1.00
C869   C     0.49925   0.50004   0.66359   0.00000  Uiso   1.00
C870   C     0.50075   0.49996   0.83641   0.00000  Uiso   1.00
Zn871  Zn    0.50000   0.55104   0.75000   0.00000  Uiso   1.00
Zn872  Zn    0.50000   0.44896   0.75000   0.00000  Uiso   1.00
C873   C     0.53820   0.48920   0.90700   0.00000  Uiso   1.00
C874   C     0.46180   0.51080   0.59300   0.00000  Uiso   1.00
C875   C     0.50153   0.49992   0.88402   0.00000  Uiso   1.00
C876   C     0.49847   0.50008   0.61598   0.00000  Uiso   1.00
C877   C     0.46522   0.51204   0.90596   0.00000  Uiso   1.00
C878   C     0.53478   0.48795   0.59404   0.00000  Uiso   1.00
C879   C     0.46427   0.51361   0.95243   0.00000  Uiso   1.00
C880   C     0.53573   0.48638   0.54757   0.00000  Uiso   1.00
C881   C     0.50048   0.50064   0.97658   0.00000  Uiso   1.00
C882   C     0.49952   0.49936   0.52342   0.00000  Uiso   1.00
C883   C     0.53765   0.48881   0.95384   0.00000  Uiso   1.00
C884   C     0.46235   0.51118   0.54616   0.00000  Uiso   1.00
C885   C     0.42770   0.52648   0.97524   0.00000  Uiso   1.00
C886   C     0.57230   0.47351   0.52476   0.00000  Uiso   1.00
C887   C     0.42700   0.52452   0.52181   0.00000  Uiso   1.00
C888   C     0.57300   0.47548   0.97819   0.00000  Uiso   1.00
H889   H     0.43771   0.51936   0.88615   0.00000  Uiso   1.00
H890   H     0.56229   0.48063   0.61385   0.00000  Uiso   1.00
H891   H     0.39890   0.53505   0.53883   0.00000  Uiso   1.00
H892   H     0.60110   0.46494   0.96117   0.00000  Uiso   1.00
C893   C     0.35461   0.46022   0.73895   0.00000  Uiso   1.00
C894   C     0.64539   0.53978   0.76105   0.00000  Uiso   1.00
C895   C     0.64528   0.46021   0.73905   0.00000  Uiso   1.00
C896   C     0.35472   0.53979   0.76095   0.00000  Uiso   1.00
H897   H     0.37085   0.42938   0.73002   0.00000  Uiso   1.00
H898   H     0.62915   0.57062   0.76998   0.00000  Uiso   1.00
H899   H     0.62894   0.42935   0.73020   0.00000  Uiso   1.00
H900   H     0.37106   0.57065   0.76980   0.00000  Uiso   1.00
C901   C     0.62417   0.50000   0.75008   0.00000  Uiso   1.00
C902   C     0.37583   0.50000   0.74992   0.00000  Uiso   1.00
C903   C     0.52801   0.35727   0.77543   0.00000  Uiso   1.00
C904   C     0.47199   0.64273   0.72457   0.00000  Uiso   1.00
C905   C     0.47200   0.35734   0.72456   0.00000  Uiso   1.00
C906   C     0.52800   0.64266   0.77544   0.00000  Uiso   1.00
H907   H     0.55041   0.37539   0.79576   0.00000  Uiso   1.00
H908   H     0.44959   0.62461   0.70424   0.00000  Uiso   1.00
H909   H     0.44961   0.37552   0.70420   0.00000  Uiso   1.00
H910   H     0.55039   0.62448   0.79580   0.00000  Uiso   1.00
N911   N     0.50000   0.61907   0.75000   0.00000  Uiso   1.00
N912   N     0.50000   0.38093   0.75000   0.00000  Uiso   1.00
N913   N     0.57580   0.47981   0.88270   0.00000  Uiso   1.00
O914   O     0.57859   0.44377   0.85791   0.00000  Uiso   1.00
O915   O     0.60719   0.50760   0.88509   0.00000  Uiso   1.00
N916   N     0.42421   0.52020   0.61730   0.00000  Uiso   1.00
O917   O     0.42142   0.55627   0.64206   0.00000  Uiso   1.00
O918   O     0.39282   0.49241   0.61493   0.00000  Uiso   1.00
N919   N     0.39144   0.54282   0.95190   0.00000  Uiso   1.00
O920   O     0.39479   0.57611   0.92350   0.00000  Uiso   1.00
O921   O     0.35449   0.53044   0.96495   0.00000  Uiso   1.00
N922   N     0.60856   0.45717   0.54810   0.00000  Uiso   1.00
O923   O     0.60521   0.42389   0.57650   0.00000  Uiso   1.00
O924   O     0.64551   0.46955   0.53506   0.00000  Uiso   1.00
O925   O     0.77226   0.53821   0.75000   0.00000  Uiso   1.00
O926   O     0.89441   0.46179   0.75000   0.00000  Uiso   1.00
O927   O     0.89441   0.53821   0.75001   0.00000  Uiso   1.00
O928   O     0.77226   0.46179   0.74999   0.00000  Uiso   1.00
C929   C     0.75331   0.49999   0.74995   0.00000  Uiso   1.00
C930   C     0.91336   0.50001   0.75005   0.00000  Uiso   1.00
O931   O     0.83333   0.53823   0.68393   0.00000  Uiso   1.00
O932   O     0.83334   0.46177   0.81607   0.00000  Uiso   1.00
O933   O     0.83334   0.53823   0.81607   0.00000  Uiso   1.00
O934   O     0.83333   0.46177   0.68392   0.00000  Uiso   1.00
C935   C     0.83258   0.50004   0.66359   0.00000  Uiso   1.00
C936   C     0.83408   0.49996   0.83641   0.00000  Uiso   1.00
Zn937  Zn    0.83333   0.55104   0.75000   0.00000  Uiso   1.00
Zn938  Zn    0.83333   0.44896   0.75000   0.00000  Uiso   1.00
C939   C     0.87154   0.48920   0.90700   0.00000  Uiso   1.00
C940   C     0.79513   0.51080   0.59300   0.00000  Uiso   1.00
C941   C     0.83487   0.49992   0.88402   0.00000  Uiso   1.00
C942   C     0.83180   0.50008   0.61598   0.00000  Uiso   1.00
C943   C     0.79856   0.51204   0.90596   0.00000  Uiso   1.00
C944   C     0.86811   0.48795   0.59404   0.00000  Uiso   1.00
C945   C     0.79761   0.51361   0.95243   0.00000  Uiso   1.00
C946   C     0.86906   0.48638   0.54757   0.00000  Uiso   1.00
C947   C     0.83382   0.50064   0.97658   0.00000  Uiso   1.00
C948   C     0.83285   0.49936   0.52342   0.00000  Uiso   1.00
C949   C     0.87098   0.48881   0.95384   0.00000  Uiso   1.00
C950   C     0.79569   0.51118   0.54616   0.00000  Uiso   1.00
C951   C     0.76104   0.52648   0.97524   0.00000  Uiso   1.00
C952   C     0.90563   0.47351   0.52476   0.00000  Uiso   1.00
C953   C     0.76034   0.52452   0.52181   0.00000  Uiso   1.00
C954   C     0.90633   0.47548   0.97819   0.00000  Uiso   1.00
H955   H     0.77104   0.51936   0.88615   0.00000  Uiso   1.00
H956   H     0.89563   0.48063   0.61385   0.00000  Uiso   1.00
H957   H     0.73223   0.53505   0.53883   0.00000  Uiso   1.00
H958   H     0.93444   0.46494   0.96117   0.00000  Uiso   1.00
C959   C     0.68794   0.46022   0.73895   0.00000  Uiso   1.00
C960   C     0.97873   0.53978   0.76105   0.00000  Uiso   1.00
C961   C     0.97861   0.46021   0.73905   0.00000  Uiso   1.00
C962   C     0.68806   0.53979   0.76095   0.00000  Uiso   1.00
H963   H     0.70418   0.42938   0.73002   0.00000  Uiso   1.00
H964   H     0.96248   0.57062   0.76998   0.00000  Uiso   1.00
H965   H     0.96227   0.42935   0.73020   0.00000  Uiso   1.00
H966   H     0.70439   0.57065   0.76980   0.00000  Uiso   1.00
C967   C     0.95750   0.50000   0.75008   0.00000  Uiso   1.00
C968   C     0.70916   0.50000   0.74992   0.00000  Uiso   1.00
C969   C     0.86134   0.35727   0.77543   0.00000  Uiso   1.00
C970   C     0.80533   0.64273   0.72457   0.00000  Uiso   1.00
C971   C     0.80533   0.35734   0.72456   0.00000  Uiso   1.00
C972   C     0.86134   0.64266   0.77544   0.00000  Uiso   1.00
H973   H     0.88374   0.37539   0.79576   0.00000  Uiso   1.00
H974   H     0.78292   0.62461   0.70424   0.00000  Uiso   1.00
H975   H     0.78294   0.37552   0.70420   0.00000  Uiso   1.00
H976   H     0.88373   0.62448   0.79580   0.00000  Uiso   1.00
N977   N     0.83333   0.61907   0.75000   0.00000  Uiso   1.00
N978   N     0.83333   0.38093   0.75000   0.00000  Uiso   1.00
N979   N     0.90913   0.47981   0.88270   0.00000  Uiso   1.00
O980   O     0.91192   0.44377   0.85791   0.00000  Uiso   1.00
O981   O     0.94052   0.50760   0.88509   0.00000  Uiso   1.00
N982   N     0.75754   0.52020   0.61730   0.00000  Uiso   1.00
O983   O     0.75475   0.55627   0.64206   0.00000  Uiso   1.00
O984   O     0.72616   0.49241   0.61493   0.00000  Uiso   1.00
N985   N     0.72477   0.54282   0.95190   0.00000  Uiso   1.00
O986   O     0.72813   0.57611   0.92350   0.00000  Uiso   1.00
O987   O     0.68783   0.53044   0.96495   0.00000  Uiso   1.00
N988   N     0.94190   0.45717   0.54810   0.00000  Uiso   1.00
O989   O     0.93854   0.42389   0.57650   0.00000  Uiso   1.00
O990   O     0.97884   0.46955   0.53506   0.00000  Uiso   1.00
O991   O     0.10559   0.87154   0.75000   0.00000  Uiso   1.00
O992   O     0.22774   0.79513   0.75000   0.00000  Uiso   1.00
O993   O     0.22774   0.87154   0.75001   0.00000  Uiso   1.00
O994   O     0.10559   0.79513   0.74999   0.00000  Uiso   1.00
C995   C     0.08664   0.83333   0.74995   0.00000  Uiso   1.00
C996   C     0.24669   0.83334   0.75005   0.00000  Uiso   1.00
O997   O     0.16666   0.87156   0.68393   0.00000  Uiso   1.00
O998   O     0.16667   0.79511   0.81607   0.00000  Uiso   1.00
O999   O     0.16667   0.87156   0.81607   0.00000  Uiso   1.00
O1000  O     0.16666   0.79511   0.68392   0.00000  Uiso   1.00
C1001  C     0.16592   0.83337   0.66359   0.00000  Uiso   1.00
C1002  C     0.16742   0.83329   0.83641   0.00000  Uiso   1.00
Zn1003 Zn    0.16667   0.88437   0.75000   0.00000  Uiso   1.00
Zn1004 Zn    0.16667   0.78229   0.75000   0.00000  Uiso   1.00
C1005  C     0.20487   0.82253   0.90700   0.00000  Uiso   1.00
C1006  C     0.12847   0.84414   0.59300   0.00000  Uiso   1.00
C1007  C     0.16820   0.83325   0.88402   0.00000  Uiso   1.00
C1008  C     0.16514   0.83342   0.61598   0.00000  Uiso   1.00
C1009  C     0.13189   0.84537   0.90596   0.00000  Uiso   1.00
C1010  C     0.20144   0.82129   0.59404   0.00000  Uiso   1.00
C1011  C     0.13094   0.84694   0.95243   0.00000  Uiso   1.00
C1012  C     0.20240   0.81972   0.54757   0.00000  Uiso   1.00
C1013  C     0.16715   0.83397   0.97658   0.00000  Uiso   1.00
C1014  C     0.16619   0.83269   0.52342   0.00000  Uiso   1.00
C1015  C     0.20432   0.82215   0.95384   0.00000  Uiso   1.00
C1016  C     0.12902   0.84452   0.54616   0.00000  Uiso   1.00
C1017  C     0.09437   0.85982   0.97524   0.00000  Uiso   1.00
C1018  C     0.23896   0.80684   0.52476   0.00000  Uiso   1.00
C1019  C     0.09367   0.85785   0.52181   0.00000  Uiso   1.00
C1020  C     0.23967   0.80881   0.97819   0.00000  Uiso   1.00
H1021  H     0.10437   0.85270   0.88615   0.00000  Uiso   1.00
H1022  H     0.22896   0.81396   0.61385   0.00000  Uiso   1.00
H1023  H     0.06557   0.86838   0.53883   0.00000  Uiso   1.00
H1024  H     0.26777   0.79828   0.96117   0.00000  Uiso   1.00
C1025  C     0.02127   0.79355   0.73895   0.00000  Uiso   1.00
C1026  C     0.31206   0.87311   0.76105   0.00000  Uiso   1.00
C1027  C     0.31194   0.79354   0.73905   0.00000  Uiso   1.00
C1028  C     0.02139   0.87313   0.76095   0.00000  Uiso   1.00
H1029  H     0.03752   0.76271   0.73002   0.00000  Uiso   1.00
H1030  H     0.29582   0.90395   0.76998   0.00000  Uiso   1.00
H1031  H     0.29561   0.76268   0.73020   0.00000  Uiso   1.00
H1032  H     0.03773   0.90398   0.76980   0.00000  Uiso   1.00
C1033  C     0.29084   0.83333   0.75008   0.00000  Uiso   1.00
C1034  C     0.04250   0.83334   0.74992   0.00000  Uiso   1.00
C1035  C     0.19467   0.69061   0.77543   0.00000  Uiso   1.00
C1036  C     0.13866   0.97606   0.72457   0.00000  Uiso   1.00
C1037  C     0.13866   0.69067   0.72456   0.00000  Uiso   1.00
C1038  C     0.19467   0.97599   0.77544   0.00000  Uiso   1.00
H1039  H     0.21708   0.70872   0.79576   0.00000  Uiso   1.00
H1040  H     0.11626   0.95794   0.70424   0.00000  Uiso   1.00
H1041  H     0.11627   0.70885   0.70420   0.00000  Uiso   1.00
H1042  H     0.21706   0.95781   0.79580   0.00000  Uiso   1.00
N1043  N     0.16667   0.95240   0.75000   0.00000  Uiso   1.00
N1044  N     0.16667   0.71427   0.75000   0.00000  Uiso   1.00
N1045  N     0.24247   0.81314   0.88270   0.00000  Uiso   1.00
O1046  O     0.24525   0.77710   0.85791   0.00000  Uiso   1.00
O1047  O     0.27385   0.84093   0.88509   0.00000  Uiso   1.00
N1048  N     0.09087   0.85354   0.61730   0.00000  Uiso   1.00
O1049  O     0.08808   0.88960   0.64206   0.00000  Uiso   1.00
O1050  O     0.05949   0.82574   0.61493   0.00000  Uiso   1.00
N1051  N     0.05810   0.87615   0.95190   0.00000  Uiso   1.00
O1052  O     0.06146   0.90944   0.92350   0.00000  Uiso   1.00
O1053  O     0.02116   0.86377   0.96495   0.00000  Uiso   1.00
N1054  N     0.27523   0.79051   0.54810   0.00000  Uiso   1.00
O1055  O     0.27187   0.75722   0.57650   0.00000  Uiso   1.00
O1056  O     0.31217   0.80289   0.53506   0.00000  Uiso   1.00
O1057  O     0.43892   0.87154   0.75000   0.00000  Uiso   1.00
O1058  O     0.56108   0.79513   0.75000   0.00000  Uiso   1.00
O1059  O     0.56108   0.87154   0.75001   0.00000  Uiso   1.00
O1060  O     0.43892   0.79513   0.74999   0.00000  Uiso   1.00
C1061  C     0.41997   0.83333   0.74995   0.00000  Uiso   1.00
C1062  C     0.58003   0.83334   0.75005   0.00000  Uiso   1.00
O1063  O     0.49999   0.87156   0.68393   0.00000  Uiso   1.00
O1064  O     0.50001   0.79511   0.81607   0.00000  Uiso   1.00
O1065  O     0.50001   0.87156   0.81607   0.00000  Uiso   1.00
O1066  O     0.49999   0.79511   0.68392   0.00000  Uiso   1.00
C1067  C     0.49925   0.83337   0.66359   0.00000  Uiso   1.00
C1068  C     0.50075   0.83329   0.83641   0.00000  Uiso   1.00
Zn1069 Zn    0.50000   0.88437   0.75000   0.00000  Uiso   1.00
Zn1070 Zn    0.50000   0.78229   0.75000   0.00000  Uiso   1.00
C1071  C     0.53820   0.82253   0.90700   0.00000  Uiso   1.00
C1072  C     0.46180   0.84414   0.59300   0.00000  Uiso   1.00
C1073  C     0.50153   0.83325   0.88402   0.00000  Uiso   1.00
C1074  C     0.49847   0.83342   0.61598   0.00000  Uiso   1.00
C1075  C     0.46522   0.84537   0.90596   0.00000  Uiso   1.00
C1076  C     0.53478   0.82129   0.59404   0.00000  Uiso   1.00
C1077  C     0.46427   0.84694   0.95243   0.00000  Uiso   1.00
C1078  C     0.53573   0.81972   0.54757   0.00000  Uiso   1.00
C1079  C     0.50048   0.83397   0.97658   0.00000  Uiso   1.00
C1080  C     0.49952   0.83269   0.52342   0.00000  Uiso   1.00
C1081  C     0.53765   0.82215   0.95384   0.00000  Uiso   1.00
C1082  C     0.46235   0.84452   0.54616   0.00000  Uiso   1.00
C1083  C     0.42770   0.85982   0.97524   0.00000  Uiso   1.00
C1084  C     0.57230   0.80684   0.52476   0.00000  Uiso   1.00
C1085  C     0.42700   0.85785   0.52181   0.00000  Uiso   1.00
C1086  C     0.57300   0.80881   0.97819   0.00000  Uiso   1.00
H1087  H     0.43771   0.85270   0.88615   0.00000  Uiso   1.00
H1088  H     0.56229   0.81396   0.61385   0.00000  Uiso   1.00
H1089  H     0.39890   0.86838   0.53883   0.00000  Uiso   1.00
H1090  H     0.60110   0.79828   0.96117   0.00000  Uiso   1.00
C1091  C     0.35461   0.79355   0.73895   0.00000  Uiso   1.00
C1092  C     0.64539   0.87311   0.76105   0.00000  Uiso   1.00
C1093  C     0.64528   0.79354   0.73905   0.00000  Uiso   1.00
C1094  C     0.35472   0.87313   0.76095   0.00000  Uiso   1.00
H1095  H     0.37085   0.76271   0.73002   0.00000  Uiso   1.00
H1096  H     0.62915   0.90395   0.76998   0.00000  Uiso   1.00
H1097  H     0.62894   0.76268   0.73020   0.00000  Uiso   1.00
H1098  H     0.37106   0.90398   0.76980   0.00000  Uiso   1.00
C1099  C     0.62417   0.83333   0.75008   0.00000  Uiso   1.00
C1100  C     0.37583   0.83334   0.74992   0.00000  Uiso   1.00
C1101  C     0.52801   0.69061   0.77543   0.00000  Uiso   1.00
C1102  C     0.47199   0.97606   0.72457   0.00000  Uiso   1.00
C1103  C     0.47200   0.69067   0.72456   0.00000  Uiso   1.00
C1104  C     0.52800   0.97599   0.77544   0.00000  Uiso   1.00
H1105  H     0.55041   0.70872   0.79576   0.00000  Uiso   1.00
H1106  H     0.44959   0.95794   0.70424   0.00000  Uiso   1.00
H1107  H     0.44961   0.70885   0.70420   0.00000  Uiso   1.00
H1108  H     0.55039   0.95781   0.79580   0.00000  Uiso   1.00
N1109  N     0.50000   0.95240   0.75000   0.00000  Uiso   1.00
N1110  N     0.50000   0.71427   0.75000   0.00000  Uiso   1.00
N1111  N     0.57580   0.81314   0.88270   0.00000  Uiso   1.00
O1112  O     0.57859   0.77710   0.85791   0.00000  Uiso   1.00
O1113  O     0.60719   0.84093   0.88509   0.00000  Uiso   1.00
N1114  N     0.42421   0.85354   0.61730   0.00000  Uiso   1.00
O1115  O     0.42142   0.88960   0.64206   0.00000  Uiso   1.00
O1116  O     0.39282   0.82574   0.61493   0.00000  Uiso   1.00
N1117  N     0.39144   0.87615   0.95190   0.00000  Uiso   1.00
O1118  O     0.39479   0.90944   0.92350   0.00000  Uiso   1.00
O1119  O     0.35449   0.86377   0.96495   0.00000  Uiso   1.00
N1120  N     0.60856   0.79051   0.54810   0.00000  Uiso   1.00
O1121  O     0.60521   0.75722   0.57650   0.00000  Uiso   1.00
O1122  O     0.64551   0.80289   0.53506   0.00000  Uiso   1.00
O1123  O     0.77226   0.87154   0.75000   0.00000  Uiso   1.00
O1124  O     0.89441   0.79513   0.75000   0.00000  Uiso   1.00
O1125  O     0.89441   0.87154   0.75001   0.00000  Uiso   1.00
O1126  O     0.77226   0.79513   0.74999   0.00000  Uiso   1.00
C1127  C     0.75331   0.83333   0.74995   0.00000  Uiso   1.00
C1128  C     0.91336   0.83334   0.75005   0.00000  Uiso   1.00
O1129  O     0.83333   0.87156   0.68393   0.00000  Uiso   1.00
O1130  O     0.83334   0.79511   0.81607   0.00000  Uiso   1.00
O1131  O     0.83334   0.87156   0.81607   0.00000  Uiso   1.00
O1132  O     0.83333   0.79511   0.68392   0.00000  Uiso   1.00
C1133  C     0.83258   0.83337   0.66359   0.00000  Uiso   1.00
C1134  C     0.83408   0.83329   0.83641   0.00000  Uiso   1.00
Zn1135 Zn    0.83333   0.88437   0.75000   0.00000  Uiso   1.00
Zn1136 Zn    0.83333   0.78229   0.75000   0.00000  Uiso   1.00
C1137  C     0.87154   0.82253   0.90700   0.00000  Uiso   1.00
C1138  C     0.79513   0.84414   0.59300   0.00000  Uiso   1.00
C1139  C     0.83487   0.83325   0.88402   0.00000  Uiso   1.00
C1140  C     0.83180   0.83342   0.61598   0.00000  Uiso   1.00
C1141  C     0.79856   0.84537   0.90596   0.00000  Uiso   1.00
C1142  C     0.86811   0.82129   0.59404   0.00000  Uiso   1.00
C1143  C     0.79761   0.84694   0.95243   0.00000  Uiso   1.00
C1144  C     0.86906   0.81972   0.54757   0.00000  Uiso   1.00
C1145  C     0.83382   0.83397   0.97658   0.00000  Uiso   1.00
C1146  C     0.83285   0.83269   0.52342   0.00000  Uiso   1.00
C1147  C     0.87098   0.82215   0.95384   0.00000  Uiso   1.00
C1148  C     0.79569   0.84452   0.54616   0.00000  Uiso   1.00
C1149  C     0.76104   0.85982   0.97524   0.00000  Uiso   1.00
C1150  C     0.90563   0.80684   0.52476   0.00000  Uiso   1.00
C1151  C     0.76034   0.85785   0.52181   0.00000  Uiso   1.00
C1152  C     0.90633   0.80881   0.97819   0.00000  Uiso   1.00
H1153  H     0.77104   0.85270   0.88615   0.00000  Uiso   1.00
H1154  H     0.89563   0.81396   0.61385   0.00000  Uiso   1.00
H1155  H     0.73223   0.86838   0.53883   0.00000  Uiso   1.00
H1156  H     0.93444   0.79828   0.96117   0.00000  Uiso   1.00
C1157  C     0.68794   0.79355   0.73895   0.00000  Uiso   1.00
C1158  C     0.97873   0.87311   0.76105   0.00000  Uiso   1.00
C1159  C     0.97861   0.79354   0.73905   0.00000  Uiso   1.00
C1160  C     0.68806   0.87313   0.76095   0.00000  Uiso   1.00
H1161  H     0.70418   0.76271   0.73002   0.00000  Uiso   1.00
H1162  H     0.96248   0.90395   0.76998   0.00000  Uiso   1.00
H1163  H     0.96227   0.76268   0.73020   0.00000  Uiso   1.00
H1164  H     0.70439   0.90398   0.76980   0.00000  Uiso   1.00
C1165  C     0.95750   0.83333   0.75008   0.00000  Uiso   1.00
C1166  C     0.70916   0.83334   0.74992   0.00000  Uiso   1.00
C1167  C     0.86134   0.69061   0.77543   0.00000  Uiso   1.00
C1168  C     0.80533   0.97606   0.72457   0.00000  Uiso   1.00
C1169  C     0.80533   0.69067   0.72456   0.00000  Uiso   1.00
C1170  C     0.86134   0.97599   0.77544   0.00000  Uiso   1.00
H1171  H     0.88374   0.70872   0.79576   0.00000  Uiso   1.00
H1172  H     0.78292   0.95794   0.70424   0.00000  Uiso   1.00
H1173  H     0.78294   0.70885   0.70420   0.00000  Uiso   1.00
H1174  H     0.88373   0.95781   0.79580   0.00000  Uiso   1.00
N1175  N     0.83333   0.95240   0.75000   0.00000  Uiso   1.00
N1176  N     0.83333   0.71427   0.75000   0.00000  Uiso   1.00
N1177  N     0.90913   0.81314   0.88270   0.00000  Uiso   1.00
O1178  O     0.91192   0.77710   0.85791   0.00000  Uiso   1.00
O1179  O     0.94052   0.84093   0.88509   0.00000  Uiso   1.00
N1180  N     0.75754   0.85354   0.61730   0.00000  Uiso   1.00
O1181  O     0.75475   0.88960   0.64206   0.00000  Uiso   1.00
O1182  O     0.72616   0.82574   0.61493   0.00000  Uiso   1.00
N1183  N     0.72477   0.87615   0.95190   0.00000  Uiso   1.00
O1184  O     0.72813   0.90944   0.92350   0.00000  Uiso   1.00
O1185  O     0.68783   0.86377   0.96495   0.00000  Uiso   1.00
N1186  N     0.94190   0.79051   0.54810   0.00000  Uiso   1.00
O1187  O     0.93854   0.75722   0.57650   0.00000  Uiso   1.00
O1188  O     0.97884   0.80289   0.53506   0.00000  Uiso   1.00
loop_
_geom_bond_atom_site_label_1
_geom_bond_atom_site_label_2
_geom_bond_distance
_geom_bond_site_symmetry_2
_ccdc_geom_bond_type
O1     C5      1.282   .     A
O1     Zn13    1.997   .     S
O2     C6      1.282   .     A
O2     Zn14    1.997   .     S
O3     Zn13    1.997   .     S
O3     C6      1.282   .     A
O4     Zn14    1.997   .     S
O4     C5      1.282   .     A
C5     C44     1.417   .     S
C6     C43     1.417   .     S
O7     Zn13    2.008   .     S
O7     C11     1.282   .     A
O8     C12     1.282   .     A
O8     Zn14    2.008   .     S
O9     C12     1.282   .     A
O9     Zn13    2.006   .     S
O10    C11     1.282   .     A
O10    Zn14    2.006   .     S
C11    C18     1.420   .     S
C12    C17     1.420   .     S
Zn13   N53     2.010   .     S
Zn14   N54     2.010   .     S
C15    N55     1.437   .     S
C15    C17     1.397   .     A
C15    C25     1.397   .     A
C16    N58     1.437   .     S
C16    C18     1.397   .     A
C16    C26     1.397   .     A
C17    C19     1.386   .     A
C18    C20     1.386   .     A
C19    H31     1.083   .     S
C19    C21     1.387   .     A
C20    H32     1.083   .     S
C20    C22     1.387   .     A
C21    C27     1.411   .     A
C21    C23     1.418   .     A
C22    C28     1.411   .     A
C22    C24     1.418   .     A
C23    C25     1.418   .     A
C23    C618    1.398   .     S
C24    C26     1.418   .     A
C24    C617    1.398   1_554 S
C25    C30     1.402   .     A
C26    C29     1.402   .     A
C27    N61     1.438   .     S
C27    C623    1.391   .     S
C28    N64     1.438   .     S
C28    C624    1.391   1_554 S
C29    H33     1.083   .     S
C29    C621    1.391   1_554 S
C30    H34     1.083   .     S
C30    C622    1.391   .     S
C35    H39     1.084   .     S
C35    C44     1.397   .     A
C35    C169    1.369   1_455 S
C36    H40     1.084   .     S
C36    C43     1.397   .     A
C36    C104    1.370   .     S
C37    C43     1.397   .     A
C37    H41     1.084   .     S
C37    C101    1.369   .     S
C38    C44     1.397   .     A
C38    H42     1.084   .     S
C38    C168    1.370   1_455 S
C45    H49     1.081   .     S
C45    N54     1.366   .     A
C45    C444    1.416   1_545 S
C46    H50     1.081   .     S
C46    N53     1.366   .     A
C46    C245    1.416   .     S
C47    N54     1.366   .     A
C47    H51     1.082   .     S
C47    C442    1.416   1_545 S
C48    N53     1.366   .     A
C48    H52     1.082   .     S
C48    C243    1.416   .     S
N55    O56     1.301   .     A
N55    O57     1.301   .     A
N58    O60     1.301   .     A
N58    O59     1.301   .     A
N61    O62     1.301   .     A
N61    O63     1.301   .     A
N64    O65     1.301   .     A
N64    O66     1.301   .     A
O67    C71     1.282   .     A
O67    Zn79    1.997   .     S
O68    C72     1.282   .     A
O68    Zn80    1.997   .     S
O69    Zn79    1.997   .     S
O69    C72     1.282   .     A
O70    Zn80    1.997   .     S
O70    C71     1.282   .     A
C71    C110    1.417   .     S
C72    C109    1.417   .     S
O73    Zn79    2.008   .     S
O73    C77     1.282   .     A
O74    C78     1.282   .     A
O74    Zn80    2.008   .     S
O75    C78     1.282   .     A
O75    Zn79    2.006   .     S
O76    C77     1.282   .     A
O76    Zn80    2.006   .     S
C77    C84     1.420   .     S
C78    C83     1.420   .     S
Zn79   N119    2.010   .     S
Zn80   N120    2.010   .     S
C81    N121    1.437   .     S
C81    C83     1.397   .     A
C81    C91     1.397   .     A
C82    N124    1.437   .     S
C82    C84     1.397   .     A
C82    C92     1.397   .     A
C83    C85     1.386   .     A
C84    C86     1.386   .     A
C85    H97     1.083   .     S
C85    C87     1.387   .     A
C86    H98     1.083   .     S
C86    C88     1.387   .     A
C87    C93     1.411   .     A
C87    C89     1.418   .     A
C88    C94     1.411   .     A
C88    C90     1.418   .     A
C89    C91     1.418   .     A
C89    C684    1.398   .     S
C90    C92     1.418   .     A
C90    C683    1.398   1_554 S
C91    C96     1.402   .     A
C92    C95     1.402   .     A
C93    N127    1.438   .     S
C93    C689    1.391   .     S
C94    N130    1.438   .     S
C94    C690    1.391   1_554 S
C95    H99     1.083   .     S
C95    C687    1.391   1_554 S
C96    H100    1.083   .     S
C96    C688    1.391   .     S
C101   H105    1.084   .     S
C101   C110    1.397   .     A
C102   H106    1.084   .     S
C102   C109    1.397   .     A
C102   C170    1.370   .     S
C103   C109    1.397   .     A
C103   H107    1.084   .     S
C103   C167    1.369   .     S
C104   C110    1.397   .     A
C104   H108    1.084   .     S
C111   H115    1.081   .     S
C111   N120    1.366   .     A
C111   C510    1.416   1_545 S
C112   H116    1.081   .     S
C112   N119    1.366   .     A
C112   C311    1.416   .     S
C113   N120    1.366   .     A
C113   H117    1.082   .     S
C113   C508    1.416   1_545 S
C114   N119    1.366   .     A
C114   H118    1.082   .     S
C114   C309    1.416   .     S
N121   O122    1.301   .     A
N121   O123    1.301   .     A
N124   O126    1.301   .     A
N124   O125    1.301   .     A
N127   O128    1.301   .     A
N127   O129    1.301   .     A
N130   O131    1.301   .     A
N130   O132    1.301   .     A
O133   C137    1.282   .     A
O133   Zn145   1.997   .     S
O134   C138    1.282   .     A
O134   Zn146   1.997   .     S
O135   Zn145   1.997   .     S
O135   C138    1.282   .     A
O136   Zn146   1.997   .     S
O136   C137    1.282   .     A
C137   C176    1.417   .     S
C138   C175    1.417   .     S
O139   Zn145   2.008   .     S
O139   C143    1.282   .     A
O140   C144    1.282   .     A
O140   Zn146   2.008   .     S
O141   C144    1.282   .     A
O141   Zn145   2.006   .     S
O142   C143    1.282   .     A
O142   Zn146   2.006   .     S
C143   C150    1.420   .     S
C144   C149    1.420   .     S
Zn145  N185    2.010   .     S
Zn146  N186    2.010   .     S
C147   N187    1.437   .     S
C147   C149    1.397   .     A
C147   C157    1.397   .     A
C148   N190    1.437   .     S
C148   C150    1.397   .     A
C148   C158    1.397   .     A
C149   C151    1.386   .     A
C150   C152    1.386   .     A
C151   H163    1.083   .     S
C151   C153    1.387   .     A
C152   H164    1.083   .     S
C152   C154    1.387   .     A
C153   C159    1.411   .     A
C153   C155    1.418   .     A
C154   C160    1.411   .     A
C154   C156    1.418   .     A
C155   C157    1.418   .     A
C155   C750    1.398   .     S
C156   C158    1.418   .     A
C156   C749    1.398   1_554 S
C157   C162    1.402   .     A
C158   C161    1.402   .     A
C159   N193    1.438   .     S
C159   C755    1.391   .     S
C160   N196    1.438   .     S
C160   C756    1.391   1_554 S
C161   H165    1.083   .     S
C161   C753    1.391   1_554 S
C162   H166    1.083   .     S
C162   C754    1.391   .     S
C167   H171    1.084   .     S
C167   C176    1.397   .     A
C168   H172    1.084   .     S
C168   C175    1.397   .     A
C168   C38     1.370   1_655 S
C169   C175    1.397   .     A
C169   H173    1.084   .     S
C169   C35     1.369   1_655 S
C170   C176    1.397   .     A
C170   H174    1.084   .     S
C177   H181    1.081   .     S
C177   N186    1.366   .     A
C177   C576    1.416   1_545 S
C178   H182    1.081   .     S
C178   N185    1.366   .     A
C178   C377    1.416   .     S
C179   N186    1.366   .     A
C179   H183    1.082   .     S
C179   C574    1.416   1_545 S
C180   N185    1.366   .     A
C180   H184    1.082   .     S
C180   C375    1.416   .     S
N187   O188    1.301   .     A
N187   O189    1.301   .     A
N190   O192    1.301   .     A
N190   O191    1.301   .     A
N193   O194    1.301   .     A
N193   O195    1.301   .     A
N196   O197    1.301   .     A
N196   O198    1.301   .     A
O199   C203    1.282   .     A
O199   Zn211   1.997   .     S
O200   C204    1.282   .     A
O200   Zn212   1.997   .     S
O201   Zn211   1.997   .     S
O201   C204    1.282   .     A
O202   Zn212   1.997   .     S
O202   C203    1.282   .     A
C203   C242    1.417   .     S
C204   C241    1.417   .     S
O205   Zn211   2.008   .     S
O205   C209    1.282   .     A
O206   C210    1.282   .     A
O206   Zn212   2.008   .     S
O207   C210    1.282   .     A
O207   Zn211   2.006   .     S
O208   C209    1.282   .     A
O208   Zn212   2.006   .     S
C209   C216    1.420   .     S
C210   C215    1.420   .     S
Zn211  N251    2.010   .     S
Zn212  N252    2.010   .     S
C213   N253    1.437   .     S
C213   C215    1.397   .     A
C213   C223    1.397   .     A
C214   N256    1.437   .     S
C214   C216    1.397   .     A
C214   C224    1.397   .     A
C215   C217    1.386   .     A
C216   C218    1.386   .     A
C217   H229    1.083   .     S
C217   C219    1.387   .     A
C218   H230    1.083   .     S
C218   C220    1.387   .     A
C219   C225    1.411   .     A
C219   C221    1.418   .     A
C220   C226    1.411   .     A
C220   C222    1.418   .     A
C221   C223    1.418   .     A
C221   C816    1.398   .     S
C222   C224    1.418   .     A
C222   C815    1.398   1_554 S
C223   C228    1.402   .     A
C224   C227    1.402   .     A
C225   N259    1.438   .     S
C225   C821    1.391   .     S
C226   N262    1.438   .     S
C226   C822    1.391   1_554 S
C227   H231    1.083   .     S
C227   C819    1.391   1_554 S
C228   H232    1.083   .     S
C228   C820    1.391   .     S
C233   H237    1.084   .     S
C233   C242    1.397   .     A
C233   C367    1.369   1_455 S
C234   H238    1.084   .     S
C234   C241    1.397   .     A
C234   C302    1.370   .     S
C235   C241    1.397   .     A
C235   H239    1.084   .     S
C235   C299    1.369   .     S
C236   C242    1.397   .     A
C236   H240    1.084   .     S
C236   C366    1.370   1_455 S
C243   H247    1.081   .     S
C243   N252    1.366   .     A
C244   H248    1.081   .     S
C244   N251    1.366   .     A
C244   C443    1.416   .     S
C245   N252    1.366   .     A
C245   H249    1.082   .     S
C246   N251    1.366   .     A
C246   H250    1.082   .     S
C246   C441    1.416   .     S
N253   O254    1.301   .     A
N253   O255    1.301   .     A
N256   O258    1.301   .     A
N256   O257    1.301   .     A
N259   O260    1.301   .     A
N259   O261    1.301   .     A
N262   O263    1.301   .     A
N262   O264    1.301   .     A
O265   C269    1.282   .     A
O265   Zn277   1.997   .     S
O266   C270    1.282   .     A
O266   Zn278   1.997   .     S
O267   Zn277   1.997   .     S
O267   C270    1.282   .     A
O268   Zn278   1.997   .     S
O268   C269    1.282   .     A
C269   C308    1.417   .     S
C270   C307    1.417   .     S
O271   Zn277   2.008   .     S
O271   C275    1.282   .     A
O272   C276    1.282   .     A
O272   Zn278   2.008   .     S
O273   C276    1.282   .     A
O273   Zn277   2.006   .     S
O274   C275    1.282   .     A
O274   Zn278   2.006   .     S
C275   C282    1.420   .     S
C276   C281    1.420   .     S
Zn277  N317    2.010   .     S
Zn278  N318    2.010   .     S
C279   N319    1.437   .     S
C279   C281    1.397   .     A
C279   C289    1.397   .     A
C280   N322    1.437   .     S
C280   C282    1.397   .     A
C280   C290    1.397   .     A
C281   C283    1.386   .     A
C282   C284    1.386   .     A
C283   H295    1.083   .     S
C283   C285    1.387   .     A
C284   H296    1.083   .     S
C284   C286    1.387   .     A
C285   C291    1.411   .     A
C285   C287    1.418   .     A
C286   C292    1.411   .     A
C286   C288    1.418   .     A
C287   C289    1.418   .     A
C287   C882    1.398   .     S
C288   C290    1.418   .     A
C288   C881    1.398   1_554 S
C289   C294    1.402   .     A
C290   C293    1.402   .     A
C291   N325    1.438   .     S
C291   C887    1.391   .     S
C292   N328    1.438   .     S
C292   C888    1.391   1_554 S
C293   H297    1.083   .     S
C293   C885    1.391   1_554 S
C294   H298    1.083   .     S
C294   C886    1.391   .     S
C299   H303    1.084   .     S
C299   C308    1.397   .     A
C300   H304    1.084   .     S
C300   C307    1.397   .     A
C300   C368    1.370   .     S
C301   C307    1.397   .     A
C301   H305    1.084   .     S
C301   C365    1.369   .     S
C302   C308    1.397   .     A
C302   H306    1.084   .     S
C309   H313    1.081   .     S
C309   N318    1.366   .     A
C310   H314    1.081   .     S
C310   N317    1.366   .     A
C310   C509    1.416   .     S
C311   N318    1.366   .     A
C311   H315    1.082   .     S
C312   N317    1.366   .     A
C312   H316    1.082   .     S
C312   C507    1.416   .     S
N319   O320    1.301   .     A
N319   O321    1.301   .     A
N322   O324    1.301   .     A
N322   O323    1.301   .     A
N325   O326    1.301   .     A
N325   O327    1.301   .     A
N328   O329    1.301   .     A
N328   O330    1.301   .     A
O331   C335    1.282   .     A
O331   Zn343   1.997   .     S
O332   C336    1.282   .     A
O332   Zn344   1.997   .     S
O333   Zn343   1.997   .     S
O333   C336    1.282   .     A
O334   Zn344   1.997   .     S
O334   C335    1.282   .     A
C335   C374    1.417   .     S
C336   C373    1.417   .     S
O337   Zn343   2.008   .     S
O337   C341    1.282   .     A
O338   C342    1.282   .     A
O338   Zn344   2.008   .     S
O339   C342    1.282   .     A
O339   Zn343   2.006   .     S
O340   C341    1.282   .     A
O340   Zn344   2.006   .     S
C341   C348    1.420   .     S
C342   C347    1.420   .     S
Zn343  N383    2.010   .     S
Zn344  N384    2.010   .     S
C345   N385    1.437   .     S
C345   C347    1.397   .     A
C345   C355    1.397   .     A
C346   N388    1.437   .     S
C346   C348    1.397   .     A
C346   C356    1.397   .     A
C347   C349    1.386   .     A
C348   C350    1.386   .     A
C349   H361    1.083   .     S
C349   C351    1.387   .     A
C350   H362    1.083   .     S
C350   C352    1.387   .     A
C351   C357    1.411   .     A
C351   C353    1.418   .     A
C352   C358    1.411   .     A
C352   C354    1.418   .     A
C353   C355    1.418   .     A
C353   C948    1.398   .     S
C354   C356    1.418   .     A
C354   C947    1.398   1_554 S
C355   C360    1.402   .     A
C356   C359    1.402   .     A
C357   N391    1.438   .     S
C357   C953    1.391   .     S
C358   N394    1.438   .     S
C358   C954    1.391   1_554 S
C359   H363    1.083   .     S
C359   C951    1.391   1_554 S
C360   H364    1.083   .     S
C360   C952    1.391   .     S
C365   H369    1.084   .     S
C365   C374    1.397   .     A
C366   H370    1.084   .     S
C366   C373    1.397   .     A
C366   C236    1.370   1_655 S
C367   C373    1.397   .     A
C367   H371    1.084   .     S
C367   C233    1.369   1_655 S
C368   C374    1.397   .     A
C368   H372    1.084   .     S
C375   H379    1.081   .     S
C375   N384    1.366   .     A
C376   H380    1.081   .     S
C376   N383    1.366   .     A
C376   C575    1.416   .     S
C377   N384    1.366   .     A
C377   H381    1.082   .     S
C378   N383    1.366   .     A
C378   H382    1.082   .     S
C378   C573    1.416   .     S
N385   O386    1.301   .     A
N385   O387    1.301   .     A
N388   O390    1.301   .     A
N388   O389    1.301   .     A
N391   O392    1.301   .     A
N391   O393    1.301   .     A
N394   O395    1.301   .     A
N394   O396    1.301   .     A
O397   C401    1.282   .     A
O397   Zn409   1.997   .     S
O398   C402    1.282   .     A
O398   Zn410   1.997   .     S
O399   Zn409   1.997   .     S
O399   C402    1.282   .     A
O400   Zn410   1.997   .     S
O400   C401    1.282   .     A
C401   C440    1.417   .     S
C402   C439    1.417   .     S
O403   Zn409   2.008   .     S
O403   C407    1.282   .     A
O404   C408    1.282   .     A
O404   Zn410   2.008   .     S
O405   C408    1.282   .     A
O405   Zn409   2.006   .     S
O406   C407    1.282   .     A
O406   Zn410   2.006   .     S
C407   C414    1.420   .     S
C408   C413    1.420   .     S
Zn409  N449    2.010   .     S
Zn410  N450    2.010   .     S
C411   N451    1.437   .     S
C411   C413    1.397   .     A
C411   C421    1.397   .     A
C412   N454    1.437   .     S
C412   C414    1.397   .     A
C412   C422    1.397   .     A
C413   C415    1.386   .     A
C414   C416    1.386   .     A
C415   H427    1.083   .     S
C415   C417    1.387   .     A
C416   H428    1.083   .     S
C416   C418    1.387   .     A
C417   C423    1.411   .     A
C417   C419    1.418   .     A
C418   C424    1.411   .     A
C418   C420    1.418   .     A
C419   C421    1.418   .     A
C419   C1014   1.398   .     S
C420   C422    1.418   .     A
C420   C1013   1.398   1_554 S
C421   C426    1.402   .     A
C422   C425    1.402   .     A
C423   N457    1.438   .     S
C423   C1019   1.391   .     S
C424   N460    1.438   .     S
C424   C1020   1.391   1_554 S
C425   H429    1.083   .     S
C425   C1017   1.391   1_554 S
C426   H430    1.083   .     S
C426   C1018   1.391   .     S
C431   H435    1.084   .     S
C431   C440    1.397   .     A
C431   C565    1.369   1_455 S
C432   H436    1.084   .     S
C432   C439    1.397   .     A
C432   C500    1.370   .     S
C433   C439    1.397   .     A
C433   H437    1.084   .     S
C433   C497    1.369   .     S
C434   C440    1.397   .     A
C434   H438    1.084   .     S
C434   C564    1.370   1_455 S
C441   H445    1.081   .     S
C441   N450    1.366   .     A
C442   H446    1.081   .     S
C442   N449    1.366   .     A
C442   C47     1.416   1_565 S
C443   N450    1.366   .     A
C443   H447    1.082   .     S
C444   N449    1.366   .     A
C444   H448    1.082   .     S
C444   C45     1.416   1_565 S
N451   O452    1.301   .     A
N451   O453    1.301   .     A
N454   O456    1.301   .     A
N454   O455    1.301   .     A
N457   O458    1.301   .     A
N457   O459    1.301   .     A
N460   O461    1.301   .     A
N460   O462    1.301   .     A
O463   C467    1.282   .     A
O463   Zn475   1.997   .     S
O464   C468    1.282   .     A
O464   Zn476   1.997   .     S
O465   Zn475   1.997   .     S
O465   C468    1.282   .     A
O466   Zn476   1.997   .     S
O466   C467    1.282   .     A
C467   C506    1.417   .     S
C468   C505    1.417   .     S
O469   Zn475   2.008   .     S
O469   C473    1.282   .     A
O470   C474    1.282   .     A
O470   Zn476   2.008   .     S
O471   C474    1.282   .     A
O471   Zn475   2.006   .     S
O472   C473    1.282   .     A
O472   Zn476   2.006   .     S
C473   C480    1.420   .     S
C474   C479    1.420   .     S
Zn475  N515    2.010   .     S
Zn476  N516    2.010   .     S
C477   N517    1.437   .     S
C477   C479    1.397   .     A
C477   C487    1.397   .     A
C478   N520    1.437   .     S
C478   C480    1.397   .     A
C478   C488    1.397   .     A
C479   C481    1.386   .     A
C480   C482    1.386   .     A
C481   H493    1.083   .     S
C481   C483    1.387   .     A
C482   H494    1.083   .     S
C482   C484    1.387   .     A
C483   C489    1.411   .     A
C483   C485    1.418   .     A
C484   C490    1.411   .     A
C484   C486    1.418   .     A
C485   C487    1.418   .     A
C485   C1080   1.398   .     S
C486   C488    1.418   .     A
C486   C1079   1.398   1_554 S
C487   C492    1.402   .     A
C488   C491    1.402   .     A
C489   N523    1.438   .     S
C489   C1085   1.391   .     S
C490   N526    1.438   .     S
C490   C1086   1.391   1_554 S
C491   H495    1.083   .     S
C491   C1083   1.391   1_554 S
C492   H496    1.083   .     S
C492   C1084   1.391   .     S
C497   H501    1.084   .     S
C497   C506    1.397   .     A
C498   H502    1.084   .     S
C498   C505    1.397   .     A
C498   C566    1.370   .     S
C499   C505    1.397   .     A
C499   H503    1.084   .     S
C499   C563    1.369   .     S
C500   C506    1.397   .     A
C500   H504    1.084   .     S
C507   H511    1.081   .     S
C507   N516    1.366   .     A
C508   H512    1.081   .     S
C508   N515    1.366   .     A
C508   C113    1.416   1_565 S
C509   N516    1.366   .     A
C509   H513    1.082   .     S
C510   N515    1.366   .     A
C510   H514    1.082   .     S
C510   C111    1.416   1_565 S
N517   O518    1.301   .     A
N517   O519    1.301   .     A
N520   O522    1.301   .     A
N520   O521    1.301   .     A
N523   O524    1.301   .     A
N523   O525    1.301   .     A
N526   O527    1.301   .     A
N526   O528    1.301   .     A
O529   C533    1.282   .     A
O529   Zn541   1.997   .     S
O530   C534    1.282   .     A
O530   Zn542   1.997   .     S
O531   Zn541   1.997   .     S
O531   C534    1.282   .     A
O532   Zn542   1.997   .     S
O532   C533    1.282   .     A
C533   C572    1.417   .     S
C534   C571    1.417   .     S
O535   Zn541   2.008   .     S
O535   C539    1.282   .     A
O536   C540    1.282   .     A
O536   Zn542   2.008   .     S
O537   C540    1.282   .     A
O537   Zn541   2.006   .     S
O538   C539    1.282   .     A
O538   Zn542   2.006   .     S
C539   C546    1.420   .     S
C540   C545    1.420   .     S
Zn541  N581    2.010   .     S
Zn542  N582    2.010   .     S
C543   N583    1.437   .     S
C543   C545    1.397   .     A
C543   C553    1.397   .     A
C544   N586    1.437   .     S
C544   C546    1.397   .     A
C544   C554    1.397   .     A
C545   C547    1.386   .     A
C546   C548    1.386   .     A
C547   H559    1.083   .     S
C547   C549    1.387   .     A
C548   H560    1.083   .     S
C548   C550    1.387   .     A
C549   C555    1.411   .     A
C549   C551    1.418   .     A
C550   C556    1.411   .     A
C550   C552    1.418   .     A
C551   C553    1.418   .     A
C551   C1146   1.398   .     S
C552   C554    1.418   .     A
C552   C1145   1.398   1_554 S
C553   C558    1.402   .     A
C554   C557    1.402   .     A
C555   N589    1.438   .     S
C555   C1151   1.391   .     S
C556   N592    1.438   .     S
C556   C1152   1.391   1_554 S
C557   H561    1.083   .     S
C557   C1149   1.391   1_554 S
C558   H562    1.083   .     S
C558   C1150   1.391   .     S
C563   H567    1.084   .     S
C563   C572    1.397   .     A
C564   H568    1.084   .     S
C564   C571    1.397   .     A
C564   C434    1.370   1_655 S
C565   C571    1.397   .     A
C565   H569    1.084   .     S
C565   C431    1.369   1_655 S
C566   C572    1.397   .     A
C566   H570    1.084   .     S
C573   H577    1.081   .     S
C573   N582    1.366   .     A
C574   H578    1.081   .     S
C574   N581    1.366   .     A
C574   C179    1.416   1_565 S
C575   N582    1.366   .     A
C575   H579    1.082   .     S
C576   N581    1.366   .     A
C576   H580    1.082   .     S
C576   C177    1.416   1_565 S
N583   O584    1.301   .     A
N583   O585    1.301   .     A
N586   O588    1.301   .     A
N586   O587    1.301   .     A
N589   O590    1.301   .     A
N589   O591    1.301   .     A
N592   O593    1.301   .     A
N592   O594    1.301   .     A
O595   C599    1.282   .     A
O595   Zn607   1.997   .     S
O596   C600    1.282   .     A
O596   Zn608   1.997   .     S
O597   Zn607   1.997   .     S
O597   C600    1.282   .     A
O598   Zn608   1.997   .     S
O598   C599    1.282   .     A
C599   C638    1.417   .     S
C600   C637    1.417   .     S
O601   Zn607   2.008   .     S
O601   C605    1.282   .     A
O602   C606    1.282   .     A
O602   Zn608   2.008   .     S
O603   C606    1.282   .     A
O603   Zn607   2.006   .     S
O604   C605    1.282   .     A
O604   Zn608   2.006   .     S
C605   C612    1.420   .     S
C606   C611    1.420   .     S
Zn607  N647    2.010   .     S
Zn608  N648    2.010   .     S
C609   N649    1.437   .     S
C609   C611    1.397   .     A
C609   C619    1.397   .     A
C610   N652    1.437   .     S
C610   C612    1.397   .     A
C610   C620    1.397   .     A
C611   C613    1.386   .     A
C612   C614    1.386   .     A
C613   H625    1.083   .     S
C613   C615    1.387   .     A
C614   H626    1.083   .     S
C614   C616    1.387   .     A
C615   C621    1.411   .     A
C615   C617    1.418   .     A
C616   C622    1.411   .     A
C616   C618    1.418   .     A
C617   C619    1.418   .     A
C617   C24     1.398   1_556 S
C618   C620    1.418   .     A
C619   C624    1.402   .     A
C620   C623    1.402   .     A
C621   N655    1.438   .     S
C621   C29     1.391   1_556 S
C622   N658    1.438   .     S
C623   H627    1.083   .     S
C624   H628    1.083   .     S
C624   C28     1.391   1_556 S
C629   H633    1.084   .     S
C629   C638    1.397   .     A
C629   C763    1.369   1_455 S
C630   H634    1.084   .     S
C630   C637    1.397   .     A
C630   C698    1.370   .     S
C631   C637    1.397   .     A
C631   H635    1.084   .     S
C631   C695    1.369   .     S
C632   C638    1.397   .     A
C632   H636    1.084   .     S
C632   C762    1.370   1_455 S
C639   H643    1.081   .     S
C639   N648    1.366   .     A
C639   C1038   1.416   1_545 S
C640   H644    1.081   .     S
C640   N647    1.366   .     A
C640   C839    1.416   .     S
C641   N648    1.366   .     A
C641   H645    1.082   .     S
C641   C1036   1.416   1_545 S
C642   N647    1.366   .     A
C642   H646    1.082   .     S
C642   C837    1.416   .     S
N649   O650    1.301   .     A
N649   O651    1.301   .     A
N652   O654    1.301   .     A
N652   O653    1.301   .     A
N655   O656    1.301   .     A
N655   O657    1.301   .     A
N658   O659    1.301   .     A
N658   O660    1.301   .     A
O661   C665    1.282   .     A
O661   Zn673   1.997   .     S
O662   C666    1.282   .     A
O662   Zn674   1.997   .     S
O663   Zn673   1.997   .     S
O663   C666    1.282   .     A
O664   Zn674   1.997   .     S
O664   C665    1.282   .     A
C665   C704    1.417   .     S
C666   C703    1.417   .     S
O667   Zn673   2.008   .     S
O667   C671    1.282   .     A
O668   C672    1.282   .     A
O668   Zn674   2.008   .     S
O669   C672    1.282   .     A
O669   Zn673   2.006   .     S
O670   C671    1.282   .     A
O670   Zn674   2.006   .     S
C671   C678    1.420   .     S
C672   C677    1.420   .     S
Zn673  N713    2.010   .     S
Zn674  N714    2.010   .     S
C675   N715    1.437   .     S
C675   C677    1.397   .     A
C675   C685    1.397   .     A
C676   N718    1.437   .     S
C676   C678    1.397   .     A
C676   C686    1.397   .     A
C677   C679    1.386   .     A
C678   C680    1.386   .     A
C679   H691    1.083   .     S
C679   C681    1.387   .     A
C680   H692    1.083   .     S
C680   C682    1.387   .     A
C681   C687    1.411   .     A
C681   C683    1.418   .     A
C682   C688    1.411   .     A
C682   C684    1.418   .     A
C683   C685    1.418   .     A
C683   C90     1.398   1_556 S
C684   C686    1.418   .     A
C685   C690    1.402   .     A
C686   C689    1.402   .     A
C687   N721    1.438   .     S
C687   C95     1.391   1_556 S
C688   N724    1.438   .     S
C689   H693    1.083   .     S
C690   H694    1.083   .     S
C690   C94     1.391   1_556 S
C695   H699    1.084   .     S
C695   C704    1.397   .     A
C696   H700    1.084   .     S
C696   C703    1.397   .     A
C696   C764    1.370   .     S
C697   C703    1.397   .     A
C697   H701    1.084   .     S
C697   C761    1.369   .     S
C698   C704    1.397   .     A
C698   H702    1.084   .     S
C705   H709    1.081   .     S
C705   N714    1.366   .     A
C705   C1104   1.416   1_545 S
C706   H710    1.081   .     S
C706   N713    1.366   .     A
C706   C905    1.416   .     S
C707   N714    1.366   .     A
C707   H711    1.082   .     S
C707   C1102   1.416   1_545 S
C708   N713    1.366   .     A
C708   H712    1.082   .     S
C708   C903    1.416   .     S
N715   O716    1.301   .     A
N715   O717    1.301   .     A
N718   O720    1.301   .     A
N718   O719    1.301   .     A
N721   O722    1.301   .     A
N721   O723    1.301   .     A
N724   O725    1.301   .     A
N724   O726    1.301   .     A
O727   C731    1.282   .     A
O727   Zn739   1.997   .     S
O728   C732    1.282   .     A
O728   Zn740   1.997   .     S
O729   Zn739   1.997   .     S
O729   C732    1.282   .     A
O730   Zn740   1.997   .     S
O730   C731    1.282   .     A
C731   C770    1.417   .     S
C732   C769    1.417   .     S
O733   Zn739   2.008   .     S
O733   C737    1.282   .     A
O734   C738    1.282   .     A
O734   Zn740   2.008   .     S
O735   C738    1.282   .     A
O735   Zn739   2.006   .     S
O736   C737    1.282   .     A
O736   Zn740   2.006   .     S
C737   C744    1.420   .     S
C738   C743    1.420   .     S
Zn739  N779    2.010   .     S
Zn740  N780    2.010   .     S
C741   N781    1.437   .     S
C741   C743    1.397   .     A
C741   C751    1.397   .     A
C742   N784    1.437   .     S
C742   C744    1.397   .     A
C742   C752    1.397   .     A
C743   C745    1.386   .     A
C744   C746    1.386   .     A
C745   H757    1.083   .     S
C745   C747    1.387   .     A
C746   H758    1.083   .     S
C746   C748    1.387   .     A
C747   C753    1.411   .     A
C747   C749    1.418   .     A
C748   C754    1.411   .     A
C748   C750    1.418   .     A
C749   C751    1.418   .     A
C749   C156    1.398   1_556 S
C750   C752    1.418   .     A
C751   C756    1.402   .     A
C752   C755    1.402   .     A
C753   N787    1.438   .     S
C753   C161    1.391   1_556 S
C754   N790    1.438   .     S
C755   H759    1.083   .     S
C756   H760    1.083   .     S
C756   C160    1.391   1_556 S
C761   H765    1.084   .     S
C761   C770    1.397   .     A
C762   H766    1.084   .     S
C762   C769    1.397   .     A
C762   C632    1.370   1_655 S
C763   C769    1.397   .     A
C763   H767    1.084   .     S
C763   C629    1.369   1_655 S
C764   C770    1.397   .     A
C764   H768    1.084   .     S
C771   H775    1.081   .     S
C771   N780    1.366   .     A
C771   C1170   1.416   1_545 S
C772   H776    1.081   .     S
C772   N779    1.366   .     A
C772   C971    1.416   .     S
C773   N780    1.366   .     A
C773   H777    1.082   .     S
C773   C1168   1.416   1_545 S
C774   N779    1.366   .     A
C774   H778    1.082   .     S
C774   C969    1.416   .     S
N781   O782    1.301   .     A
N781   O783    1.301   .     A
N784   O786    1.301   .     A
N784   O785    1.301   .     A
N787   O788    1.301   .     A
N787   O789    1.301   .     A
N790   O791    1.301   .     A
N790   O792    1.301   .     A
O793   C797    1.282   .     A
O793   Zn805   1.997   .     S
O794   C798    1.282   .     A
O794   Zn806   1.997   .     S
O795   Zn805   1.997   .     S
O795   C798    1.282   .     A
O796   Zn806   1.997   .     S
O796   C797    1.282   .     A
C797   C836    1.417   .     S
C798   C835    1.417   .     S
O799   Zn805   2.008   .     S
O799   C803    1.282   .     A
O800   C804    1.282   .     A
O800   Zn806   2.008   .     S
O801   C804    1.282   .     A
O801   Zn805   2.006   .     S
O802   C803    1.282   .     A
O802   Zn806   2.006   .     S
C803   C810    1.420   .     S
C804   C809    1.420   .     S
Zn805  N845    2.010   .     S
Zn806  N846    2.010   .     S
C807   N847    1.437   .     S
C807   C809    1.397   .     A
C807   C817    1.397   .     A
C808   N850    1.437   .     S
C808   C810    1.397   .     A
C808   C818    1.397   .     A
C809   C811    1.386   .     A
C810   C812    1.386   .     A
C811   H823    1.083   .     S
C811   C813    1.387   .     A
C812   H824    1.083   .     S
C812   C814    1.387   .     A
C813   C819    1.411   .     A
C813   C815    1.418   .     A
C814   C820    1.411   .     A
C814   C816    1.418   .     A
C815   C817    1.418   .     A
C815   C222    1.398   1_556 S
C816   C818    1.418   .     A
C817   C822    1.402   .     A
C818   C821    1.402   .     A
C819   N853    1.438   .     S
C819   C227    1.391   1_556 S
C820   N856    1.438   .     S
C821   H825    1.083   .     S
C822   H826    1.083   .     S
C822   C226    1.391   1_556 S
C827   H831    1.084   .     S
C827   C836    1.397   .     A
C827   C961    1.369   1_455 S
C828   H832    1.084   .     S
C828   C835    1.397   .     A
C828   C896    1.370   .     S
C829   C835    1.397   .     A
C829   H833    1.084   .     S
C829   C893    1.369   .     S
C830   C836    1.397   .     A
C830   H834    1.084   .     S
C830   C960    1.370   1_455 S
C837   H841    1.081   .     S
C837   N846    1.366   .     A
C838   H842    1.081   .     S
C838   N845    1.366   .     A
C838   C1037   1.416   .     S
C839   N846    1.366   .     A
C839   H843    1.082   .     S
C840   N845    1.366   .     A
C840   H844    1.082   .     S
C840   C1035   1.416   .     S
N847   O848    1.301   .     A
N847   O849    1.301   .     A
N850   O852    1.301   .     A
N850   O851    1.301   .     A
N853   O854    1.301   .     A
N853   O855    1.301   .     A
N856   O857    1.301   .     A
N856   O858    1.301   .     A
O859   C863    1.282   .     A
O859   Zn871   1.997   .     S
O860   C864    1.282   .     A
O860   Zn872   1.997   .     S
O861   Zn871   1.997   .     S
O861   C864    1.282   .     A
O862   Zn872   1.997   .     S
O862   C863    1.282   .     A
C863   C902    1.417   .     S
C864   C901    1.417   .     S
O865   Zn871   2.008   .     S
O865   C869    1.282   .     A
O866   C870    1.282   .     A
O866   Zn872   2.008   .     S
O867   C870    1.282   .     A
O867   Zn871   2.006   .     S
O868   C869    1.282   .     A
O868   Zn872   2.006   .     S
C869   C876    1.420   .     S
C870   C875    1.420   .     S
Zn871  N911    2.010   .     S
Zn872  N912    2.010   .     S
C873   N913    1.437   .     S
C873   C875    1.397   .     A
C873   C883    1.397   .     A
C874   N916    1.437   .     S
C874   C876    1.397   .     A
C874   C884    1.397   .     A
C875   C877    1.386   .     A
C876   C878    1.386   .     A
C877   H889    1.083   .     S
C877   C879    1.387   .     A
C878   H890    1.083   .     S
C878   C880    1.387   .     A
C879   C885    1.411   .     A
C879   C881    1.418   .     A
C880   C886    1.411   .     A
C880   C882    1.418   .     A
C881   C883    1.418   .     A
C881   C288    1.398   1_556 S
C882   C884    1.418   .     A
C883   C888    1.402   .     A
C884   C887    1.402   .     A
C885   N919    1.438   .     S
C885   C293    1.391   1_556 S
C886   N922    1.438   .     S
C887   H891    1.083   .     S
C888   H892    1.083   .     S
C888   C292    1.391   1_556 S
C893   H897    1.084   .     S
C893   C902    1.397   .     A
C894   H898    1.084   .     S
C894   C901    1.397   .     A
C894   C962    1.370   .     S
C895   C901    1.397   .     A
C895   H899    1.084   .     S
C895   C959    1.369   .     S
C896   C902    1.397   .     A
C896   H900    1.084   .     S
C903   H907    1.081   .     S
C903   N912    1.366   .     A
C904   H908    1.081   .     S
C904   N911    1.366   .     A
C904   C1103   1.416   .     S
C905   N912    1.366   .     A
C905   H909    1.082   .     S
C906   N911    1.366   .     A
C906   H910    1.082   .     S
C906   C1101   1.416   .     S
N913   O914    1.301   .     A
N913   O915    1.301   .     A
N916   O918    1.301   .     A
N916   O917    1.301   .     A
N919   O920    1.301   .     A
N919   O921    1.301   .     A
N922   O923    1.301   .     A
N922   O924    1.301   .     A
O925   C929    1.282   .     A
O925   Zn937   1.997   .     S
O926   C930    1.282   .     A
O926   Zn938   1.997   .     S
O927   Zn937   1.997   .     S
O927   C930    1.282   .     A
O928   Zn938   1.997   .     S
O928   C929    1.282   .     A
C929   C968    1.417   .     S
C930   C967    1.417   .     S
O931   Zn937   2.008   .     S
O931   C935    1.282   .     A
O932   C936    1.282   .     A
O932   Zn938   2.008   .     S
O933   C936    1.282   .     A
O933   Zn937   2.006   .     S
O934   C935    1.282   .     A
O934   Zn938   2.006   .     S
C935   C942    1.420   .     S
C936   C941    1.420   .     S
Zn937  N977    2.010   .     S
Zn938  N978    2.010   .     S
C939   N979    1.437   .     S
C939   C941    1.397   .     A
C939   C949    1.397   .     A
C940   N982    1.437   .     S
C940   C942    1.397   .     A
C940   C950    1.397   .     A
C941   C943    1.386   .     A
C942   C944    1.386   .     A
C943   H955    1.083   .     S
C943   C945    1.387   .     A
C944   H956    1.083   .     S
C944   C946    1.387   .     A
C945   C951    1.411   .     A
C945   C947    1.418   .     A
C946   C952    1.411   .     A
C946   C948    1.418   .     A
C947   C949    1.418   .     A
C947   C354    1.398   1_556 S
C948   C950    1.418   .     A
C949   C954    1.402   .     A
C950   C953    1.402   .     A
C951   N985    1.438   .     S
C951   C359    1.391   1_556 S
C952   N988    1.438   .     S
C953   H957    1.083   .     S
C954   H958    1.083   .     S
C954   C358    1.391   1_556 S
C959   H963    1.084   .     S
C959   C968    1.397   .     A
C960   H964    1.084   .     S
C960   C967    1.397   .     A
C960   C830    1.370   1_655 S
C961   C967    1.397   .     A
C961   H965    1.084   .     S
C961   C827    1.369   1_655 S
C962   C968    1.397   .     A
C962   H966    1.084   .     S
C969   H973    1.081   .     S
C969   N978    1.366   .     A
C970   H974    1.081   .     S
C970   N977    1.366   .     A
C970   C1169   1.416   .     S
C971   N978    1.366   .     A
C971   H975    1.082   .     S
C972   N977    1.366   .     A
C972   H976    1.082   .     S
C972   C1167   1.416   .     S
N979   O980    1.301   .     A
N979   O981    1.301   .     A
N982   O984    1.301   .     A
N982   O983    1.301   .     A
N985   O986    1.301   .     A
N985   O987    1.301   .     A
N988   O989    1.301   .     A
N988   O990    1.301   .     A
O991   C995    1.282   .     A
O991   Zn1003  1.997   .     S
O992   C996    1.282   .     A
O992   Zn1004  1.997   .     S
O993   Zn1003  1.997   .     S
O993   C996    1.282   .     A
O994   Zn1004  1.997   .     S
O994   C995    1.282   .     A
C995   C1034   1.417   .     S
C996   C1033   1.417   .     S
O997   Zn1003  2.008   .     S
O997   C1001   1.282   .     A
O998   C1002   1.282   .     A
O998   Zn1004  2.008   .     S
O999   C1002   1.282   .     A
O999   Zn1003  2.006   .     S
O1000  C1001   1.282   .     A
O1000  Zn1004  2.006   .     S
C1001  C1008   1.420   .     S
C1002  C1007   1.420   .     S
Zn1003 N1043   2.010   .     S
Zn1004 N1044   2.010   .     S
C1005  N1045   1.437   .     S
C1005  C1007   1.397   .     A
C1005  C1015   1.397   .     A
C1006  N1048   1.437   .     S
C1006  C1008   1.397   .     A
C1006  C1016   1.397   .     A
C1007  C1009   1.386   .     A
C1008  C1010   1.386   .     A
C1009  H1021   1.083   .     S
C1009  C1011   1.387   .     A
C1010  H1022   1.083   .     S
C1010  C1012   1.387   .     A
C1011  C1017   1.411   .     A
C1011  C1013   1.418   .     A
C1012  C1018   1.411   .     A
C1012  C1014   1.418   .     A
C1013  C1015   1.418   .     A
C1013  C420    1.398   1_556 S
C1014  C1016   1.418   .     A
C1015  C1020   1.402   .     A
C1016  C1019   1.402   .     A
C1017  N1051   1.438   .     S
C1017  C425    1.391   1_556 S
C1018  N1054   1.438   .     S
C1019  H1023   1.083   .     S
C1020  H1024   1.083   .     S
C1020  C424    1.391   1_556 S
C1025  H1029   1.084   .     S
C1025  C1034   1.397   .     A
C1025  C1159   1.369   1_455 S
C1026  H1030   1.084   .     S
C1026  C1033   1.397   .     A
C1026  C1094   1.370   .     S
C1027  C1033   1.397   .     A
C1027  H1031   1.084   .     S
C1027  C1091   1.369   .     S
C1028  C1034   1.397   .     A
C1028  H1032   1.084   .     S
C1028  C1158   1.370   1_455 S
C1035  H1039   1.081   .     S
C1035  N1044   1.366   .     A
C1036  H1040   1.081   .     S
C1036  N1043   1.366   .     A
C1036  C641    1.416   1_565 S
C1037  N1044   1.366   .     A
C1037  H1041   1.082   .     S
C1038  N1043   1.366   .     A
C1038  H1042   1.082   .     S
C1038  C639    1.416   1_565 S
N1045  O1046   1.301   .     A
N1045  O1047   1.301   .     A
N1048  O1050   1.301   .     A
N1048  O1049   1.301   .     A
N1051  O1052   1.301   .     A
N1051  O1053   1.301   .     A
N1054  O1055   1.301   .     A
N1054  O1056   1.301   .     A
O1057  C1061   1.282   .     A
O1057  Zn1069  1.997   .     S
O1058  C1062   1.282   .     A
O1058  Zn1070  1.997   .     S
O1059  Zn1069  1.997   .     S
O1059  C1062   1.282   .     A
O1060  Zn1070  1.997   .     S
O1060  C1061   1.282   .     A
C1061  C1100   1.417   .     S
C1062  C1099   1.417   .     S
O1063  Zn1069  2.008   .     S
O1063  C1067   1.282   .     A
O1064  C1068   1.282   .     A
O1064  Zn1070  2.008   .     S
O1065  C1068   1.282   .     A
O1065  Zn1069  2.006   .     S
O1066  C1067   1.282   .     A
O1066  Zn1070  2.006   .     S
C1067  C1074   1.420   .     S
C1068  C1073   1.420   .     S
Zn1069 N1109   2.010   .     S
Zn1070 N1110   2.010   .     S
C1071  N1111   1.437   .     S
C1071  C1073   1.397   .     A
C1071  C1081   1.397   .     A
C1072  N1114   1.437   .     S
C1072  C1074   1.397   .     A
C1072  C1082   1.397   .     A
C1073  C1075   1.386   .     A
C1074  C1076   1.386   .     A
C1075  H1087   1.083   .     S
C1075  C1077   1.387   .     A
C1076  H1088   1.083   .     S
C1076  C1078   1.387   .     A
C1077  C1083   1.411   .     A
C1077  C1079   1.418   .     A
C1078  C1084   1.411   .     A
C1078  C1080   1.418   .     A
C1079  C1081   1.418   .     A
C1079  C486    1.398   1_556 S
C1080  C1082   1.418   .     A
C1081  C1086   1.402   .     A
C1082  C1085   1.402   .     A
C1083  N1117   1.438   .     S
C1083  C491    1.391   1_556 S
C1084  N1120   1.438   .     S
C1085  H1089   1.083   .     S
C1086  H1090   1.083   .     S
C1086  C490    1.391   1_556 S
C1091  H1095   1.084   .     S
C1091  C1100   1.397   .     A
C1092  H1096   1.084   .     S
C1092  C1099   1.397   .     A
C1092  C1160   1.370   .     S
C1093  C1099   1.397   .     A
C1093  H1097   1.084   .     S
C1093  C1157   1.369   .     S
C1094  C1100   1.397   .     A
C1094  H1098   1.084   .     S
C1101  H1105   1.081   .     S
C1101  N1110   1.366   .     A
C1102  H1106   1.081   .     S
C1102  N1109   1.366   .     A
C1102  C707    1.416   1_565 S
C1103  N1110   1.366   .     A
C1103  H1107   1.082   .     S
C1104  N1109   1.366   .     A
C1104  H1108   1.082   .     S
C1104  C705    1.416   1_565 S
N1111  O1112   1.301   .     A
N1111  O1113   1.301   .     A
N1114  O1116   1.301   .     A
N1114  O1115   1.301   .     A
N1117  O1118   1.301   .     A
N1117  O1119   1.301   .     A
N1120  O1121   1.301   .     A
N1120  O1122   1.301   .     A
O1123  C1127   1.282   .     A
O1123  Zn1135  1.997   .     S
O1124  C1128   1.282   .     A
O1124  Zn1136  1.997   .     S
O1125  Zn1135  1.997   .     S
O1125  C1128   1.282   .     A
O1126  Zn1136  1.997   .     S
O1126  C1127   1.282   .     A
C1127  C1166   1.417   .     S
C1128  C1165   1.417   .     S
O1129  Zn1135  2.008   .     S
O1129  C1133   1.282   .     A
O1130  C1134   1.282   .     A
O1130  Zn1136  2.008   .     S
O1131  C1134   1.282   .     A
O1131  Zn1135  2.006   .     S
O1132  C1133   1.282   .     A
O1132  Zn1136  2.006   .     S
C1133  C1140   1.420   .     S
C1134  C1139   1.420   .     S
Zn1135 N1175   2.010   .     S
Zn1136 N1176   2.010   .     S
C1137  N1177   1.437   .     S
C1137  C1139   1.397   .     A
C1137  C1147   1.397   .     A
C1138  N1180   1.437   .     S
C1138  C1140   1.397   .     A
C1138  C1148   1.397   .     A
C1139  C1141   1.386   .     A
C1140  C1142   1.386   .     A
C1141  H1153   1.083   .     S
C1141  C1143   1.387   .     A
C1142  H1154   1.083   .     S
C1142  C1144   1.387   .     A
C1143  C1149   1.411   .     A
C1143  C1145   1.418   .     A
C1144  C1150   1.411   .     A
C1144  C1146   1.418   .     A
C1145  C1147   1.418   .     A
C1145  C552    1.398   1_556 S
C1146  C1148   1.418   .     A
C1147  C1152   1.402   .     A
C1148  C1151   1.402   .     A
C1149  N1183   1.438   .     S
C1149  C557    1.391   1_556 S
C1150  N1186   1.438   .     S
C1151  H1155   1.083   .     S
C1152  H1156   1.083   .     S
C1152  C556    1.391   1_556 S
C1157  H1161   1.084   .     S
C1157  C1166   1.397   .     A
C1158  H1162   1.084   .     S
C1158  C1165   1.397   .     A
C1158  C1028   1.370   1_655 S
C1159  C1165   1.397   .     A
C1159  H1163   1.084   .     S
C1159  C1025   1.369   1_655 S
C1160  C1166   1.397   .     A
C1160  H1164   1.084   .     S
C1167  H1171   1.081   .     S
C1167  N1176   1.366   .     A
C1168  H1172   1.081   .     S
C1168  N1175   1.366   .     A
C1168  C773    1.416   1_565 S
C1169  N1176   1.366   .     A
C1169  H1173   1.082   .     S
C1170  N1175   1.366   .     A
C1170  H1174   1.082   .     S
C1170  C771    1.416   1_565 S
N1177  O1178   1.301   .     A
N1177  O1179   1.301   .     A
N1180  O1182   1.301   .     A
N1180  O1181   1.301   .     A
N1183  O1184   1.301   .     A
N1183  O1185   1.301   .     A
N1186  O1187   1.301   .     A
N1186  O1188   1.301   .     A
