data_str_m3_o2_o5_pcu_sym.99
_audit_creation_date              2020-01-03
_audit_creation_method            'Materials Studio'
_symmetry_space_group_name_H-M    'P1'
_symmetry_Int_Tables_number       1
_symmetry_cell_setting            triclinic
loop_
_symmetry_equiv_pos_as_xyz
  x,y,z
_cell_length_a                    29.9493
_cell_length_b                    28.3298
_cell_length_c                    26.8591
_cell_angle_alpha                 89.8657
_cell_angle_beta                  90.0982
_cell_angle_gamma                 90.1831
loop_
_atom_site_label
_atom_site_type_symbol
_atom_site_fract_x
_atom_site_fract_y
_atom_site_fract_z
_atom_site_U_iso_or_equiv
_atom_site_adp_type
_atom_site_occupancy
C1     C     0.16403   0.24993   0.16636   0.00000  Uiso   1.00
C2     C     0.20916   0.44729   0.17349   0.00000  Uiso   1.00
C3     C     0.24997   0.25003   0.07281   0.00000  Uiso   1.00
C4     C     0.25000   0.24996   0.26052   0.00000  Uiso   1.00
C5     C     0.24870   0.02682   0.16620   0.00000  Uiso   1.00
C6     C     0.24889   0.47339   0.16568   0.00000  Uiso   1.00
C7     C     0.24997   0.25004   0.02175   0.00000  Uiso   1.00
C8     C     0.24998   0.24994   0.31158   0.00000  Uiso   1.00
C9     C     0.04994   0.27803   0.12289   0.00000  Uiso   1.00
C10    C     0.45210   0.20716   0.14550   0.00000  Uiso   1.00
C11    C     0.45414   0.29221   0.16232   0.00000  Uiso   1.00
C12    C     0.33624   0.25005   0.16591   0.00000  Uiso   1.00
C13    C     0.04602   0.21829   0.18923   0.00000  Uiso   1.00
C14    C     0.09577   0.27983   0.12889   0.00000  Uiso   1.00
C15    C     0.40622   0.20767   0.15139   0.00000  Uiso   1.00
C16    C     0.40803   0.29229   0.16574   0.00000  Uiso   1.00
C17    C     0.09209   0.21829   0.19199   0.00000  Uiso   1.00
C18    C     0.11650   0.24968   0.16279   0.00000  Uiso   1.00
C19    C     0.38423   0.25000   0.16153   0.00000  Uiso   1.00
C20    C     0.02473   0.24788   0.15403   0.00000  Uiso   1.00
C21    C     0.47630   0.24934   0.15253   0.00000  Uiso   1.00
C22    C     0.01768   0.28630   0.04645   0.00000  Uiso   1.00
C23    C     0.22277   0.10289   0.13438   0.00000  Uiso   1.00
C24    C     0.48931   0.31943   0.01514   0.00000  Uiso   1.00
C25    C     0.47214   0.15144   0.08870   0.00000  Uiso   1.00
C26    C     0.48637   0.10017   0.08391   0.00000  Uiso   1.00
C27    C     0.48686   0.34505   0.21499   0.00000  Uiso   1.00
C28    C     0.00927   0.39325   0.21764   0.00000  Uiso   1.00
C29    C     0.00736   0.21029   0.26173   0.00000  Uiso   1.00
C30    C     0.47544   0.17805   0.28973   0.00000  Uiso   1.00
C31    C     0.19398   0.04829   0.05166   0.00000  Uiso   1.00
C32    C     0.17725   0.01179   0.01467   0.00000  Uiso   1.00
C33    C     0.33633   0.48236   0.10346   0.00000  Uiso   1.00
C34    C     0.28875   0.39836   0.16032   0.00000  Uiso   1.00
C35    C     0.37903   0.01118   0.09851   0.00000  Uiso   1.00
C36    C     0.27861   0.01673   0.27584   0.00000  Uiso   1.00
C37    C     0.30468   0.48085   0.30625   0.00000  Uiso   1.00
C38    C     0.14567   0.45596   0.22133   0.00000  Uiso   1.00
C39    C     0.10929   0.49153   0.23321   0.00000  Uiso   1.00
C40    C     0.27652   0.10189   0.19883   0.00000  Uiso   1.00
C41    C     0.21072   0.39725   0.17252   0.00000  Uiso   1.00
C42    C     0.22218   0.05273   0.13221   0.00000  Uiso   1.00
C43    C     0.28910   0.44807   0.15889   0.00000  Uiso   1.00
C44    C     0.27587   0.05222   0.20009   0.00000  Uiso   1.00
H45    H     0.20141   0.12363   0.11046   0.00000  Uiso   1.00
H46    H     0.49728   0.25428   0.05403   0.00000  Uiso   1.00
H47    H     0.00950   0.35033   0.00309   0.00000  Uiso   1.00
H48    H     0.47662   0.30058   0.31523   0.00000  Uiso   1.00
H49    H     0.46030   0.33189   0.03716   0.00000  Uiso   1.00
H50    H     0.49605   0.17351   0.06723   0.00000  Uiso   1.00
H51    H     0.43799   0.15483   0.07248   0.00000  Uiso   1.00
H52    H     0.46342   0.07711   0.10553   0.00000  Uiso   1.00
H53    H     0.48537   0.08934   0.04422   0.00000  Uiso   1.00
H54    H     0.02091   0.09572   0.09827   0.00000  Uiso   1.00
H55    H     0.01055   0.31870   0.23052   0.00000  Uiso   1.00
H56    H     0.31978   0.37949   0.15582   0.00000  Uiso   1.00
H57    H     0.45594   0.34606   0.23799   0.00000  Uiso   1.00
H58    H     0.48652   0.42074   0.20268   0.00000  Uiso   1.00
H59    H     0.04056   0.39315   0.19549   0.00000  Uiso   1.00
H60    H     0.01755   0.40185   0.25690   0.00000  Uiso   1.00
H61    H     0.48864   0.24287   0.25233   0.00000  Uiso   1.00
H62    H     0.03604   0.21923   0.28640   0.00000  Uiso   1.00
H63    H     0.44764   0.16704   0.26485   0.00000  Uiso   1.00
H64    H     0.46119   0.19717   0.32198   0.00000  Uiso   1.00
H65    H     0.49338   0.14621   0.30312   0.00000  Uiso   1.00
H66    H     0.22791   0.05995   0.03975   0.00000  Uiso   1.00
H67    H     0.29794   0.12112   0.22421   0.00000  Uiso   1.00
H68    H     0.17054   0.07862   0.05057   0.00000  Uiso   1.00
H69    H     0.14283   0.00046   0.02448   0.00000  Uiso   1.00
H70    H     0.17694   0.02742   0.31010   0.00000  Uiso   1.00
H71    H     0.19950   0.48050   0.01493   0.00000  Uiso   1.00
H72    H     0.33995   0.44946   0.08122   0.00000  Uiso   1.00
H73    H     0.30837   0.00383   0.08813   0.00000  Uiso   1.00
H74    H     0.38506   0.02005   0.05880   0.00000  Uiso   1.00
H75    H     0.37608   0.04447   0.12002   0.00000  Uiso   1.00
H76    H     0.40786   0.49066   0.11289   0.00000  Uiso   1.00
H77    H     0.24579   0.00039   0.26635   0.00000  Uiso   1.00
H78    H     0.18032   0.37704   0.17608   0.00000  Uiso   1.00
H79    H     0.27301   0.04870   0.29892   0.00000  Uiso   1.00
H80    H     0.33706   0.49625   0.31826   0.00000  Uiso   1.00
H81    H     0.28510   0.47048   0.00626   0.00000  Uiso   1.00
H82    H     0.31105   0.44887   0.28352   0.00000  Uiso   1.00
H83    H     0.12911   0.42144   0.21438   0.00000  Uiso   1.00
H84    H     0.16816   0.45302   0.25431   0.00000  Uiso   1.00
H85    H     0.08497   0.49331   0.20200   0.00000  Uiso   1.00
H86    H     0.12417   0.02706   0.23891   0.00000  Uiso   1.00
H87    H     0.09142   0.48068   0.26760   0.00000  Uiso   1.00
H88    H     0.11526   0.30401   0.10626   0.00000  Uiso   1.00
H89    H     0.38800   0.17471   0.14804   0.00000  Uiso   1.00
H90    H     0.39109   0.32541   0.17241   0.00000  Uiso   1.00
H91    H     0.10870   0.19474   0.21790   0.00000  Uiso   1.00
H92    H     0.04791   0.27631   0.02491   0.00000  Uiso   1.00
N93    N     0.25000   0.12623   0.16667   0.00000  Uiso   1.00
N94    N     0.25000   0.37376   0.16667   0.00000  Uiso   1.00
O95    O     0.18453   0.28974   0.16667   0.00000  Uiso   1.00
O96    O     0.47352   0.16437   0.13931   0.00000  Uiso   1.00
O97    O     0.47695   0.33470   0.16487   0.00000  Uiso   1.00
O98    O     0.02239   0.18686   0.21869   0.00000  Uiso   1.00
O99    O     0.19457   0.02794   0.09969   0.00000  Uiso   1.00
O100   O     0.32942   0.47144   0.15412   0.00000  Uiso   1.00
O101   O     0.30348   0.02884   0.23310   0.00000  Uiso   1.00
O102   O     0.16908   0.47133   0.17861   0.00000  Uiso   1.00
O103   O     0.31547   0.21026   0.16666   0.00000  Uiso   1.00
O104   O     0.31547   0.28974   0.16666   0.00000  Uiso   1.00
O105   O     0.18453   0.21026   0.16667   0.00000  Uiso   1.00
O106   O     0.25000   0.28973   0.09511   0.00000  Uiso   1.00
O107   O     0.25000   0.21027   0.23822   0.00000  Uiso   1.00
O108   O     0.25000   0.28973   0.23822   0.00000  Uiso   1.00
O109   O     0.25000   0.21027   0.09511   0.00000  Uiso   1.00
O110   O     0.03005   0.30974   0.09060   0.00000  Uiso   1.00
Zn111  Zn    0.25000   0.30307   0.16667   0.00000  Uiso   1.00
Zn112  Zn    0.25000   0.19693   0.16667   0.00000  Uiso   1.00
C113   C     0.66403   0.24993   0.16636   0.00000  Uiso   1.00
C114   C     0.70916   0.44729   0.17349   0.00000  Uiso   1.00
C115   C     0.74997   0.25003   0.07281   0.00000  Uiso   1.00
C116   C     0.75000   0.24996   0.26052   0.00000  Uiso   1.00
C117   C     0.74870   0.02682   0.16620   0.00000  Uiso   1.00
C118   C     0.74889   0.47339   0.16568   0.00000  Uiso   1.00
C119   C     0.74997   0.25004   0.02175   0.00000  Uiso   1.00
C120   C     0.74998   0.24994   0.31158   0.00000  Uiso   1.00
C121   C     0.54994   0.27803   0.12289   0.00000  Uiso   1.00
C122   C     0.95210   0.20716   0.14550   0.00000  Uiso   1.00
C123   C     0.95414   0.29221   0.16232   0.00000  Uiso   1.00
C124   C     0.83624   0.25005   0.16591   0.00000  Uiso   1.00
C125   C     0.54602   0.21829   0.18923   0.00000  Uiso   1.00
C126   C     0.59577   0.27983   0.12889   0.00000  Uiso   1.00
C127   C     0.90622   0.20767   0.15139   0.00000  Uiso   1.00
C128   C     0.90803   0.29229   0.16574   0.00000  Uiso   1.00
C129   C     0.59209   0.21829   0.19199   0.00000  Uiso   1.00
C130   C     0.61650   0.24968   0.16279   0.00000  Uiso   1.00
C131   C     0.88423   0.25000   0.16153   0.00000  Uiso   1.00
C132   C     0.52473   0.24788   0.15403   0.00000  Uiso   1.00
C133   C     0.97630   0.24934   0.15253   0.00000  Uiso   1.00
C134   C     0.51768   0.28630   0.04645   0.00000  Uiso   1.00
C135   C     0.72277   0.10289   0.13438   0.00000  Uiso   1.00
C136   C     0.98931   0.31943   0.01514   0.00000  Uiso   1.00
C137   C     0.97214   0.15144   0.08870   0.00000  Uiso   1.00
C138   C     0.98637   0.10017   0.08391   0.00000  Uiso   1.00
C139   C     0.98686   0.34505   0.21499   0.00000  Uiso   1.00
C140   C     0.50927   0.39325   0.21764   0.00000  Uiso   1.00
C141   C     0.50736   0.21029   0.26173   0.00000  Uiso   1.00
C142   C     0.97544   0.17805   0.28973   0.00000  Uiso   1.00
C143   C     0.69398   0.04829   0.05166   0.00000  Uiso   1.00
C144   C     0.67725   0.01179   0.01467   0.00000  Uiso   1.00
C145   C     0.83633   0.48236   0.10346   0.00000  Uiso   1.00
C146   C     0.78875   0.39836   0.16032   0.00000  Uiso   1.00
C147   C     0.87903   0.01118   0.09851   0.00000  Uiso   1.00
C148   C     0.77861   0.01673   0.27584   0.00000  Uiso   1.00
C149   C     0.80468   0.48085   0.30625   0.00000  Uiso   1.00
C150   C     0.64567   0.45596   0.22133   0.00000  Uiso   1.00
C151   C     0.60929   0.49153   0.23321   0.00000  Uiso   1.00
C152   C     0.77652   0.10189   0.19883   0.00000  Uiso   1.00
C153   C     0.71072   0.39725   0.17252   0.00000  Uiso   1.00
C154   C     0.72218   0.05273   0.13221   0.00000  Uiso   1.00
C155   C     0.78910   0.44807   0.15889   0.00000  Uiso   1.00
C156   C     0.77587   0.05222   0.20009   0.00000  Uiso   1.00
H157   H     0.70141   0.12363   0.11046   0.00000  Uiso   1.00
H158   H     0.99728   0.25428   0.05403   0.00000  Uiso   1.00
H159   H     0.50950   0.35033   0.00309   0.00000  Uiso   1.00
H160   H     0.97662   0.30058   0.31523   0.00000  Uiso   1.00
H161   H     0.96030   0.33189   0.03716   0.00000  Uiso   1.00
H162   H     0.99605   0.17351   0.06723   0.00000  Uiso   1.00
H163   H     0.93799   0.15483   0.07248   0.00000  Uiso   1.00
H164   H     0.96342   0.07711   0.10553   0.00000  Uiso   1.00
H165   H     0.98537   0.08934   0.04422   0.00000  Uiso   1.00
H166   H     0.52091   0.09572   0.09827   0.00000  Uiso   1.00
H167   H     0.51055   0.31870   0.23052   0.00000  Uiso   1.00
H168   H     0.81978   0.37949   0.15582   0.00000  Uiso   1.00
H169   H     0.95594   0.34606   0.23799   0.00000  Uiso   1.00
H170   H     0.98652   0.42074   0.20268   0.00000  Uiso   1.00
H171   H     0.54056   0.39315   0.19549   0.00000  Uiso   1.00
H172   H     0.51755   0.40185   0.25690   0.00000  Uiso   1.00
H173   H     0.98864   0.24287   0.25233   0.00000  Uiso   1.00
H174   H     0.53604   0.21923   0.28640   0.00000  Uiso   1.00
H175   H     0.94764   0.16704   0.26485   0.00000  Uiso   1.00
H176   H     0.96119   0.19717   0.32198   0.00000  Uiso   1.00
H177   H     0.99338   0.14621   0.30312   0.00000  Uiso   1.00
H178   H     0.72791   0.05995   0.03975   0.00000  Uiso   1.00
H179   H     0.79794   0.12112   0.22421   0.00000  Uiso   1.00
H180   H     0.67054   0.07862   0.05057   0.00000  Uiso   1.00
H181   H     0.64283   0.00046   0.02448   0.00000  Uiso   1.00
H182   H     0.67694   0.02742   0.31010   0.00000  Uiso   1.00
H183   H     0.69950   0.48050   0.01493   0.00000  Uiso   1.00
H184   H     0.83995   0.44946   0.08122   0.00000  Uiso   1.00
H185   H     0.80837   0.00383   0.08813   0.00000  Uiso   1.00
H186   H     0.88506   0.02005   0.05880   0.00000  Uiso   1.00
H187   H     0.87608   0.04447   0.12002   0.00000  Uiso   1.00
H188   H     0.90786   0.49066   0.11289   0.00000  Uiso   1.00
H189   H     0.74579   0.00039   0.26635   0.00000  Uiso   1.00
H190   H     0.68032   0.37704   0.17608   0.00000  Uiso   1.00
H191   H     0.77301   0.04870   0.29892   0.00000  Uiso   1.00
H192   H     0.83706   0.49625   0.31826   0.00000  Uiso   1.00
H193   H     0.78510   0.47048   0.00626   0.00000  Uiso   1.00
H194   H     0.81105   0.44887   0.28352   0.00000  Uiso   1.00
H195   H     0.62911   0.42144   0.21438   0.00000  Uiso   1.00
H196   H     0.66816   0.45302   0.25431   0.00000  Uiso   1.00
H197   H     0.58497   0.49331   0.20200   0.00000  Uiso   1.00
H198   H     0.62417   0.02706   0.23891   0.00000  Uiso   1.00
H199   H     0.59142   0.48068   0.26760   0.00000  Uiso   1.00
H200   H     0.61526   0.30401   0.10626   0.00000  Uiso   1.00
H201   H     0.88800   0.17471   0.14804   0.00000  Uiso   1.00
H202   H     0.89109   0.32541   0.17241   0.00000  Uiso   1.00
H203   H     0.60870   0.19474   0.21790   0.00000  Uiso   1.00
H204   H     0.54791   0.27631   0.02491   0.00000  Uiso   1.00
N205   N     0.75000   0.12623   0.16667   0.00000  Uiso   1.00
N206   N     0.75000   0.37376   0.16667   0.00000  Uiso   1.00
O207   O     0.68453   0.28974   0.16667   0.00000  Uiso   1.00
O208   O     0.97352   0.16437   0.13931   0.00000  Uiso   1.00
O209   O     0.97695   0.33470   0.16487   0.00000  Uiso   1.00
O210   O     0.52239   0.18686   0.21869   0.00000  Uiso   1.00
O211   O     0.69457   0.02794   0.09969   0.00000  Uiso   1.00
O212   O     0.82942   0.47144   0.15412   0.00000  Uiso   1.00
O213   O     0.80348   0.02884   0.23310   0.00000  Uiso   1.00
O214   O     0.66908   0.47133   0.17861   0.00000  Uiso   1.00
O215   O     0.81547   0.21026   0.16666   0.00000  Uiso   1.00
O216   O     0.81547   0.28974   0.16666   0.00000  Uiso   1.00
O217   O     0.68453   0.21026   0.16667   0.00000  Uiso   1.00
O218   O     0.75000   0.28973   0.09511   0.00000  Uiso   1.00
O219   O     0.75000   0.21027   0.23822   0.00000  Uiso   1.00
O220   O     0.75000   0.28973   0.23822   0.00000  Uiso   1.00
O221   O     0.75000   0.21027   0.09511   0.00000  Uiso   1.00
O222   O     0.53005   0.30974   0.09060   0.00000  Uiso   1.00
Zn223  Zn    0.75000   0.30307   0.16667   0.00000  Uiso   1.00
Zn224  Zn    0.75000   0.19693   0.16667   0.00000  Uiso   1.00
C225   C     0.16403   0.74993   0.16636   0.00000  Uiso   1.00
C226   C     0.20916   0.94729   0.17349   0.00000  Uiso   1.00
C227   C     0.24997   0.75003   0.07281   0.00000  Uiso   1.00
C228   C     0.25000   0.74996   0.26052   0.00000  Uiso   1.00
C229   C     0.24870   0.52682   0.16620   0.00000  Uiso   1.00
C230   C     0.24889   0.97339   0.16568   0.00000  Uiso   1.00
C231   C     0.24997   0.75004   0.02175   0.00000  Uiso   1.00
C232   C     0.24998   0.74994   0.31158   0.00000  Uiso   1.00
C233   C     0.04994   0.77803   0.12289   0.00000  Uiso   1.00
C234   C     0.45210   0.70716   0.14550   0.00000  Uiso   1.00
C235   C     0.45414   0.79221   0.16232   0.00000  Uiso   1.00
C236   C     0.33624   0.75005   0.16591   0.00000  Uiso   1.00
C237   C     0.04602   0.71829   0.18923   0.00000  Uiso   1.00
C238   C     0.09577   0.77983   0.12889   0.00000  Uiso   1.00
C239   C     0.40622   0.70767   0.15139   0.00000  Uiso   1.00
C240   C     0.40803   0.79229   0.16574   0.00000  Uiso   1.00
C241   C     0.09209   0.71829   0.19199   0.00000  Uiso   1.00
C242   C     0.11650   0.74968   0.16279   0.00000  Uiso   1.00
C243   C     0.38423   0.75000   0.16153   0.00000  Uiso   1.00
C244   C     0.02473   0.74788   0.15403   0.00000  Uiso   1.00
C245   C     0.47630   0.74934   0.15253   0.00000  Uiso   1.00
C246   C     0.01768   0.78630   0.04645   0.00000  Uiso   1.00
C247   C     0.22277   0.60289   0.13438   0.00000  Uiso   1.00
C248   C     0.48931   0.81943   0.01514   0.00000  Uiso   1.00
C249   C     0.47214   0.65144   0.08870   0.00000  Uiso   1.00
C250   C     0.48637   0.60017   0.08391   0.00000  Uiso   1.00
C251   C     0.48686   0.84505   0.21499   0.00000  Uiso   1.00
C252   C     0.00927   0.89325   0.21764   0.00000  Uiso   1.00
C253   C     0.00736   0.71029   0.26173   0.00000  Uiso   1.00
C254   C     0.47544   0.67805   0.28973   0.00000  Uiso   1.00
C255   C     0.19398   0.54829   0.05166   0.00000  Uiso   1.00
C256   C     0.17725   0.51179   0.01467   0.00000  Uiso   1.00
C257   C     0.33633   0.98236   0.10346   0.00000  Uiso   1.00
C258   C     0.28875   0.89836   0.16032   0.00000  Uiso   1.00
C259   C     0.37903   0.51118   0.09851   0.00000  Uiso   1.00
C260   C     0.27861   0.51673   0.27584   0.00000  Uiso   1.00
C261   C     0.30468   0.98085   0.30625   0.00000  Uiso   1.00
C262   C     0.14567   0.95596   0.22133   0.00000  Uiso   1.00
C263   C     0.10929   0.99153   0.23321   0.00000  Uiso   1.00
C264   C     0.27652   0.60189   0.19883   0.00000  Uiso   1.00
C265   C     0.21072   0.89725   0.17252   0.00000  Uiso   1.00
C266   C     0.22218   0.55273   0.13221   0.00000  Uiso   1.00
C267   C     0.28910   0.94807   0.15889   0.00000  Uiso   1.00
C268   C     0.27587   0.55222   0.20009   0.00000  Uiso   1.00
H269   H     0.20141   0.62363   0.11046   0.00000  Uiso   1.00
H270   H     0.49728   0.75428   0.05403   0.00000  Uiso   1.00
H271   H     0.00950   0.85033   0.00309   0.00000  Uiso   1.00
H272   H     0.47662   0.80058   0.31523   0.00000  Uiso   1.00
H273   H     0.46030   0.83189   0.03716   0.00000  Uiso   1.00
H274   H     0.49605   0.67351   0.06723   0.00000  Uiso   1.00
H275   H     0.43799   0.65483   0.07248   0.00000  Uiso   1.00
H276   H     0.46342   0.57711   0.10553   0.00000  Uiso   1.00
H277   H     0.48537   0.58934   0.04422   0.00000  Uiso   1.00
H278   H     0.02091   0.59572   0.09827   0.00000  Uiso   1.00
H279   H     0.01055   0.81870   0.23052   0.00000  Uiso   1.00
H280   H     0.31978   0.87949   0.15582   0.00000  Uiso   1.00
H281   H     0.45594   0.84606   0.23799   0.00000  Uiso   1.00
H282   H     0.48652   0.92074   0.20268   0.00000  Uiso   1.00
H283   H     0.04056   0.89315   0.19549   0.00000  Uiso   1.00
H284   H     0.01755   0.90185   0.25690   0.00000  Uiso   1.00
H285   H     0.48864   0.74287   0.25233   0.00000  Uiso   1.00
H286   H     0.03604   0.71923   0.28640   0.00000  Uiso   1.00
H287   H     0.44764   0.66704   0.26485   0.00000  Uiso   1.00
H288   H     0.46119   0.69717   0.32198   0.00000  Uiso   1.00
H289   H     0.49338   0.64621   0.30312   0.00000  Uiso   1.00
H290   H     0.22791   0.55995   0.03975   0.00000  Uiso   1.00
H291   H     0.29794   0.62112   0.22421   0.00000  Uiso   1.00
H292   H     0.17054   0.57862   0.05057   0.00000  Uiso   1.00
H293   H     0.14283   0.50046   0.02448   0.00000  Uiso   1.00
H294   H     0.17694   0.52742   0.31010   0.00000  Uiso   1.00
H295   H     0.19950   0.98050   0.01493   0.00000  Uiso   1.00
H296   H     0.33995   0.94946   0.08122   0.00000  Uiso   1.00
H297   H     0.30837   0.50383   0.08813   0.00000  Uiso   1.00
H298   H     0.38506   0.52005   0.05880   0.00000  Uiso   1.00
H299   H     0.37608   0.54447   0.12002   0.00000  Uiso   1.00
H300   H     0.40786   0.99066   0.11289   0.00000  Uiso   1.00
H301   H     0.24579   0.50039   0.26635   0.00000  Uiso   1.00
H302   H     0.18032   0.87704   0.17608   0.00000  Uiso   1.00
H303   H     0.27301   0.54870   0.29892   0.00000  Uiso   1.00
H304   H     0.33706   0.99625   0.31826   0.00000  Uiso   1.00
H305   H     0.28510   0.97048   0.00626   0.00000  Uiso   1.00
H306   H     0.31105   0.94887   0.28352   0.00000  Uiso   1.00
H307   H     0.12911   0.92144   0.21438   0.00000  Uiso   1.00
H308   H     0.16816   0.95302   0.25431   0.00000  Uiso   1.00
H309   H     0.08497   0.99331   0.20200   0.00000  Uiso   1.00
H310   H     0.12417   0.52706   0.23891   0.00000  Uiso   1.00
H311   H     0.09142   0.98068   0.26760   0.00000  Uiso   1.00
H312   H     0.11526   0.80401   0.10626   0.00000  Uiso   1.00
H313   H     0.38800   0.67471   0.14804   0.00000  Uiso   1.00
H314   H     0.39109   0.82541   0.17241   0.00000  Uiso   1.00
H315   H     0.10870   0.69474   0.21790   0.00000  Uiso   1.00
H316   H     0.04791   0.77631   0.02491   0.00000  Uiso   1.00
N317   N     0.25000   0.62623   0.16667   0.00000  Uiso   1.00
N318   N     0.25000   0.87376   0.16667   0.00000  Uiso   1.00
O319   O     0.18453   0.78974   0.16667   0.00000  Uiso   1.00
O320   O     0.47352   0.66437   0.13931   0.00000  Uiso   1.00
O321   O     0.47695   0.83470   0.16487   0.00000  Uiso   1.00
O322   O     0.02239   0.68686   0.21869   0.00000  Uiso   1.00
O323   O     0.19457   0.52794   0.09969   0.00000  Uiso   1.00
O324   O     0.32942   0.97144   0.15412   0.00000  Uiso   1.00
O325   O     0.30348   0.52884   0.23310   0.00000  Uiso   1.00
O326   O     0.16908   0.97133   0.17861   0.00000  Uiso   1.00
O327   O     0.31547   0.71026   0.16666   0.00000  Uiso   1.00
O328   O     0.31547   0.78974   0.16666   0.00000  Uiso   1.00
O329   O     0.18453   0.71026   0.16667   0.00000  Uiso   1.00
O330   O     0.25000   0.78973   0.09511   0.00000  Uiso   1.00
O331   O     0.25000   0.71027   0.23822   0.00000  Uiso   1.00
O332   O     0.25000   0.78973   0.23822   0.00000  Uiso   1.00
O333   O     0.25000   0.71027   0.09511   0.00000  Uiso   1.00
O334   O     0.03005   0.80974   0.09060   0.00000  Uiso   1.00
Zn335  Zn    0.25000   0.80307   0.16667   0.00000  Uiso   1.00
Zn336  Zn    0.25000   0.69693   0.16667   0.00000  Uiso   1.00
C337   C     0.66403   0.74993   0.16636   0.00000  Uiso   1.00
C338   C     0.70916   0.94729   0.17349   0.00000  Uiso   1.00
C339   C     0.74997   0.75003   0.07281   0.00000  Uiso   1.00
C340   C     0.75000   0.74996   0.26052   0.00000  Uiso   1.00
C341   C     0.74870   0.52682   0.16620   0.00000  Uiso   1.00
C342   C     0.74889   0.97339   0.16568   0.00000  Uiso   1.00
C343   C     0.74997   0.75004   0.02175   0.00000  Uiso   1.00
C344   C     0.74998   0.74994   0.31158   0.00000  Uiso   1.00
C345   C     0.54994   0.77803   0.12289   0.00000  Uiso   1.00
C346   C     0.95210   0.70716   0.14550   0.00000  Uiso   1.00
C347   C     0.95414   0.79221   0.16232   0.00000  Uiso   1.00
C348   C     0.83624   0.75005   0.16591   0.00000  Uiso   1.00
C349   C     0.54602   0.71829   0.18923   0.00000  Uiso   1.00
C350   C     0.59577   0.77983   0.12889   0.00000  Uiso   1.00
C351   C     0.90622   0.70767   0.15139   0.00000  Uiso   1.00
C352   C     0.90803   0.79229   0.16574   0.00000  Uiso   1.00
C353   C     0.59209   0.71829   0.19199   0.00000  Uiso   1.00
C354   C     0.61650   0.74968   0.16279   0.00000  Uiso   1.00
C355   C     0.88423   0.75000   0.16153   0.00000  Uiso   1.00
C356   C     0.52473   0.74788   0.15403   0.00000  Uiso   1.00
C357   C     0.97630   0.74934   0.15253   0.00000  Uiso   1.00
C358   C     0.51768   0.78630   0.04645   0.00000  Uiso   1.00
C359   C     0.72277   0.60289   0.13438   0.00000  Uiso   1.00
C360   C     0.98931   0.81943   0.01514   0.00000  Uiso   1.00
C361   C     0.97214   0.65144   0.08870   0.00000  Uiso   1.00
C362   C     0.98637   0.60017   0.08391   0.00000  Uiso   1.00
C363   C     0.98686   0.84505   0.21499   0.00000  Uiso   1.00
C364   C     0.50927   0.89325   0.21764   0.00000  Uiso   1.00
C365   C     0.50736   0.71029   0.26173   0.00000  Uiso   1.00
C366   C     0.97544   0.67805   0.28973   0.00000  Uiso   1.00
C367   C     0.69398   0.54829   0.05166   0.00000  Uiso   1.00
C368   C     0.67725   0.51179   0.01467   0.00000  Uiso   1.00
C369   C     0.83633   0.98236   0.10346   0.00000  Uiso   1.00
C370   C     0.78875   0.89836   0.16032   0.00000  Uiso   1.00
C371   C     0.87903   0.51118   0.09851   0.00000  Uiso   1.00
C372   C     0.77861   0.51673   0.27584   0.00000  Uiso   1.00
C373   C     0.80468   0.98085   0.30625   0.00000  Uiso   1.00
C374   C     0.64567   0.95596   0.22133   0.00000  Uiso   1.00
C375   C     0.60929   0.99153   0.23321   0.00000  Uiso   1.00
C376   C     0.77652   0.60189   0.19883   0.00000  Uiso   1.00
C377   C     0.71072   0.89725   0.17252   0.00000  Uiso   1.00
C378   C     0.72218   0.55273   0.13221   0.00000  Uiso   1.00
C379   C     0.78910   0.94807   0.15889   0.00000  Uiso   1.00
C380   C     0.77587   0.55222   0.20009   0.00000  Uiso   1.00
H381   H     0.70141   0.62363   0.11046   0.00000  Uiso   1.00
H382   H     0.99728   0.75428   0.05403   0.00000  Uiso   1.00
H383   H     0.50950   0.85033   0.00309   0.00000  Uiso   1.00
H384   H     0.97662   0.80058   0.31523   0.00000  Uiso   1.00
H385   H     0.96030   0.83189   0.03716   0.00000  Uiso   1.00
H386   H     0.99605   0.67351   0.06723   0.00000  Uiso   1.00
H387   H     0.93799   0.65483   0.07248   0.00000  Uiso   1.00
H388   H     0.96342   0.57711   0.10553   0.00000  Uiso   1.00
H389   H     0.98537   0.58934   0.04422   0.00000  Uiso   1.00
H390   H     0.52091   0.59572   0.09827   0.00000  Uiso   1.00
H391   H     0.51055   0.81870   0.23052   0.00000  Uiso   1.00
H392   H     0.81978   0.87949   0.15582   0.00000  Uiso   1.00
H393   H     0.95594   0.84606   0.23799   0.00000  Uiso   1.00
H394   H     0.98652   0.92074   0.20268   0.00000  Uiso   1.00
H395   H     0.54056   0.89315   0.19549   0.00000  Uiso   1.00
H396   H     0.51755   0.90185   0.25690   0.00000  Uiso   1.00
H397   H     0.98864   0.74287   0.25233   0.00000  Uiso   1.00
H398   H     0.53604   0.71923   0.28640   0.00000  Uiso   1.00
H399   H     0.94764   0.66704   0.26485   0.00000  Uiso   1.00
H400   H     0.96119   0.69717   0.32198   0.00000  Uiso   1.00
H401   H     0.99338   0.64621   0.30312   0.00000  Uiso   1.00
H402   H     0.72791   0.55995   0.03975   0.00000  Uiso   1.00
H403   H     0.79794   0.62112   0.22421   0.00000  Uiso   1.00
H404   H     0.67054   0.57862   0.05057   0.00000  Uiso   1.00
H405   H     0.64283   0.50046   0.02448   0.00000  Uiso   1.00
H406   H     0.67694   0.52742   0.31010   0.00000  Uiso   1.00
H407   H     0.69950   0.98050   0.01493   0.00000  Uiso   1.00
H408   H     0.83995   0.94946   0.08122   0.00000  Uiso   1.00
H409   H     0.80837   0.50383   0.08813   0.00000  Uiso   1.00
H410   H     0.88506   0.52005   0.05880   0.00000  Uiso   1.00
H411   H     0.87608   0.54447   0.12002   0.00000  Uiso   1.00
H412   H     0.90786   0.99066   0.11289   0.00000  Uiso   1.00
H413   H     0.74579   0.50039   0.26635   0.00000  Uiso   1.00
H414   H     0.68032   0.87704   0.17608   0.00000  Uiso   1.00
H415   H     0.77301   0.54870   0.29892   0.00000  Uiso   1.00
H416   H     0.83706   0.99625   0.31826   0.00000  Uiso   1.00
H417   H     0.78510   0.97048   0.00626   0.00000  Uiso   1.00
H418   H     0.81105   0.94887   0.28352   0.00000  Uiso   1.00
H419   H     0.62911   0.92144   0.21438   0.00000  Uiso   1.00
H420   H     0.66816   0.95302   0.25431   0.00000  Uiso   1.00
H421   H     0.58497   0.99331   0.20200   0.00000  Uiso   1.00
H422   H     0.62417   0.52706   0.23891   0.00000  Uiso   1.00
H423   H     0.59142   0.98068   0.26760   0.00000  Uiso   1.00
H424   H     0.61526   0.80401   0.10626   0.00000  Uiso   1.00
H425   H     0.88800   0.67471   0.14804   0.00000  Uiso   1.00
H426   H     0.89109   0.82541   0.17241   0.00000  Uiso   1.00
H427   H     0.60870   0.69474   0.21790   0.00000  Uiso   1.00
H428   H     0.54791   0.77631   0.02491   0.00000  Uiso   1.00
N429   N     0.75000   0.62623   0.16667   0.00000  Uiso   1.00
N430   N     0.75000   0.87376   0.16667   0.00000  Uiso   1.00
O431   O     0.68453   0.78974   0.16667   0.00000  Uiso   1.00
O432   O     0.97352   0.66437   0.13931   0.00000  Uiso   1.00
O433   O     0.97695   0.83470   0.16487   0.00000  Uiso   1.00
O434   O     0.52239   0.68686   0.21869   0.00000  Uiso   1.00
O435   O     0.69457   0.52794   0.09969   0.00000  Uiso   1.00
O436   O     0.82942   0.97144   0.15412   0.00000  Uiso   1.00
O437   O     0.80348   0.52884   0.23310   0.00000  Uiso   1.00
O438   O     0.66908   0.97133   0.17861   0.00000  Uiso   1.00
O439   O     0.81547   0.71026   0.16666   0.00000  Uiso   1.00
O440   O     0.81547   0.78974   0.16666   0.00000  Uiso   1.00
O441   O     0.68453   0.71026   0.16667   0.00000  Uiso   1.00
O442   O     0.75000   0.78973   0.09511   0.00000  Uiso   1.00
O443   O     0.75000   0.71027   0.23822   0.00000  Uiso   1.00
O444   O     0.75000   0.78973   0.23822   0.00000  Uiso   1.00
O445   O     0.75000   0.71027   0.09511   0.00000  Uiso   1.00
O446   O     0.53005   0.80974   0.09060   0.00000  Uiso   1.00
Zn447  Zn    0.75000   0.80307   0.16667   0.00000  Uiso   1.00
Zn448  Zn    0.75000   0.69693   0.16667   0.00000  Uiso   1.00
C449   C     0.16403   0.24993   0.49969   0.00000  Uiso   1.00
C450   C     0.20916   0.44729   0.50682   0.00000  Uiso   1.00
C451   C     0.24997   0.25003   0.40614   0.00000  Uiso   1.00
C452   C     0.25000   0.24996   0.59385   0.00000  Uiso   1.00
C453   C     0.24870   0.02682   0.49954   0.00000  Uiso   1.00
C454   C     0.24889   0.47339   0.49902   0.00000  Uiso   1.00
C455   C     0.24997   0.25004   0.35509   0.00000  Uiso   1.00
C456   C     0.24998   0.24994   0.64492   0.00000  Uiso   1.00
C457   C     0.04994   0.27803   0.45622   0.00000  Uiso   1.00
C458   C     0.45210   0.20716   0.47883   0.00000  Uiso   1.00
C459   C     0.45414   0.29221   0.49565   0.00000  Uiso   1.00
C460   C     0.33624   0.25005   0.49924   0.00000  Uiso   1.00
C461   C     0.04602   0.21829   0.52256   0.00000  Uiso   1.00
C462   C     0.09577   0.27983   0.46222   0.00000  Uiso   1.00
C463   C     0.40622   0.20767   0.48472   0.00000  Uiso   1.00
C464   C     0.40803   0.29229   0.49907   0.00000  Uiso   1.00
C465   C     0.09209   0.21829   0.52533   0.00000  Uiso   1.00
C466   C     0.11650   0.24968   0.49612   0.00000  Uiso   1.00
C467   C     0.38423   0.25000   0.49486   0.00000  Uiso   1.00
C468   C     0.02473   0.24788   0.48737   0.00000  Uiso   1.00
C469   C     0.47630   0.24934   0.48586   0.00000  Uiso   1.00
C470   C     0.01768   0.28630   0.37978   0.00000  Uiso   1.00
C471   C     0.22277   0.10289   0.46771   0.00000  Uiso   1.00
C472   C     0.48931   0.31943   0.34847   0.00000  Uiso   1.00
C473   C     0.47214   0.15144   0.42204   0.00000  Uiso   1.00
C474   C     0.48637   0.10017   0.41724   0.00000  Uiso   1.00
C475   C     0.48686   0.34505   0.54832   0.00000  Uiso   1.00
C476   C     0.00927   0.39325   0.55098   0.00000  Uiso   1.00
C477   C     0.00736   0.21029   0.59507   0.00000  Uiso   1.00
C478   C     0.47544   0.17805   0.62306   0.00000  Uiso   1.00
C479   C     0.19398   0.04829   0.38499   0.00000  Uiso   1.00
C480   C     0.17725   0.01179   0.34800   0.00000  Uiso   1.00
C481   C     0.33633   0.48236   0.43680   0.00000  Uiso   1.00
C482   C     0.28875   0.39836   0.49365   0.00000  Uiso   1.00
C483   C     0.37903   0.01118   0.43184   0.00000  Uiso   1.00
C484   C     0.27861   0.01673   0.60918   0.00000  Uiso   1.00
C485   C     0.30468   0.48085   0.63958   0.00000  Uiso   1.00
C486   C     0.14567   0.45596   0.55467   0.00000  Uiso   1.00
C487   C     0.10929   0.49153   0.56654   0.00000  Uiso   1.00
C488   C     0.27652   0.10189   0.53217   0.00000  Uiso   1.00
C489   C     0.21072   0.39725   0.50585   0.00000  Uiso   1.00
C490   C     0.22218   0.05273   0.46554   0.00000  Uiso   1.00
C491   C     0.28910   0.44807   0.49222   0.00000  Uiso   1.00
C492   C     0.27587   0.05222   0.53343   0.00000  Uiso   1.00
H493   H     0.20141   0.12363   0.44379   0.00000  Uiso   1.00
H494   H     0.49728   0.25428   0.38736   0.00000  Uiso   1.00
H495   H     0.00950   0.35033   0.33643   0.00000  Uiso   1.00
H496   H     0.47662   0.30058   0.64857   0.00000  Uiso   1.00
H497   H     0.46030   0.33189   0.37049   0.00000  Uiso   1.00
H498   H     0.49605   0.17351   0.40056   0.00000  Uiso   1.00
H499   H     0.43799   0.15483   0.40581   0.00000  Uiso   1.00
H500   H     0.46342   0.07711   0.43886   0.00000  Uiso   1.00
H501   H     0.48537   0.08934   0.37756   0.00000  Uiso   1.00
H502   H     0.02091   0.09572   0.43160   0.00000  Uiso   1.00
H503   H     0.01055   0.31870   0.56385   0.00000  Uiso   1.00
H504   H     0.31978   0.37949   0.48915   0.00000  Uiso   1.00
H505   H     0.45594   0.34606   0.57133   0.00000  Uiso   1.00
H506   H     0.48652   0.42074   0.53601   0.00000  Uiso   1.00
H507   H     0.04056   0.39315   0.52882   0.00000  Uiso   1.00
H508   H     0.01755   0.40185   0.59024   0.00000  Uiso   1.00
H509   H     0.48864   0.24287   0.58567   0.00000  Uiso   1.00
H510   H     0.03604   0.21923   0.61973   0.00000  Uiso   1.00
H511   H     0.44764   0.16704   0.59819   0.00000  Uiso   1.00
H512   H     0.46119   0.19717   0.65531   0.00000  Uiso   1.00
H513   H     0.49338   0.14621   0.63645   0.00000  Uiso   1.00
H514   H     0.22791   0.05995   0.37308   0.00000  Uiso   1.00
H515   H     0.29794   0.12112   0.55754   0.00000  Uiso   1.00
H516   H     0.17054   0.07862   0.38390   0.00000  Uiso   1.00
H517   H     0.14283   0.00046   0.35781   0.00000  Uiso   1.00
H518   H     0.17694   0.02742   0.64343   0.00000  Uiso   1.00
H519   H     0.19950   0.48050   0.34826   0.00000  Uiso   1.00
H520   H     0.33995   0.44946   0.41455   0.00000  Uiso   1.00
H521   H     0.30837   0.00383   0.42146   0.00000  Uiso   1.00
H522   H     0.38506   0.02005   0.39213   0.00000  Uiso   1.00
H523   H     0.37608   0.04447   0.45336   0.00000  Uiso   1.00
H524   H     0.40786   0.49066   0.44623   0.00000  Uiso   1.00
H525   H     0.24579   0.00039   0.59968   0.00000  Uiso   1.00
H526   H     0.18032   0.37704   0.50941   0.00000  Uiso   1.00
H527   H     0.27301   0.04870   0.63225   0.00000  Uiso   1.00
H528   H     0.33706   0.49625   0.65160   0.00000  Uiso   1.00
H529   H     0.28510   0.47048   0.33959   0.00000  Uiso   1.00
H530   H     0.31105   0.44887   0.61686   0.00000  Uiso   1.00
H531   H     0.12911   0.42144   0.54771   0.00000  Uiso   1.00
H532   H     0.16816   0.45302   0.58764   0.00000  Uiso   1.00
H533   H     0.08497   0.49331   0.53533   0.00000  Uiso   1.00
H534   H     0.12417   0.02706   0.57224   0.00000  Uiso   1.00
H535   H     0.09142   0.48068   0.60093   0.00000  Uiso   1.00
H536   H     0.11526   0.30401   0.43959   0.00000  Uiso   1.00
H537   H     0.38800   0.17471   0.48137   0.00000  Uiso   1.00
H538   H     0.39109   0.32541   0.50574   0.00000  Uiso   1.00
H539   H     0.10870   0.19474   0.55123   0.00000  Uiso   1.00
H540   H     0.04791   0.27631   0.35824   0.00000  Uiso   1.00
N541   N     0.25000   0.12623   0.50000   0.00000  Uiso   1.00
N542   N     0.25000   0.37376   0.50000   0.00000  Uiso   1.00
O543   O     0.18453   0.28974   0.50000   0.00000  Uiso   1.00
O544   O     0.47352   0.16437   0.47265   0.00000  Uiso   1.00
O545   O     0.47695   0.33470   0.49821   0.00000  Uiso   1.00
O546   O     0.02239   0.18686   0.55202   0.00000  Uiso   1.00
O547   O     0.19457   0.02794   0.43303   0.00000  Uiso   1.00
O548   O     0.32942   0.47144   0.48745   0.00000  Uiso   1.00
O549   O     0.30348   0.02884   0.56643   0.00000  Uiso   1.00
O550   O     0.16908   0.47133   0.51194   0.00000  Uiso   1.00
O551   O     0.31547   0.21026   0.50000   0.00000  Uiso   1.00
O552   O     0.31547   0.28974   0.50000   0.00000  Uiso   1.00
O553   O     0.18453   0.21026   0.50000   0.00000  Uiso   1.00
O554   O     0.25000   0.28973   0.42845   0.00000  Uiso   1.00
O555   O     0.25000   0.21027   0.57155   0.00000  Uiso   1.00
O556   O     0.25000   0.28973   0.57155   0.00000  Uiso   1.00
O557   O     0.25000   0.21027   0.42845   0.00000  Uiso   1.00
O558   O     0.03005   0.30974   0.42394   0.00000  Uiso   1.00
Zn559  Zn    0.25000   0.30307   0.50000   0.00000  Uiso   1.00
Zn560  Zn    0.25000   0.19693   0.50000   0.00000  Uiso   1.00
C561   C     0.66403   0.24993   0.49969   0.00000  Uiso   1.00
C562   C     0.70916   0.44729   0.50682   0.00000  Uiso   1.00
C563   C     0.74997   0.25003   0.40614   0.00000  Uiso   1.00
C564   C     0.75000   0.24996   0.59385   0.00000  Uiso   1.00
C565   C     0.74870   0.02682   0.49954   0.00000  Uiso   1.00
C566   C     0.74889   0.47339   0.49902   0.00000  Uiso   1.00
C567   C     0.74997   0.25004   0.35509   0.00000  Uiso   1.00
C568   C     0.74998   0.24994   0.64492   0.00000  Uiso   1.00
C569   C     0.54994   0.27803   0.45622   0.00000  Uiso   1.00
C570   C     0.95210   0.20716   0.47883   0.00000  Uiso   1.00
C571   C     0.95414   0.29221   0.49565   0.00000  Uiso   1.00
C572   C     0.83624   0.25005   0.49924   0.00000  Uiso   1.00
C573   C     0.54602   0.21829   0.52256   0.00000  Uiso   1.00
C574   C     0.59577   0.27983   0.46222   0.00000  Uiso   1.00
C575   C     0.90622   0.20767   0.48472   0.00000  Uiso   1.00
C576   C     0.90803   0.29229   0.49907   0.00000  Uiso   1.00
C577   C     0.59209   0.21829   0.52533   0.00000  Uiso   1.00
C578   C     0.61650   0.24968   0.49612   0.00000  Uiso   1.00
C579   C     0.88423   0.25000   0.49486   0.00000  Uiso   1.00
C580   C     0.52473   0.24788   0.48737   0.00000  Uiso   1.00
C581   C     0.97630   0.24934   0.48586   0.00000  Uiso   1.00
C582   C     0.51768   0.28630   0.37978   0.00000  Uiso   1.00
C583   C     0.72277   0.10289   0.46771   0.00000  Uiso   1.00
C584   C     0.98931   0.31943   0.34847   0.00000  Uiso   1.00
C585   C     0.97214   0.15144   0.42204   0.00000  Uiso   1.00
C586   C     0.98637   0.10017   0.41724   0.00000  Uiso   1.00
C587   C     0.98686   0.34505   0.54832   0.00000  Uiso   1.00
C588   C     0.50927   0.39325   0.55098   0.00000  Uiso   1.00
C589   C     0.50736   0.21029   0.59507   0.00000  Uiso   1.00
C590   C     0.97544   0.17805   0.62306   0.00000  Uiso   1.00
C591   C     0.69398   0.04829   0.38499   0.00000  Uiso   1.00
C592   C     0.67725   0.01179   0.34800   0.00000  Uiso   1.00
C593   C     0.83633   0.48236   0.43680   0.00000  Uiso   1.00
C594   C     0.78875   0.39836   0.49365   0.00000  Uiso   1.00
C595   C     0.87903   0.01118   0.43184   0.00000  Uiso   1.00
C596   C     0.77861   0.01673   0.60918   0.00000  Uiso   1.00
C597   C     0.80468   0.48085   0.63958   0.00000  Uiso   1.00
C598   C     0.64567   0.45596   0.55467   0.00000  Uiso   1.00
C599   C     0.60929   0.49153   0.56654   0.00000  Uiso   1.00
C600   C     0.77652   0.10189   0.53217   0.00000  Uiso   1.00
C601   C     0.71072   0.39725   0.50585   0.00000  Uiso   1.00
C602   C     0.72218   0.05273   0.46554   0.00000  Uiso   1.00
C603   C     0.78910   0.44807   0.49222   0.00000  Uiso   1.00
C604   C     0.77587   0.05222   0.53343   0.00000  Uiso   1.00
H605   H     0.70141   0.12363   0.44379   0.00000  Uiso   1.00
H606   H     0.99728   0.25428   0.38736   0.00000  Uiso   1.00
H607   H     0.50950   0.35033   0.33643   0.00000  Uiso   1.00
H608   H     0.97662   0.30058   0.64857   0.00000  Uiso   1.00
H609   H     0.96030   0.33189   0.37049   0.00000  Uiso   1.00
H610   H     0.99605   0.17351   0.40056   0.00000  Uiso   1.00
H611   H     0.93799   0.15483   0.40581   0.00000  Uiso   1.00
H612   H     0.96342   0.07711   0.43886   0.00000  Uiso   1.00
H613   H     0.98537   0.08934   0.37756   0.00000  Uiso   1.00
H614   H     0.52091   0.09572   0.43160   0.00000  Uiso   1.00
H615   H     0.51055   0.31870   0.56385   0.00000  Uiso   1.00
H616   H     0.81978   0.37949   0.48915   0.00000  Uiso   1.00
H617   H     0.95594   0.34606   0.57133   0.00000  Uiso   1.00
H618   H     0.98652   0.42074   0.53601   0.00000  Uiso   1.00
H619   H     0.54056   0.39315   0.52882   0.00000  Uiso   1.00
H620   H     0.51755   0.40185   0.59024   0.00000  Uiso   1.00
H621   H     0.98864   0.24287   0.58567   0.00000  Uiso   1.00
H622   H     0.53604   0.21923   0.61973   0.00000  Uiso   1.00
H623   H     0.94764   0.16704   0.59819   0.00000  Uiso   1.00
H624   H     0.96119   0.19717   0.65531   0.00000  Uiso   1.00
H625   H     0.99338   0.14621   0.63645   0.00000  Uiso   1.00
H626   H     0.72791   0.05995   0.37308   0.00000  Uiso   1.00
H627   H     0.79794   0.12112   0.55754   0.00000  Uiso   1.00
H628   H     0.67054   0.07862   0.38390   0.00000  Uiso   1.00
H629   H     0.64283   0.00046   0.35781   0.00000  Uiso   1.00
H630   H     0.67694   0.02742   0.64343   0.00000  Uiso   1.00
H631   H     0.69950   0.48050   0.34826   0.00000  Uiso   1.00
H632   H     0.83995   0.44946   0.41455   0.00000  Uiso   1.00
H633   H     0.80837   0.00383   0.42146   0.00000  Uiso   1.00
H634   H     0.88506   0.02005   0.39213   0.00000  Uiso   1.00
H635   H     0.87608   0.04447   0.45336   0.00000  Uiso   1.00
H636   H     0.90786   0.49066   0.44623   0.00000  Uiso   1.00
H637   H     0.74579   0.00039   0.59968   0.00000  Uiso   1.00
H638   H     0.68032   0.37704   0.50941   0.00000  Uiso   1.00
H639   H     0.77301   0.04870   0.63225   0.00000  Uiso   1.00
H640   H     0.83706   0.49625   0.65160   0.00000  Uiso   1.00
H641   H     0.78510   0.47048   0.33959   0.00000  Uiso   1.00
H642   H     0.81105   0.44887   0.61686   0.00000  Uiso   1.00
H643   H     0.62911   0.42144   0.54771   0.00000  Uiso   1.00
H644   H     0.66816   0.45302   0.58764   0.00000  Uiso   1.00
H645   H     0.58497   0.49331   0.53533   0.00000  Uiso   1.00
H646   H     0.62417   0.02706   0.57224   0.00000  Uiso   1.00
H647   H     0.59142   0.48068   0.60093   0.00000  Uiso   1.00
H648   H     0.61526   0.30401   0.43959   0.00000  Uiso   1.00
H649   H     0.88800   0.17471   0.48137   0.00000  Uiso   1.00
H650   H     0.89109   0.32541   0.50574   0.00000  Uiso   1.00
H651   H     0.60870   0.19474   0.55123   0.00000  Uiso   1.00
H652   H     0.54791   0.27631   0.35824   0.00000  Uiso   1.00
N653   N     0.75000   0.12623   0.50000   0.00000  Uiso   1.00
N654   N     0.75000   0.37376   0.50000   0.00000  Uiso   1.00
O655   O     0.68453   0.28974   0.50000   0.00000  Uiso   1.00
O656   O     0.97352   0.16437   0.47265   0.00000  Uiso   1.00
O657   O     0.97695   0.33470   0.49821   0.00000  Uiso   1.00
O658   O     0.52239   0.18686   0.55202   0.00000  Uiso   1.00
O659   O     0.69457   0.02794   0.43303   0.00000  Uiso   1.00
O660   O     0.82942   0.47144   0.48745   0.00000  Uiso   1.00
O661   O     0.80348   0.02884   0.56643   0.00000  Uiso   1.00
O662   O     0.66908   0.47133   0.51194   0.00000  Uiso   1.00
O663   O     0.81547   0.21026   0.50000   0.00000  Uiso   1.00
O664   O     0.81547   0.28974   0.50000   0.00000  Uiso   1.00
O665   O     0.68453   0.21026   0.50000   0.00000  Uiso   1.00
O666   O     0.75000   0.28973   0.42845   0.00000  Uiso   1.00
O667   O     0.75000   0.21027   0.57155   0.00000  Uiso   1.00
O668   O     0.75000   0.28973   0.57155   0.00000  Uiso   1.00
O669   O     0.75000   0.21027   0.42845   0.00000  Uiso   1.00
O670   O     0.53005   0.30974   0.42394   0.00000  Uiso   1.00
Zn671  Zn    0.75000   0.30307   0.50000   0.00000  Uiso   1.00
Zn672  Zn    0.75000   0.19693   0.50000   0.00000  Uiso   1.00
C673   C     0.16403   0.74993   0.49969   0.00000  Uiso   1.00
C674   C     0.20916   0.94729   0.50682   0.00000  Uiso   1.00
C675   C     0.24997   0.75003   0.40614   0.00000  Uiso   1.00
C676   C     0.25000   0.74996   0.59385   0.00000  Uiso   1.00
C677   C     0.24870   0.52682   0.49954   0.00000  Uiso   1.00
C678   C     0.24889   0.97339   0.49902   0.00000  Uiso   1.00
C679   C     0.24997   0.75004   0.35509   0.00000  Uiso   1.00
C680   C     0.24998   0.74994   0.64492   0.00000  Uiso   1.00
C681   C     0.04994   0.77803   0.45622   0.00000  Uiso   1.00
C682   C     0.45210   0.70716   0.47883   0.00000  Uiso   1.00
C683   C     0.45414   0.79221   0.49565   0.00000  Uiso   1.00
C684   C     0.33624   0.75005   0.49924   0.00000  Uiso   1.00
C685   C     0.04602   0.71829   0.52256   0.00000  Uiso   1.00
C686   C     0.09577   0.77983   0.46222   0.00000  Uiso   1.00
C687   C     0.40622   0.70767   0.48472   0.00000  Uiso   1.00
C688   C     0.40803   0.79229   0.49907   0.00000  Uiso   1.00
C689   C     0.09209   0.71829   0.52533   0.00000  Uiso   1.00
C690   C     0.11650   0.74968   0.49612   0.00000  Uiso   1.00
C691   C     0.38423   0.75000   0.49486   0.00000  Uiso   1.00
C692   C     0.02473   0.74788   0.48737   0.00000  Uiso   1.00
C693   C     0.47630   0.74934   0.48586   0.00000  Uiso   1.00
C694   C     0.01768   0.78630   0.37978   0.00000  Uiso   1.00
C695   C     0.22277   0.60289   0.46771   0.00000  Uiso   1.00
C696   C     0.48931   0.81943   0.34847   0.00000  Uiso   1.00
C697   C     0.47214   0.65144   0.42204   0.00000  Uiso   1.00
C698   C     0.48637   0.60017   0.41724   0.00000  Uiso   1.00
C699   C     0.48686   0.84505   0.54832   0.00000  Uiso   1.00
C700   C     0.00927   0.89325   0.55098   0.00000  Uiso   1.00
C701   C     0.00736   0.71029   0.59507   0.00000  Uiso   1.00
C702   C     0.47544   0.67805   0.62306   0.00000  Uiso   1.00
C703   C     0.19398   0.54829   0.38499   0.00000  Uiso   1.00
C704   C     0.17725   0.51179   0.34800   0.00000  Uiso   1.00
C705   C     0.33633   0.98236   0.43680   0.00000  Uiso   1.00
C706   C     0.28875   0.89836   0.49365   0.00000  Uiso   1.00
C707   C     0.37903   0.51118   0.43184   0.00000  Uiso   1.00
C708   C     0.27861   0.51673   0.60918   0.00000  Uiso   1.00
C709   C     0.30468   0.98085   0.63958   0.00000  Uiso   1.00
C710   C     0.14567   0.95596   0.55467   0.00000  Uiso   1.00
C711   C     0.10929   0.99153   0.56654   0.00000  Uiso   1.00
C712   C     0.27652   0.60189   0.53217   0.00000  Uiso   1.00
C713   C     0.21072   0.89725   0.50585   0.00000  Uiso   1.00
C714   C     0.22218   0.55273   0.46554   0.00000  Uiso   1.00
C715   C     0.28910   0.94807   0.49222   0.00000  Uiso   1.00
C716   C     0.27587   0.55222   0.53343   0.00000  Uiso   1.00
H717   H     0.20141   0.62363   0.44379   0.00000  Uiso   1.00
H718   H     0.49728   0.75428   0.38736   0.00000  Uiso   1.00
H719   H     0.00950   0.85033   0.33643   0.00000  Uiso   1.00
H720   H     0.47662   0.80058   0.64857   0.00000  Uiso   1.00
H721   H     0.46030   0.83189   0.37049   0.00000  Uiso   1.00
H722   H     0.49605   0.67351   0.40056   0.00000  Uiso   1.00
H723   H     0.43799   0.65483   0.40581   0.00000  Uiso   1.00
H724   H     0.46342   0.57711   0.43886   0.00000  Uiso   1.00
H725   H     0.48537   0.58934   0.37756   0.00000  Uiso   1.00
H726   H     0.02091   0.59572   0.43160   0.00000  Uiso   1.00
H727   H     0.01055   0.81870   0.56385   0.00000  Uiso   1.00
H728   H     0.31978   0.87949   0.48915   0.00000  Uiso   1.00
H729   H     0.45594   0.84606   0.57133   0.00000  Uiso   1.00
H730   H     0.48652   0.92074   0.53601   0.00000  Uiso   1.00
H731   H     0.04056   0.89315   0.52882   0.00000  Uiso   1.00
H732   H     0.01755   0.90185   0.59024   0.00000  Uiso   1.00
H733   H     0.48864   0.74287   0.58567   0.00000  Uiso   1.00
H734   H     0.03604   0.71923   0.61973   0.00000  Uiso   1.00
H735   H     0.44764   0.66704   0.59819   0.00000  Uiso   1.00
H736   H     0.46119   0.69717   0.65531   0.00000  Uiso   1.00
H737   H     0.49338   0.64621   0.63645   0.00000  Uiso   1.00
H738   H     0.22791   0.55995   0.37308   0.00000  Uiso   1.00
H739   H     0.29794   0.62112   0.55754   0.00000  Uiso   1.00
H740   H     0.17054   0.57862   0.38390   0.00000  Uiso   1.00
H741   H     0.14283   0.50046   0.35781   0.00000  Uiso   1.00
H742   H     0.17694   0.52742   0.64343   0.00000  Uiso   1.00
H743   H     0.19950   0.98050   0.34826   0.00000  Uiso   1.00
H744   H     0.33995   0.94946   0.41455   0.00000  Uiso   1.00
H745   H     0.30837   0.50383   0.42146   0.00000  Uiso   1.00
H746   H     0.38506   0.52005   0.39213   0.00000  Uiso   1.00
H747   H     0.37608   0.54447   0.45336   0.00000  Uiso   1.00
H748   H     0.40786   0.99066   0.44623   0.00000  Uiso   1.00
H749   H     0.24579   0.50039   0.59968   0.00000  Uiso   1.00
H750   H     0.18032   0.87704   0.50941   0.00000  Uiso   1.00
H751   H     0.27301   0.54870   0.63225   0.00000  Uiso   1.00
H752   H     0.33706   0.99625   0.65160   0.00000  Uiso   1.00
H753   H     0.28510   0.97048   0.33959   0.00000  Uiso   1.00
H754   H     0.31105   0.94887   0.61686   0.00000  Uiso   1.00
H755   H     0.12911   0.92144   0.54771   0.00000  Uiso   1.00
H756   H     0.16816   0.95302   0.58764   0.00000  Uiso   1.00
H757   H     0.08497   0.99331   0.53533   0.00000  Uiso   1.00
H758   H     0.12417   0.52706   0.57224   0.00000  Uiso   1.00
H759   H     0.09142   0.98068   0.60093   0.00000  Uiso   1.00
H760   H     0.11526   0.80401   0.43959   0.00000  Uiso   1.00
H761   H     0.38800   0.67471   0.48137   0.00000  Uiso   1.00
H762   H     0.39109   0.82541   0.50574   0.00000  Uiso   1.00
H763   H     0.10870   0.69474   0.55123   0.00000  Uiso   1.00
H764   H     0.04791   0.77631   0.35824   0.00000  Uiso   1.00
N765   N     0.25000   0.62623   0.50000   0.00000  Uiso   1.00
N766   N     0.25000   0.87376   0.50000   0.00000  Uiso   1.00
O767   O     0.18453   0.78974   0.50000   0.00000  Uiso   1.00
O768   O     0.47352   0.66437   0.47265   0.00000  Uiso   1.00
O769   O     0.47695   0.83470   0.49821   0.00000  Uiso   1.00
O770   O     0.02239   0.68686   0.55202   0.00000  Uiso   1.00
O771   O     0.19457   0.52794   0.43303   0.00000  Uiso   1.00
O772   O     0.32942   0.97144   0.48745   0.00000  Uiso   1.00
O773   O     0.30348   0.52884   0.56643   0.00000  Uiso   1.00
O774   O     0.16908   0.97133   0.51194   0.00000  Uiso   1.00
O775   O     0.31547   0.71026   0.50000   0.00000  Uiso   1.00
O776   O     0.31547   0.78974   0.50000   0.00000  Uiso   1.00
O777   O     0.18453   0.71026   0.50000   0.00000  Uiso   1.00
O778   O     0.25000   0.78973   0.42845   0.00000  Uiso   1.00
O779   O     0.25000   0.71027   0.57155   0.00000  Uiso   1.00
O780   O     0.25000   0.78973   0.57155   0.00000  Uiso   1.00
O781   O     0.25000   0.71027   0.42845   0.00000  Uiso   1.00
O782   O     0.03005   0.80974   0.42394   0.00000  Uiso   1.00
Zn783  Zn    0.25000   0.80307   0.50000   0.00000  Uiso   1.00
Zn784  Zn    0.25000   0.69693   0.50000   0.00000  Uiso   1.00
C785   C     0.66403   0.74993   0.49969   0.00000  Uiso   1.00
C786   C     0.70916   0.94729   0.50682   0.00000  Uiso   1.00
C787   C     0.74997   0.75003   0.40614   0.00000  Uiso   1.00
C788   C     0.75000   0.74996   0.59385   0.00000  Uiso   1.00
C789   C     0.74870   0.52682   0.49954   0.00000  Uiso   1.00
C790   C     0.74889   0.97339   0.49902   0.00000  Uiso   1.00
C791   C     0.74997   0.75004   0.35509   0.00000  Uiso   1.00
C792   C     0.74998   0.74994   0.64492   0.00000  Uiso   1.00
C793   C     0.54994   0.77803   0.45622   0.00000  Uiso   1.00
C794   C     0.95210   0.70716   0.47883   0.00000  Uiso   1.00
C795   C     0.95414   0.79221   0.49565   0.00000  Uiso   1.00
C796   C     0.83624   0.75005   0.49924   0.00000  Uiso   1.00
C797   C     0.54602   0.71829   0.52256   0.00000  Uiso   1.00
C798   C     0.59577   0.77983   0.46222   0.00000  Uiso   1.00
C799   C     0.90622   0.70767   0.48472   0.00000  Uiso   1.00
C800   C     0.90803   0.79229   0.49907   0.00000  Uiso   1.00
C801   C     0.59209   0.71829   0.52533   0.00000  Uiso   1.00
C802   C     0.61650   0.74968   0.49612   0.00000  Uiso   1.00
C803   C     0.88423   0.75000   0.49486   0.00000  Uiso   1.00
C804   C     0.52473   0.74788   0.48737   0.00000  Uiso   1.00
C805   C     0.97630   0.74934   0.48586   0.00000  Uiso   1.00
C806   C     0.51768   0.78630   0.37978   0.00000  Uiso   1.00
C807   C     0.72277   0.60289   0.46771   0.00000  Uiso   1.00
C808   C     0.98931   0.81943   0.34847   0.00000  Uiso   1.00
C809   C     0.97214   0.65144   0.42204   0.00000  Uiso   1.00
C810   C     0.98637   0.60017   0.41724   0.00000  Uiso   1.00
C811   C     0.98686   0.84505   0.54832   0.00000  Uiso   1.00
C812   C     0.50927   0.89325   0.55098   0.00000  Uiso   1.00
C813   C     0.50736   0.71029   0.59507   0.00000  Uiso   1.00
C814   C     0.97544   0.67805   0.62306   0.00000  Uiso   1.00
C815   C     0.69398   0.54829   0.38499   0.00000  Uiso   1.00
C816   C     0.67725   0.51179   0.34800   0.00000  Uiso   1.00
C817   C     0.83633   0.98236   0.43680   0.00000  Uiso   1.00
C818   C     0.78875   0.89836   0.49365   0.00000  Uiso   1.00
C819   C     0.87903   0.51118   0.43184   0.00000  Uiso   1.00
C820   C     0.77861   0.51673   0.60918   0.00000  Uiso   1.00
C821   C     0.80468   0.98085   0.63958   0.00000  Uiso   1.00
C822   C     0.64567   0.95596   0.55467   0.00000  Uiso   1.00
C823   C     0.60929   0.99153   0.56654   0.00000  Uiso   1.00
C824   C     0.77652   0.60189   0.53217   0.00000  Uiso   1.00
C825   C     0.71072   0.89725   0.50585   0.00000  Uiso   1.00
C826   C     0.72218   0.55273   0.46554   0.00000  Uiso   1.00
C827   C     0.78910   0.94807   0.49222   0.00000  Uiso   1.00
C828   C     0.77587   0.55222   0.53343   0.00000  Uiso   1.00
H829   H     0.70141   0.62363   0.44379   0.00000  Uiso   1.00
H830   H     0.99728   0.75428   0.38736   0.00000  Uiso   1.00
H831   H     0.50950   0.85033   0.33643   0.00000  Uiso   1.00
H832   H     0.97662   0.80058   0.64857   0.00000  Uiso   1.00
H833   H     0.96030   0.83189   0.37049   0.00000  Uiso   1.00
H834   H     0.99605   0.67351   0.40056   0.00000  Uiso   1.00
H835   H     0.93799   0.65483   0.40581   0.00000  Uiso   1.00
H836   H     0.96342   0.57711   0.43886   0.00000  Uiso   1.00
H837   H     0.98537   0.58934   0.37756   0.00000  Uiso   1.00
H838   H     0.52091   0.59572   0.43160   0.00000  Uiso   1.00
H839   H     0.51055   0.81870   0.56385   0.00000  Uiso   1.00
H840   H     0.81978   0.87949   0.48915   0.00000  Uiso   1.00
H841   H     0.95594   0.84606   0.57133   0.00000  Uiso   1.00
H842   H     0.98652   0.92074   0.53601   0.00000  Uiso   1.00
H843   H     0.54056   0.89315   0.52882   0.00000  Uiso   1.00
H844   H     0.51755   0.90185   0.59024   0.00000  Uiso   1.00
H845   H     0.98864   0.74287   0.58567   0.00000  Uiso   1.00
H846   H     0.53604   0.71923   0.61973   0.00000  Uiso   1.00
H847   H     0.94764   0.66704   0.59819   0.00000  Uiso   1.00
H848   H     0.96119   0.69717   0.65531   0.00000  Uiso   1.00
H849   H     0.99338   0.64621   0.63645   0.00000  Uiso   1.00
H850   H     0.72791   0.55995   0.37308   0.00000  Uiso   1.00
H851   H     0.79794   0.62112   0.55754   0.00000  Uiso   1.00
H852   H     0.67054   0.57862   0.38390   0.00000  Uiso   1.00
H853   H     0.64283   0.50046   0.35781   0.00000  Uiso   1.00
H854   H     0.67694   0.52742   0.64343   0.00000  Uiso   1.00
H855   H     0.69950   0.98050   0.34826   0.00000  Uiso   1.00
H856   H     0.83995   0.94946   0.41455   0.00000  Uiso   1.00
H857   H     0.80837   0.50383   0.42146   0.00000  Uiso   1.00
H858   H     0.88506   0.52005   0.39213   0.00000  Uiso   1.00
H859   H     0.87608   0.54447   0.45336   0.00000  Uiso   1.00
H860   H     0.90786   0.99066   0.44623   0.00000  Uiso   1.00
H861   H     0.74579   0.50039   0.59968   0.00000  Uiso   1.00
H862   H     0.68032   0.87704   0.50941   0.00000  Uiso   1.00
H863   H     0.77301   0.54870   0.63225   0.00000  Uiso   1.00
H864   H     0.83706   0.99625   0.65160   0.00000  Uiso   1.00
H865   H     0.78510   0.97048   0.33959   0.00000  Uiso   1.00
H866   H     0.81105   0.94887   0.61686   0.00000  Uiso   1.00
H867   H     0.62911   0.92144   0.54771   0.00000  Uiso   1.00
H868   H     0.66816   0.95302   0.58764   0.00000  Uiso   1.00
H869   H     0.58497   0.99331   0.53533   0.00000  Uiso   1.00
H870   H     0.62417   0.52706   0.57224   0.00000  Uiso   1.00
H871   H     0.59142   0.98068   0.60093   0.00000  Uiso   1.00
H872   H     0.61526   0.80401   0.43959   0.00000  Uiso   1.00
H873   H     0.88800   0.67471   0.48137   0.00000  Uiso   1.00
H874   H     0.89109   0.82541   0.50574   0.00000  Uiso   1.00
H875   H     0.60870   0.69474   0.55123   0.00000  Uiso   1.00
H876   H     0.54791   0.77631   0.35824   0.00000  Uiso   1.00
N877   N     0.75000   0.62623   0.50000   0.00000  Uiso   1.00
N878   N     0.75000   0.87376   0.50000   0.00000  Uiso   1.00
O879   O     0.68453   0.78974   0.50000   0.00000  Uiso   1.00
O880   O     0.97352   0.66437   0.47265   0.00000  Uiso   1.00
O881   O     0.97695   0.83470   0.49821   0.00000  Uiso   1.00
O882   O     0.52239   0.68686   0.55202   0.00000  Uiso   1.00
O883   O     0.69457   0.52794   0.43303   0.00000  Uiso   1.00
O884   O     0.82942   0.97144   0.48745   0.00000  Uiso   1.00
O885   O     0.80348   0.52884   0.56643   0.00000  Uiso   1.00
O886   O     0.66908   0.97133   0.51194   0.00000  Uiso   1.00
O887   O     0.81547   0.71026   0.50000   0.00000  Uiso   1.00
O888   O     0.81547   0.78974   0.50000   0.00000  Uiso   1.00
O889   O     0.68453   0.71026   0.50000   0.00000  Uiso   1.00
O890   O     0.75000   0.78973   0.42845   0.00000  Uiso   1.00
O891   O     0.75000   0.71027   0.57155   0.00000  Uiso   1.00
O892   O     0.75000   0.78973   0.57155   0.00000  Uiso   1.00
O893   O     0.75000   0.71027   0.42845   0.00000  Uiso   1.00
O894   O     0.53005   0.80974   0.42394   0.00000  Uiso   1.00
Zn895  Zn    0.75000   0.80307   0.50000   0.00000  Uiso   1.00
Zn896  Zn    0.75000   0.69693   0.50000   0.00000  Uiso   1.00
C897   C     0.16403   0.24993   0.83303   0.00000  Uiso   1.00
C898   C     0.20916   0.44729   0.84016   0.00000  Uiso   1.00
C899   C     0.24997   0.25003   0.73948   0.00000  Uiso   1.00
C900   C     0.25000   0.24996   0.92719   0.00000  Uiso   1.00
C901   C     0.24870   0.02682   0.83287   0.00000  Uiso   1.00
C902   C     0.24889   0.47339   0.83235   0.00000  Uiso   1.00
C903   C     0.24997   0.25004   0.68842   0.00000  Uiso   1.00
C904   C     0.24998   0.24994   0.97825   0.00000  Uiso   1.00
C905   C     0.04994   0.27803   0.78955   0.00000  Uiso   1.00
C906   C     0.45210   0.20716   0.81216   0.00000  Uiso   1.00
C907   C     0.45414   0.29221   0.82899   0.00000  Uiso   1.00
C908   C     0.33624   0.25005   0.83258   0.00000  Uiso   1.00
C909   C     0.04602   0.21829   0.85590   0.00000  Uiso   1.00
C910   C     0.09577   0.27983   0.79555   0.00000  Uiso   1.00
C911   C     0.40622   0.20767   0.81806   0.00000  Uiso   1.00
C912   C     0.40803   0.29229   0.83241   0.00000  Uiso   1.00
C913   C     0.09209   0.21829   0.85866   0.00000  Uiso   1.00
C914   C     0.11650   0.24968   0.82946   0.00000  Uiso   1.00
C915   C     0.38423   0.25000   0.82820   0.00000  Uiso   1.00
C916   C     0.02473   0.24788   0.82070   0.00000  Uiso   1.00
C917   C     0.47630   0.24934   0.81919   0.00000  Uiso   1.00
C918   C     0.01768   0.28630   0.71311   0.00000  Uiso   1.00
C919   C     0.22277   0.10289   0.80105   0.00000  Uiso   1.00
C920   C     0.48931   0.31943   0.68181   0.00000  Uiso   1.00
C921   C     0.47214   0.15144   0.75537   0.00000  Uiso   1.00
C922   C     0.48637   0.10017   0.75058   0.00000  Uiso   1.00
C923   C     0.48686   0.34505   0.88166   0.00000  Uiso   1.00
C924   C     0.00927   0.39325   0.88431   0.00000  Uiso   1.00
C925   C     0.00736   0.21029   0.92840   0.00000  Uiso   1.00
C926   C     0.47544   0.17805   0.95639   0.00000  Uiso   1.00
C927   C     0.19398   0.04829   0.71832   0.00000  Uiso   1.00
C928   C     0.17725   0.01179   0.68133   0.00000  Uiso   1.00
C929   C     0.33633   0.48236   0.77013   0.00000  Uiso   1.00
C930   C     0.28875   0.39836   0.82699   0.00000  Uiso   1.00
C931   C     0.37903   0.01118   0.76518   0.00000  Uiso   1.00
C932   C     0.27861   0.01673   0.94251   0.00000  Uiso   1.00
C933   C     0.30468   0.48085   0.97291   0.00000  Uiso   1.00
C934   C     0.14567   0.45596   0.88800   0.00000  Uiso   1.00
C935   C     0.10929   0.49153   0.89988   0.00000  Uiso   1.00
C936   C     0.27652   0.10189   0.86550   0.00000  Uiso   1.00
C937   C     0.21072   0.39725   0.83918   0.00000  Uiso   1.00
C938   C     0.22218   0.05273   0.79887   0.00000  Uiso   1.00
C939   C     0.28910   0.44807   0.82556   0.00000  Uiso   1.00
C940   C     0.27587   0.05222   0.86676   0.00000  Uiso   1.00
H941   H     0.20141   0.12363   0.77713   0.00000  Uiso   1.00
H942   H     0.49728   0.25428   0.72070   0.00000  Uiso   1.00
H943   H     0.00950   0.35033   0.66976   0.00000  Uiso   1.00
H944   H     0.47662   0.30058   0.98190   0.00000  Uiso   1.00
H945   H     0.46030   0.33189   0.70382   0.00000  Uiso   1.00
H946   H     0.49605   0.17351   0.73390   0.00000  Uiso   1.00
H947   H     0.43799   0.15483   0.73915   0.00000  Uiso   1.00
H948   H     0.46342   0.07711   0.77220   0.00000  Uiso   1.00
H949   H     0.48537   0.08934   0.71089   0.00000  Uiso   1.00
H950   H     0.02091   0.09572   0.76494   0.00000  Uiso   1.00
H951   H     0.01055   0.31870   0.89719   0.00000  Uiso   1.00
H952   H     0.31978   0.37949   0.82249   0.00000  Uiso   1.00
H953   H     0.45594   0.34606   0.90466   0.00000  Uiso   1.00
H954   H     0.48652   0.42074   0.86934   0.00000  Uiso   1.00
H955   H     0.04056   0.39315   0.86216   0.00000  Uiso   1.00
H956   H     0.01755   0.40185   0.92357   0.00000  Uiso   1.00
H957   H     0.48864   0.24287   0.91900   0.00000  Uiso   1.00
H958   H     0.03604   0.21923   0.95307   0.00000  Uiso   1.00
H959   H     0.44764   0.16704   0.93152   0.00000  Uiso   1.00
H960   H     0.46119   0.19717   0.98865   0.00000  Uiso   1.00
H961   H     0.49338   0.14621   0.96979   0.00000  Uiso   1.00
H962   H     0.22791   0.05995   0.70642   0.00000  Uiso   1.00
H963   H     0.29794   0.12112   0.89087   0.00000  Uiso   1.00
H964   H     0.17054   0.07862   0.71724   0.00000  Uiso   1.00
H965   H     0.14283   0.00046   0.69115   0.00000  Uiso   1.00
H966   H     0.17694   0.02742   0.97676   0.00000  Uiso   1.00
H967   H     0.19950   0.48050   0.68159   0.00000  Uiso   1.00
H968   H     0.33995   0.44946   0.74788   0.00000  Uiso   1.00
H969   H     0.30837   0.00383   0.75479   0.00000  Uiso   1.00
H970   H     0.38506   0.02005   0.72547   0.00000  Uiso   1.00
H971   H     0.37608   0.04447   0.78669   0.00000  Uiso   1.00
H972   H     0.40786   0.49066   0.77956   0.00000  Uiso   1.00
H973   H     0.24579   0.00039   0.93302   0.00000  Uiso   1.00
H974   H     0.18032   0.37704   0.84274   0.00000  Uiso   1.00
H975   H     0.27301   0.04870   0.96558   0.00000  Uiso   1.00
H976   H     0.33706   0.49625   0.98493   0.00000  Uiso   1.00
H977   H     0.28510   0.47048   0.67293   0.00000  Uiso   1.00
H978   H     0.31105   0.44887   0.95019   0.00000  Uiso   1.00
H979   H     0.12911   0.42144   0.88105   0.00000  Uiso   1.00
H980   H     0.16816   0.45302   0.92098   0.00000  Uiso   1.00
H981   H     0.08497   0.49331   0.86866   0.00000  Uiso   1.00
H982   H     0.12417   0.02706   0.90557   0.00000  Uiso   1.00
H983   H     0.09142   0.48068   0.93426   0.00000  Uiso   1.00
H984   H     0.11526   0.30401   0.77293   0.00000  Uiso   1.00
H985   H     0.38800   0.17471   0.81470   0.00000  Uiso   1.00
H986   H     0.39109   0.32541   0.83907   0.00000  Uiso   1.00
H987   H     0.10870   0.19474   0.88456   0.00000  Uiso   1.00
H988   H     0.04791   0.27631   0.69158   0.00000  Uiso   1.00
N989   N     0.25000   0.12623   0.83333   0.00000  Uiso   1.00
N990   N     0.25000   0.37376   0.83333   0.00000  Uiso   1.00
O991   O     0.18453   0.28974   0.83334   0.00000  Uiso   1.00
O992   O     0.47352   0.16437   0.80598   0.00000  Uiso   1.00
O993   O     0.47695   0.33470   0.83154   0.00000  Uiso   1.00
O994   O     0.02239   0.18686   0.88535   0.00000  Uiso   1.00
O995   O     0.19457   0.02794   0.76636   0.00000  Uiso   1.00
O996   O     0.32942   0.47144   0.82078   0.00000  Uiso   1.00
O997   O     0.30348   0.02884   0.89977   0.00000  Uiso   1.00
O998   O     0.16908   0.47133   0.84528   0.00000  Uiso   1.00
O999   O     0.31547   0.21026   0.83333   0.00000  Uiso   1.00
O1000  O     0.31547   0.28974   0.83333   0.00000  Uiso   1.00
O1001  O     0.18453   0.21026   0.83334   0.00000  Uiso   1.00
O1002  O     0.25000   0.28973   0.76178   0.00000  Uiso   1.00
O1003  O     0.25000   0.21027   0.90489   0.00000  Uiso   1.00
O1004  O     0.25000   0.28973   0.90489   0.00000  Uiso   1.00
O1005  O     0.25000   0.21027   0.76178   0.00000  Uiso   1.00
O1006  O     0.03005   0.30974   0.75727   0.00000  Uiso   1.00
Zn1007 Zn    0.25000   0.30307   0.83333   0.00000  Uiso   1.00
Zn1008 Zn    0.25000   0.19693   0.83333   0.00000  Uiso   1.00
C1009  C     0.66403   0.24993   0.83303   0.00000  Uiso   1.00
C1010  C     0.70916   0.44729   0.84016   0.00000  Uiso   1.00
C1011  C     0.74997   0.25003   0.73948   0.00000  Uiso   1.00
C1012  C     0.75000   0.24996   0.92719   0.00000  Uiso   1.00
C1013  C     0.74870   0.02682   0.83287   0.00000  Uiso   1.00
C1014  C     0.74889   0.47339   0.83235   0.00000  Uiso   1.00
C1015  C     0.74997   0.25004   0.68842   0.00000  Uiso   1.00
C1016  C     0.74998   0.24994   0.97825   0.00000  Uiso   1.00
C1017  C     0.54994   0.27803   0.78955   0.00000  Uiso   1.00
C1018  C     0.95210   0.20716   0.81216   0.00000  Uiso   1.00
C1019  C     0.95414   0.29221   0.82899   0.00000  Uiso   1.00
C1020  C     0.83624   0.25005   0.83258   0.00000  Uiso   1.00
C1021  C     0.54602   0.21829   0.85590   0.00000  Uiso   1.00
C1022  C     0.59577   0.27983   0.79555   0.00000  Uiso   1.00
C1023  C     0.90622   0.20767   0.81806   0.00000  Uiso   1.00
C1024  C     0.90803   0.29229   0.83241   0.00000  Uiso   1.00
C1025  C     0.59209   0.21829   0.85866   0.00000  Uiso   1.00
C1026  C     0.61650   0.24968   0.82946   0.00000  Uiso   1.00
C1027  C     0.88423   0.25000   0.82820   0.00000  Uiso   1.00
C1028  C     0.52473   0.24788   0.82070   0.00000  Uiso   1.00
C1029  C     0.97630   0.24934   0.81919   0.00000  Uiso   1.00
C1030  C     0.51768   0.28630   0.71311   0.00000  Uiso   1.00
C1031  C     0.72277   0.10289   0.80105   0.00000  Uiso   1.00
C1032  C     0.98931   0.31943   0.68181   0.00000  Uiso   1.00
C1033  C     0.97214   0.15144   0.75537   0.00000  Uiso   1.00
C1034  C     0.98637   0.10017   0.75058   0.00000  Uiso   1.00
C1035  C     0.98686   0.34505   0.88166   0.00000  Uiso   1.00
C1036  C     0.50927   0.39325   0.88431   0.00000  Uiso   1.00
C1037  C     0.50736   0.21029   0.92840   0.00000  Uiso   1.00
C1038  C     0.97544   0.17805   0.95639   0.00000  Uiso   1.00
C1039  C     0.69398   0.04829   0.71832   0.00000  Uiso   1.00
C1040  C     0.67725   0.01179   0.68133   0.00000  Uiso   1.00
C1041  C     0.83633   0.48236   0.77013   0.00000  Uiso   1.00
C1042  C     0.78875   0.39836   0.82699   0.00000  Uiso   1.00
C1043  C     0.87903   0.01118   0.76518   0.00000  Uiso   1.00
C1044  C     0.77861   0.01673   0.94251   0.00000  Uiso   1.00
C1045  C     0.80468   0.48085   0.97291   0.00000  Uiso   1.00
C1046  C     0.64567   0.45596   0.88800   0.00000  Uiso   1.00
C1047  C     0.60929   0.49153   0.89988   0.00000  Uiso   1.00
C1048  C     0.77652   0.10189   0.86550   0.00000  Uiso   1.00
C1049  C     0.71072   0.39725   0.83918   0.00000  Uiso   1.00
C1050  C     0.72218   0.05273   0.79887   0.00000  Uiso   1.00
C1051  C     0.78910   0.44807   0.82556   0.00000  Uiso   1.00
C1052  C     0.77587   0.05222   0.86676   0.00000  Uiso   1.00
H1053  H     0.70141   0.12363   0.77713   0.00000  Uiso   1.00
H1054  H     0.99728   0.25428   0.72070   0.00000  Uiso   1.00
H1055  H     0.50950   0.35033   0.66976   0.00000  Uiso   1.00
H1056  H     0.97662   0.30058   0.98190   0.00000  Uiso   1.00
H1057  H     0.96030   0.33189   0.70382   0.00000  Uiso   1.00
H1058  H     0.99605   0.17351   0.73390   0.00000  Uiso   1.00
H1059  H     0.93799   0.15483   0.73915   0.00000  Uiso   1.00
H1060  H     0.96342   0.07711   0.77220   0.00000  Uiso   1.00
H1061  H     0.98537   0.08934   0.71089   0.00000  Uiso   1.00
H1062  H     0.52091   0.09572   0.76494   0.00000  Uiso   1.00
H1063  H     0.51055   0.31870   0.89719   0.00000  Uiso   1.00
H1064  H     0.81978   0.37949   0.82249   0.00000  Uiso   1.00
H1065  H     0.95594   0.34606   0.90466   0.00000  Uiso   1.00
H1066  H     0.98652   0.42074   0.86934   0.00000  Uiso   1.00
H1067  H     0.54056   0.39315   0.86216   0.00000  Uiso   1.00
H1068  H     0.51755   0.40185   0.92357   0.00000  Uiso   1.00
H1069  H     0.98864   0.24287   0.91900   0.00000  Uiso   1.00
H1070  H     0.53604   0.21923   0.95307   0.00000  Uiso   1.00
H1071  H     0.94764   0.16704   0.93152   0.00000  Uiso   1.00
H1072  H     0.96119   0.19717   0.98865   0.00000  Uiso   1.00
H1073  H     0.99338   0.14621   0.96979   0.00000  Uiso   1.00
H1074  H     0.72791   0.05995   0.70642   0.00000  Uiso   1.00
H1075  H     0.79794   0.12112   0.89087   0.00000  Uiso   1.00
H1076  H     0.67054   0.07862   0.71724   0.00000  Uiso   1.00
H1077  H     0.64283   0.00046   0.69115   0.00000  Uiso   1.00
H1078  H     0.67694   0.02742   0.97676   0.00000  Uiso   1.00
H1079  H     0.69950   0.48050   0.68159   0.00000  Uiso   1.00
H1080  H     0.83995   0.44946   0.74788   0.00000  Uiso   1.00
H1081  H     0.80837   0.00383   0.75479   0.00000  Uiso   1.00
H1082  H     0.88506   0.02005   0.72547   0.00000  Uiso   1.00
H1083  H     0.87608   0.04447   0.78669   0.00000  Uiso   1.00
H1084  H     0.90786   0.49066   0.77956   0.00000  Uiso   1.00
H1085  H     0.74579   0.00039   0.93302   0.00000  Uiso   1.00
H1086  H     0.68032   0.37704   0.84274   0.00000  Uiso   1.00
H1087  H     0.77301   0.04870   0.96558   0.00000  Uiso   1.00
H1088  H     0.83706   0.49625   0.98493   0.00000  Uiso   1.00
H1089  H     0.78510   0.47048   0.67293   0.00000  Uiso   1.00
H1090  H     0.81105   0.44887   0.95019   0.00000  Uiso   1.00
H1091  H     0.62911   0.42144   0.88105   0.00000  Uiso   1.00
H1092  H     0.66816   0.45302   0.92098   0.00000  Uiso   1.00
H1093  H     0.58497   0.49331   0.86866   0.00000  Uiso   1.00
H1094  H     0.62417   0.02706   0.90557   0.00000  Uiso   1.00
H1095  H     0.59142   0.48068   0.93426   0.00000  Uiso   1.00
H1096  H     0.61526   0.30401   0.77293   0.00000  Uiso   1.00
H1097  H     0.88800   0.17471   0.81470   0.00000  Uiso   1.00
H1098  H     0.89109   0.32541   0.83907   0.00000  Uiso   1.00
H1099  H     0.60870   0.19474   0.88456   0.00000  Uiso   1.00
H1100  H     0.54791   0.27631   0.69158   0.00000  Uiso   1.00
N1101  N     0.75000   0.12623   0.83333   0.00000  Uiso   1.00
N1102  N     0.75000   0.37376   0.83333   0.00000  Uiso   1.00
O1103  O     0.68453   0.28974   0.83334   0.00000  Uiso   1.00
O1104  O     0.97352   0.16437   0.80598   0.00000  Uiso   1.00
O1105  O     0.97695   0.33470   0.83154   0.00000  Uiso   1.00
O1106  O     0.52239   0.18686   0.88535   0.00000  Uiso   1.00
O1107  O     0.69457   0.02794   0.76636   0.00000  Uiso   1.00
O1108  O     0.82942   0.47144   0.82078   0.00000  Uiso   1.00
O1109  O     0.80348   0.02884   0.89977   0.00000  Uiso   1.00
O1110  O     0.66908   0.47133   0.84528   0.00000  Uiso   1.00
O1111  O     0.81547   0.21026   0.83333   0.00000  Uiso   1.00
O1112  O     0.81547   0.28974   0.83333   0.00000  Uiso   1.00
O1113  O     0.68453   0.21026   0.83334   0.00000  Uiso   1.00
O1114  O     0.75000   0.28973   0.76178   0.00000  Uiso   1.00
O1115  O     0.75000   0.21027   0.90489   0.00000  Uiso   1.00
O1116  O     0.75000   0.28973   0.90489   0.00000  Uiso   1.00
O1117  O     0.75000   0.21027   0.76178   0.00000  Uiso   1.00
O1118  O     0.53005   0.30974   0.75727   0.00000  Uiso   1.00
Zn1119 Zn    0.75000   0.30307   0.83333   0.00000  Uiso   1.00
Zn1120 Zn    0.75000   0.19693   0.83333   0.00000  Uiso   1.00
C1121  C     0.16403   0.74993   0.83303   0.00000  Uiso   1.00
C1122  C     0.20916   0.94729   0.84016   0.00000  Uiso   1.00
C1123  C     0.24997   0.75003   0.73948   0.00000  Uiso   1.00
C1124  C     0.25000   0.74996   0.92719   0.00000  Uiso   1.00
C1125  C     0.24870   0.52682   0.83287   0.00000  Uiso   1.00
C1126  C     0.24889   0.97339   0.83235   0.00000  Uiso   1.00
C1127  C     0.24997   0.75004   0.68842   0.00000  Uiso   1.00
C1128  C     0.24998   0.74994   0.97825   0.00000  Uiso   1.00
C1129  C     0.04994   0.77803   0.78955   0.00000  Uiso   1.00
C1130  C     0.45210   0.70716   0.81216   0.00000  Uiso   1.00
C1131  C     0.45414   0.79221   0.82899   0.00000  Uiso   1.00
C1132  C     0.33624   0.75005   0.83258   0.00000  Uiso   1.00
C1133  C     0.04602   0.71829   0.85590   0.00000  Uiso   1.00
C1134  C     0.09577   0.77983   0.79555   0.00000  Uiso   1.00
C1135  C     0.40622   0.70767   0.81806   0.00000  Uiso   1.00
C1136  C     0.40803   0.79229   0.83241   0.00000  Uiso   1.00
C1137  C     0.09209   0.71829   0.85866   0.00000  Uiso   1.00
C1138  C     0.11650   0.74968   0.82946   0.00000  Uiso   1.00
C1139  C     0.38423   0.75000   0.82820   0.00000  Uiso   1.00
C1140  C     0.02473   0.74788   0.82070   0.00000  Uiso   1.00
C1141  C     0.47630   0.74934   0.81919   0.00000  Uiso   1.00
C1142  C     0.01768   0.78630   0.71311   0.00000  Uiso   1.00
C1143  C     0.22277   0.60289   0.80105   0.00000  Uiso   1.00
C1144  C     0.48931   0.81943   0.68181   0.00000  Uiso   1.00
C1145  C     0.47214   0.65144   0.75537   0.00000  Uiso   1.00
C1146  C     0.48637   0.60017   0.75058   0.00000  Uiso   1.00
C1147  C     0.48686   0.84505   0.88166   0.00000  Uiso   1.00
C1148  C     0.00927   0.89325   0.88431   0.00000  Uiso   1.00
C1149  C     0.00736   0.71029   0.92840   0.00000  Uiso   1.00
C1150  C     0.47544   0.67805   0.95639   0.00000  Uiso   1.00
C1151  C     0.19398   0.54829   0.71832   0.00000  Uiso   1.00
C1152  C     0.17725   0.51179   0.68133   0.00000  Uiso   1.00
C1153  C     0.33633   0.98236   0.77013   0.00000  Uiso   1.00
C1154  C     0.28875   0.89836   0.82699   0.00000  Uiso   1.00
C1155  C     0.37903   0.51118   0.76518   0.00000  Uiso   1.00
C1156  C     0.27861   0.51673   0.94251   0.00000  Uiso   1.00
C1157  C     0.30468   0.98085   0.97291   0.00000  Uiso   1.00
C1158  C     0.14567   0.95596   0.88800   0.00000  Uiso   1.00
C1159  C     0.10929   0.99153   0.89988   0.00000  Uiso   1.00
C1160  C     0.27652   0.60189   0.86550   0.00000  Uiso   1.00
C1161  C     0.21072   0.89725   0.83918   0.00000  Uiso   1.00
C1162  C     0.22218   0.55273   0.79887   0.00000  Uiso   1.00
C1163  C     0.28910   0.94807   0.82556   0.00000  Uiso   1.00
C1164  C     0.27587   0.55222   0.86676   0.00000  Uiso   1.00
H1165  H     0.20141   0.62363   0.77713   0.00000  Uiso   1.00
H1166  H     0.49728   0.75428   0.72070   0.00000  Uiso   1.00
H1167  H     0.00950   0.85033   0.66976   0.00000  Uiso   1.00
H1168  H     0.47662   0.80058   0.98190   0.00000  Uiso   1.00
H1169  H     0.46030   0.83189   0.70382   0.00000  Uiso   1.00
H1170  H     0.49605   0.67351   0.73390   0.00000  Uiso   1.00
H1171  H     0.43799   0.65483   0.73915   0.00000  Uiso   1.00
H1172  H     0.46342   0.57711   0.77220   0.00000  Uiso   1.00
H1173  H     0.48537   0.58934   0.71089   0.00000  Uiso   1.00
H1174  H     0.02091   0.59572   0.76494   0.00000  Uiso   1.00
H1175  H     0.01055   0.81870   0.89719   0.00000  Uiso   1.00
H1176  H     0.31978   0.87949   0.82249   0.00000  Uiso   1.00
H1177  H     0.45594   0.84606   0.90466   0.00000  Uiso   1.00
H1178  H     0.48652   0.92074   0.86934   0.00000  Uiso   1.00
H1179  H     0.04056   0.89315   0.86216   0.00000  Uiso   1.00
H1180  H     0.01755   0.90185   0.92357   0.00000  Uiso   1.00
H1181  H     0.48864   0.74287   0.91900   0.00000  Uiso   1.00
H1182  H     0.03604   0.71923   0.95307   0.00000  Uiso   1.00
H1183  H     0.44764   0.66704   0.93152   0.00000  Uiso   1.00
H1184  H     0.46119   0.69717   0.98865   0.00000  Uiso   1.00
H1185  H     0.49338   0.64621   0.96979   0.00000  Uiso   1.00
H1186  H     0.22791   0.55995   0.70642   0.00000  Uiso   1.00
H1187  H     0.29794   0.62112   0.89087   0.00000  Uiso   1.00
H1188  H     0.17054   0.57862   0.71724   0.00000  Uiso   1.00
H1189  H     0.14283   0.50046   0.69115   0.00000  Uiso   1.00
H1190  H     0.17694   0.52742   0.97676   0.00000  Uiso   1.00
H1191  H     0.19950   0.98050   0.68159   0.00000  Uiso   1.00
H1192  H     0.33995   0.94946   0.74788   0.00000  Uiso   1.00
H1193  H     0.30837   0.50383   0.75479   0.00000  Uiso   1.00
H1194  H     0.38506   0.52005   0.72547   0.00000  Uiso   1.00
H1195  H     0.37608   0.54447   0.78669   0.00000  Uiso   1.00
H1196  H     0.40786   0.99066   0.77956   0.00000  Uiso   1.00
H1197  H     0.24579   0.50039   0.93302   0.00000  Uiso   1.00
H1198  H     0.18032   0.87704   0.84274   0.00000  Uiso   1.00
H1199  H     0.27301   0.54870   0.96558   0.00000  Uiso   1.00
H1200  H     0.33706   0.99625   0.98493   0.00000  Uiso   1.00
H1201  H     0.28510   0.97048   0.67293   0.00000  Uiso   1.00
H1202  H     0.31105   0.94887   0.95019   0.00000  Uiso   1.00
H1203  H     0.12911   0.92144   0.88105   0.00000  Uiso   1.00
H1204  H     0.16816   0.95302   0.92098   0.00000  Uiso   1.00
H1205  H     0.08497   0.99331   0.86866   0.00000  Uiso   1.00
H1206  H     0.12417   0.52706   0.90557   0.00000  Uiso   1.00
H1207  H     0.09142   0.98068   0.93426   0.00000  Uiso   1.00
H1208  H     0.11526   0.80401   0.77293   0.00000  Uiso   1.00
H1209  H     0.38800   0.67471   0.81470   0.00000  Uiso   1.00
H1210  H     0.39109   0.82541   0.83907   0.00000  Uiso   1.00
H1211  H     0.10870   0.69474   0.88456   0.00000  Uiso   1.00
H1212  H     0.04791   0.77631   0.69158   0.00000  Uiso   1.00
N1213  N     0.25000   0.62623   0.83333   0.00000  Uiso   1.00
N1214  N     0.25000   0.87376   0.83333   0.00000  Uiso   1.00
O1215  O     0.18453   0.78974   0.83334   0.00000  Uiso   1.00
O1216  O     0.47352   0.66437   0.80598   0.00000  Uiso   1.00
O1217  O     0.47695   0.83470   0.83154   0.00000  Uiso   1.00
O1218  O     0.02239   0.68686   0.88535   0.00000  Uiso   1.00
O1219  O     0.19457   0.52794   0.76636   0.00000  Uiso   1.00
O1220  O     0.32942   0.97144   0.82078   0.00000  Uiso   1.00
O1221  O     0.30348   0.52884   0.89977   0.00000  Uiso   1.00
O1222  O     0.16908   0.97133   0.84528   0.00000  Uiso   1.00
O1223  O     0.31547   0.71026   0.83333   0.00000  Uiso   1.00
O1224  O     0.31547   0.78974   0.83333   0.00000  Uiso   1.00
O1225  O     0.18453   0.71026   0.83334   0.00000  Uiso   1.00
O1226  O     0.25000   0.78973   0.76178   0.00000  Uiso   1.00
O1227  O     0.25000   0.71027   0.90489   0.00000  Uiso   1.00
O1228  O     0.25000   0.78973   0.90489   0.00000  Uiso   1.00
O1229  O     0.25000   0.71027   0.76178   0.00000  Uiso   1.00
O1230  O     0.03005   0.80974   0.75727   0.00000  Uiso   1.00
Zn1231 Zn    0.25000   0.80307   0.83333   0.00000  Uiso   1.00
Zn1232 Zn    0.25000   0.69693   0.83333   0.00000  Uiso   1.00
C1233  C     0.66403   0.74993   0.83303   0.00000  Uiso   1.00
C1234  C     0.70916   0.94729   0.84016   0.00000  Uiso   1.00
C1235  C     0.74997   0.75003   0.73948   0.00000  Uiso   1.00
C1236  C     0.75000   0.74996   0.92719   0.00000  Uiso   1.00
C1237  C     0.74870   0.52682   0.83287   0.00000  Uiso   1.00
C1238  C     0.74889   0.97339   0.83235   0.00000  Uiso   1.00
C1239  C     0.74997   0.75004   0.68842   0.00000  Uiso   1.00
C1240  C     0.74998   0.74994   0.97825   0.00000  Uiso   1.00
C1241  C     0.54994   0.77803   0.78955   0.00000  Uiso   1.00
C1242  C     0.95210   0.70716   0.81216   0.00000  Uiso   1.00
C1243  C     0.95414   0.79221   0.82899   0.00000  Uiso   1.00
C1244  C     0.83624   0.75005   0.83258   0.00000  Uiso   1.00
C1245  C     0.54602   0.71829   0.85590   0.00000  Uiso   1.00
C1246  C     0.59577   0.77983   0.79555   0.00000  Uiso   1.00
C1247  C     0.90622   0.70767   0.81806   0.00000  Uiso   1.00
C1248  C     0.90803   0.79229   0.83241   0.00000  Uiso   1.00
C1249  C     0.59209   0.71829   0.85866   0.00000  Uiso   1.00
C1250  C     0.61650   0.74968   0.82946   0.00000  Uiso   1.00
C1251  C     0.88423   0.75000   0.82820   0.00000  Uiso   1.00
C1252  C     0.52473   0.74788   0.82070   0.00000  Uiso   1.00
C1253  C     0.97630   0.74934   0.81919   0.00000  Uiso   1.00
C1254  C     0.51768   0.78630   0.71311   0.00000  Uiso   1.00
C1255  C     0.72277   0.60289   0.80105   0.00000  Uiso   1.00
C1256  C     0.98931   0.81943   0.68181   0.00000  Uiso   1.00
C1257  C     0.97214   0.65144   0.75537   0.00000  Uiso   1.00
C1258  C     0.98637   0.60017   0.75058   0.00000  Uiso   1.00
C1259  C     0.98686   0.84505   0.88166   0.00000  Uiso   1.00
C1260  C     0.50927   0.89325   0.88431   0.00000  Uiso   1.00
C1261  C     0.50736   0.71029   0.92840   0.00000  Uiso   1.00
C1262  C     0.97544   0.67805   0.95639   0.00000  Uiso   1.00
C1263  C     0.69398   0.54829   0.71832   0.00000  Uiso   1.00
C1264  C     0.67725   0.51179   0.68133   0.00000  Uiso   1.00
C1265  C     0.83633   0.98236   0.77013   0.00000  Uiso   1.00
C1266  C     0.78875   0.89836   0.82699   0.00000  Uiso   1.00
C1267  C     0.87903   0.51118   0.76518   0.00000  Uiso   1.00
C1268  C     0.77861   0.51673   0.94251   0.00000  Uiso   1.00
C1269  C     0.80468   0.98085   0.97291   0.00000  Uiso   1.00
C1270  C     0.64567   0.95596   0.88800   0.00000  Uiso   1.00
C1271  C     0.60929   0.99153   0.89988   0.00000  Uiso   1.00
C1272  C     0.77652   0.60189   0.86550   0.00000  Uiso   1.00
C1273  C     0.71072   0.89725   0.83918   0.00000  Uiso   1.00
C1274  C     0.72218   0.55273   0.79887   0.00000  Uiso   1.00
C1275  C     0.78910   0.94807   0.82556   0.00000  Uiso   1.00
C1276  C     0.77587   0.55222   0.86676   0.00000  Uiso   1.00
H1277  H     0.70141   0.62363   0.77713   0.00000  Uiso   1.00
H1278  H     0.99728   0.75428   0.72070   0.00000  Uiso   1.00
H1279  H     0.50950   0.85033   0.66976   0.00000  Uiso   1.00
H1280  H     0.97662   0.80058   0.98190   0.00000  Uiso   1.00
H1281  H     0.96030   0.83189   0.70382   0.00000  Uiso   1.00
H1282  H     0.99605   0.67351   0.73390   0.00000  Uiso   1.00
H1283  H     0.93799   0.65483   0.73915   0.00000  Uiso   1.00
H1284  H     0.96342   0.57711   0.77220   0.00000  Uiso   1.00
H1285  H     0.98537   0.58934   0.71089   0.00000  Uiso   1.00
H1286  H     0.52091   0.59572   0.76494   0.00000  Uiso   1.00
H1287  H     0.51055   0.81870   0.89719   0.00000  Uiso   1.00
H1288  H     0.81978   0.87949   0.82249   0.00000  Uiso   1.00
H1289  H     0.95594   0.84606   0.90466   0.00000  Uiso   1.00
H1290  H     0.98652   0.92074   0.86934   0.00000  Uiso   1.00
H1291  H     0.54056   0.89315   0.86216   0.00000  Uiso   1.00
H1292  H     0.51755   0.90185   0.92357   0.00000  Uiso   1.00
H1293  H     0.98864   0.74287   0.91900   0.00000  Uiso   1.00
H1294  H     0.53604   0.71923   0.95307   0.00000  Uiso   1.00
H1295  H     0.94764   0.66704   0.93152   0.00000  Uiso   1.00
H1296  H     0.96119   0.69717   0.98865   0.00000  Uiso   1.00
H1297  H     0.99338   0.64621   0.96979   0.00000  Uiso   1.00
H1298  H     0.72791   0.55995   0.70642   0.00000  Uiso   1.00
H1299  H     0.79794   0.62112   0.89087   0.00000  Uiso   1.00
H1300  H     0.67054   0.57862   0.71724   0.00000  Uiso   1.00
H1301  H     0.64283   0.50046   0.69115   0.00000  Uiso   1.00
H1302  H     0.67694   0.52742   0.97676   0.00000  Uiso   1.00
H1303  H     0.69950   0.98050   0.68159   0.00000  Uiso   1.00
H1304  H     0.83995   0.94946   0.74788   0.00000  Uiso   1.00
H1305  H     0.80837   0.50383   0.75479   0.00000  Uiso   1.00
H1306  H     0.88506   0.52005   0.72547   0.00000  Uiso   1.00
H1307  H     0.87608   0.54447   0.78669   0.00000  Uiso   1.00
H1308  H     0.90786   0.99066   0.77956   0.00000  Uiso   1.00
H1309  H     0.74579   0.50039   0.93302   0.00000  Uiso   1.00
H1310  H     0.68032   0.87704   0.84274   0.00000  Uiso   1.00
H1311  H     0.77301   0.54870   0.96558   0.00000  Uiso   1.00
H1312  H     0.83706   0.99625   0.98493   0.00000  Uiso   1.00
H1313  H     0.78510   0.97048   0.67293   0.00000  Uiso   1.00
H1314  H     0.81105   0.94887   0.95019   0.00000  Uiso   1.00
H1315  H     0.62911   0.92144   0.88105   0.00000  Uiso   1.00
H1316  H     0.66816   0.95302   0.92098   0.00000  Uiso   1.00
H1317  H     0.58497   0.99331   0.86866   0.00000  Uiso   1.00
H1318  H     0.62417   0.52706   0.90557   0.00000  Uiso   1.00
H1319  H     0.59142   0.98068   0.93426   0.00000  Uiso   1.00
H1320  H     0.61526   0.80401   0.77293   0.00000  Uiso   1.00
H1321  H     0.88800   0.67471   0.81470   0.00000  Uiso   1.00
H1322  H     0.89109   0.82541   0.83907   0.00000  Uiso   1.00
H1323  H     0.60870   0.69474   0.88456   0.00000  Uiso   1.00
H1324  H     0.54791   0.77631   0.69158   0.00000  Uiso   1.00
N1325  N     0.75000   0.62623   0.83333   0.00000  Uiso   1.00
N1326  N     0.75000   0.87376   0.83333   0.00000  Uiso   1.00
O1327  O     0.68453   0.78974   0.83334   0.00000  Uiso   1.00
O1328  O     0.97352   0.66437   0.80598   0.00000  Uiso   1.00
O1329  O     0.97695   0.83470   0.83154   0.00000  Uiso   1.00
O1330  O     0.52239   0.68686   0.88535   0.00000  Uiso   1.00
O1331  O     0.69457   0.52794   0.76636   0.00000  Uiso   1.00
O1332  O     0.82942   0.97144   0.82078   0.00000  Uiso   1.00
O1333  O     0.80348   0.52884   0.89977   0.00000  Uiso   1.00
O1334  O     0.66908   0.97133   0.84528   0.00000  Uiso   1.00
O1335  O     0.81547   0.71026   0.83333   0.00000  Uiso   1.00
O1336  O     0.81547   0.78974   0.83333   0.00000  Uiso   1.00
O1337  O     0.68453   0.71026   0.83334   0.00000  Uiso   1.00
O1338  O     0.75000   0.78973   0.76178   0.00000  Uiso   1.00
O1339  O     0.75000   0.71027   0.90489   0.00000  Uiso   1.00
O1340  O     0.75000   0.78973   0.90489   0.00000  Uiso   1.00
O1341  O     0.75000   0.71027   0.76178   0.00000  Uiso   1.00
O1342  O     0.53005   0.80974   0.75727   0.00000  Uiso   1.00
Zn1343 Zn    0.75000   0.80307   0.83333   0.00000  Uiso   1.00
Zn1344 Zn    0.75000   0.69693   0.83333   0.00000  Uiso   1.00
loop_
_geom_bond_atom_site_label_1
_geom_bond_atom_site_label_2
_geom_bond_distance
_geom_bond_site_symmetry_2
_ccdc_geom_bond_type
C1     C18     1.426   .     S
C1     O95     1.282   .     A
C1     O105    1.282   .     A
C2     O102    1.389   .     S
C2     C41     1.419   .     A
C2     C6      1.414   .     A
C3     C7      1.371   .     S
C3     O106    1.275   .     A
C3     O109    1.275   .     A
C4     C8      1.371   .     S
C4     O108    1.275   .     A
C4     O107    1.275   .     A
C5     C42     1.415   .     A
C5     C44     1.416   .     A
C5     C230    1.514   1_545 S
C6     C43     1.416   .     A
C6     C229    1.514   .     S
C7     C904    1.168   1_554 S
C8     C455    1.168   .     S
C9     O110    1.383   .     S
C9     C14     1.382   .     A
C9     C20     1.412   .     A
C10    C15     1.384   .     A
C10    C21     1.408   .     A
C10    O96     1.384   .     S
C11    C21     1.411   .     A
C11    C16     1.384   .     A
C11    O97     1.384   .     S
C12    O104    1.287   .     A
C12    O103    1.286   .     A
C12    C19     1.442   .     S
C13    O98     1.383   .     S
C13    C20     1.415   .     A
C13    C17     1.382   .     A
C14    C18     1.394   .     A
C14    H88     1.084   .     S
C15    C19     1.398   .     A
C15    H89     1.084   .     S
C16    H90     1.083   .     S
C16    C19     1.397   .     A
C17    H91     1.084   .     S
C17    C18     1.391   .     A
C20    C133    1.452   1_455 S
C21    C132    1.452   .     S
C22    O110    1.409   .     S
C22    H92     1.113   .     S
C22    C136    1.519   1_455 S
C22    H158    1.111   1_455 S
C23    H45     1.080   .     S
C23    C42     1.422   .     A
C23    N93     1.361   .     A
C24    H49     1.111   .     S
C24    C134    1.519   .     S
C24    H159    1.110   .     S
C24    H944    1.108   1_554 S
C25    H50     1.110   .     S
C25    C26     1.521   .     S
C25    H51     1.115   .     S
C25    O96     1.409   .     S
C26    H52     1.111   .     S
C26    H53     1.110   .     S
C26    H166    1.111   .     S
C27    H57     1.114   .     S
C27    O97     1.409   .     S
C27    C140    1.521   .     S
C27    H167    1.112   .     S
C28    H60     1.110   .     S
C28    H59     1.111   .     S
C28    C139    1.521   1_455 S
C28    H170    1.111   1_455 S
C29    O98     1.410   .     S
C29    H62     1.113   .     S
C29    C142    1.519   1_455 S
C29    H173    1.110   1_455 S
C30    H64     1.110   .     S
C30    H63     1.111   .     S
C30    H65     1.110   .     S
C30    C141    1.519   .     S
C31    H66     1.115   .     S
C31    O99     1.412   .     S
C31    H68     1.111   .     S
C31    C32     1.519   .     S
C32    H69     1.111   .     S
C32    H966    1.109   1_554 S
C32    H295    1.110   1_545 S
C33    H72     1.114   .     S
C33    O100    1.410   .     S
C33    C259    1.521   .     S
C33    H297    1.114   .     S
C34    H56     1.081   .     S
C34    C43     1.409   .     A
C34    N94     1.362   .     A
C35    H74     1.110   .     S
C35    H75     1.111   .     S
C35    C257    1.521   1_545 S
C35    H300    1.111   1_545 S
C36    H77     1.115   .     S
C36    H79     1.112   .     S
C36    O101    1.411   .     S
C36    C261    1.519   1_545 S
C37    H80     1.110   .     S
C37    H82     1.111   .     S
C37    C260    1.519   .     S
C37    H529    1.110   .     S
C38    H83     1.111   .     S
C38    C39     1.521   .     S
C38    H84     1.115   .     S
C38    O102    1.413   .     S
C39    H87     1.111   .     S
C39    H85     1.111   .     S
C39    H310    1.110   .     S
C40    N93     1.361   .     A
C40    H67     1.082   .     S
C40    C44     1.408   .     A
C41    N94     1.363   .     A
C41    H78     1.078   .     S
C42    O99     1.392   .     S
C43    O100    1.381   .     S
C44    O101    1.381   .     S
H46    C134    1.111   .     S
H47    C136    1.110   1_455 S
H48    C472    1.108   .     S
H54    C138    1.111   1_455 S
H55    C139    1.112   1_455 S
H58    C140    1.111   .     S
H61    C141    1.110   .     S
H70    C480    1.109   .     S
H71    C256    1.110   .     S
H73    C257    1.114   1_545 S
H76    C259    1.111   .     S
H81    C933    1.110   1_554 S
H86    C263    1.110   1_545 S
N93    Zn112   2.003   .     S
N94    Zn111   2.003   .     S
O95    Zn111   1.996   .     S
O103   Zn112   1.996   .     S
O104   Zn111   1.998   .     S
O105   Zn112   1.998   .     S
O106   Zn111   1.960   .     S
O107   Zn112   1.960   .     S
O108   Zn111   1.958   .     S
O109   Zn112   1.958   .     S
C113   C130    1.426   .     S
C113   O207    1.282   .     A
C113   O217    1.282   .     A
C114   O214    1.389   .     S
C114   C153    1.419   .     A
C114   C118    1.414   .     A
C115   C119    1.371   .     S
C115   O218    1.275   .     A
C115   O221    1.275   .     A
C116   C120    1.371   .     S
C116   O220    1.275   .     A
C116   O219    1.275   .     A
C117   C154    1.415   .     A
C117   C156    1.416   .     A
C117   C342    1.514   1_545 S
C118   C155    1.416   .     A
C118   C341    1.514   .     S
C119   C1016   1.168   1_554 S
C120   C567    1.168   .     S
C121   O222    1.383   .     S
C121   C126    1.382   .     A
C121   C132    1.412   .     A
C122   C127    1.384   .     A
C122   C133    1.408   .     A
C122   O208    1.384   .     S
C123   C133    1.411   .     A
C123   C128    1.384   .     A
C123   O209    1.384   .     S
C124   O216    1.287   .     A
C124   O215    1.286   .     A
C124   C131    1.442   .     S
C125   O210    1.383   .     S
C125   C132    1.415   .     A
C125   C129    1.382   .     A
C126   C130    1.394   .     A
C126   H200    1.084   .     S
C127   C131    1.398   .     A
C127   H201    1.084   .     S
C128   H202    1.083   .     S
C128   C131    1.397   .     A
C129   H203    1.084   .     S
C129   C130    1.391   .     A
C133   C20     1.452   1_655 S
C134   O222    1.409   .     S
C134   H204    1.113   .     S
C135   H157    1.080   .     S
C135   C154    1.422   .     A
C135   N205    1.361   .     A
C136   H161    1.111   .     S
C136   C22     1.519   1_655 S
C136   H47     1.110   1_655 S
C136   H1056   1.108   1_554 S
C137   H162    1.110   .     S
C137   C138    1.521   .     S
C137   H163    1.115   .     S
C137   O208    1.409   .     S
C138   H164    1.111   .     S
C138   H165    1.110   .     S
C138   H54     1.111   1_655 S
C139   H169    1.114   .     S
C139   O209    1.409   .     S
C139   C28     1.521   1_655 S
C139   H55     1.112   1_655 S
C140   H172    1.110   .     S
C140   H171    1.111   .     S
C141   O210    1.410   .     S
C141   H174    1.113   .     S
C142   H176    1.110   .     S
C142   H175    1.111   .     S
C142   H177    1.110   .     S
C142   C29     1.519   1_655 S
C143   H178    1.115   .     S
C143   O211    1.412   .     S
C143   H180    1.111   .     S
C143   C144    1.519   .     S
C144   H181    1.111   .     S
C144   H1078   1.109   1_554 S
C144   H407    1.110   1_545 S
C145   H184    1.114   .     S
C145   O212    1.410   .     S
C145   C371    1.521   .     S
C145   H409    1.114   .     S
C146   H168    1.081   .     S
C146   C155    1.409   .     A
C146   N206    1.362   .     A
C147   H186    1.110   .     S
C147   H187    1.111   .     S
C147   C369    1.521   1_545 S
C147   H412    1.111   1_545 S
C148   H189    1.115   .     S
C148   H191    1.112   .     S
C148   O213    1.411   .     S
C148   C373    1.519   1_545 S
C149   H192    1.110   .     S
C149   H194    1.111   .     S
C149   C372    1.519   .     S
C149   H641    1.110   .     S
C150   H195    1.111   .     S
C150   C151    1.521   .     S
C150   H196    1.115   .     S
C150   O214    1.413   .     S
C151   H199    1.111   .     S
C151   H197    1.111   .     S
C151   H422    1.110   .     S
C152   N205    1.361   .     A
C152   H179    1.082   .     S
C152   C156    1.408   .     A
C153   N206    1.363   .     A
C153   H190    1.078   .     S
C154   O211    1.392   .     S
C155   O212    1.381   .     S
C156   O213    1.381   .     S
H158   C22     1.111   1_655 S
H160   C584    1.108   .     S
H170   C28     1.111   1_655 S
H173   C29     1.110   1_655 S
H182   C592    1.109   .     S
H183   C368    1.110   .     S
H185   C369    1.114   1_545 S
H188   C371    1.111   .     S
H193   C1045   1.110   1_554 S
H198   C375    1.110   1_545 S
N205   Zn224   2.003   .     S
N206   Zn223   2.003   .     S
O207   Zn223   1.996   .     S
O215   Zn224   1.996   .     S
O216   Zn223   1.998   .     S
O217   Zn224   1.998   .     S
O218   Zn223   1.960   .     S
O219   Zn224   1.960   .     S
O220   Zn223   1.958   .     S
O221   Zn224   1.958   .     S
C225   C242    1.426   .     S
C225   O319    1.282   .     A
C225   O329    1.282   .     A
C226   O326    1.389   .     S
C226   C265    1.419   .     A
C226   C230    1.414   .     A
C227   C231    1.371   .     S
C227   O330    1.275   .     A
C227   O333    1.275   .     A
C228   C232    1.371   .     S
C228   O332    1.275   .     A
C228   O331    1.275   .     A
C229   C266    1.415   .     A
C229   C268    1.416   .     A
C230   C267    1.416   .     A
C230   C5      1.514   1_565 S
C231   C1128   1.168   1_554 S
C232   C679    1.168   .     S
C233   O334    1.383   .     S
C233   C238    1.382   .     A
C233   C244    1.412   .     A
C234   C239    1.384   .     A
C234   C245    1.408   .     A
C234   O320    1.384   .     S
C235   C245    1.411   .     A
C235   C240    1.384   .     A
C235   O321    1.384   .     S
C236   O328    1.287   .     A
C236   O327    1.286   .     A
C236   C243    1.442   .     S
C237   O322    1.383   .     S
C237   C244    1.415   .     A
C237   C241    1.382   .     A
C238   C242    1.394   .     A
C238   H312    1.084   .     S
C239   C243    1.398   .     A
C239   H313    1.084   .     S
C240   H314    1.083   .     S
C240   C243    1.397   .     A
C241   H315    1.084   .     S
C241   C242    1.391   .     A
C244   C357    1.452   1_455 S
C245   C356    1.452   .     S
C246   O334    1.409   .     S
C246   H316    1.113   .     S
C246   C360    1.519   1_455 S
C246   H382    1.111   1_455 S
C247   H269    1.080   .     S
C247   C266    1.422   .     A
C247   N317    1.361   .     A
C248   H273    1.111   .     S
C248   C358    1.519   .     S
C248   H383    1.110   .     S
C248   H1168   1.108   1_554 S
C249   H274    1.110   .     S
C249   C250    1.521   .     S
C249   H275    1.115   .     S
C249   O320    1.409   .     S
C250   H276    1.111   .     S
C250   H277    1.110   .     S
C250   H390    1.111   .     S
C251   H281    1.114   .     S
C251   O321    1.409   .     S
C251   C364    1.521   .     S
C251   H391    1.112   .     S
C252   H284    1.110   .     S
C252   H283    1.111   .     S
C252   C363    1.521   1_455 S
C252   H394    1.111   1_455 S
C253   O322    1.410   .     S
C253   H286    1.113   .     S
C253   C366    1.519   1_455 S
C253   H397    1.110   1_455 S
C254   H288    1.110   .     S
C254   H287    1.111   .     S
C254   H289    1.110   .     S
C254   C365    1.519   .     S
C255   H290    1.115   .     S
C255   O323    1.412   .     S
C255   H292    1.111   .     S
C255   C256    1.519   .     S
C256   H293    1.111   .     S
C256   H1190   1.109   1_554 S
C257   H296    1.114   .     S
C257   O324    1.410   .     S
C257   C35     1.521   1_565 S
C257   H73     1.114   1_565 S
C258   H280    1.081   .     S
C258   C267    1.409   .     A
C258   N318    1.362   .     A
C259   H298    1.110   .     S
C259   H299    1.111   .     S
C260   H301    1.115   .     S
C260   H303    1.112   .     S
C260   O325    1.411   .     S
C261   H304    1.110   .     S
C261   H306    1.111   .     S
C261   C36     1.519   1_565 S
C261   H753    1.110   .     S
C262   H307    1.111   .     S
C262   C263    1.521   .     S
C262   H308    1.115   .     S
C262   O326    1.413   .     S
C263   H311    1.111   .     S
C263   H309    1.111   .     S
C263   H86     1.110   1_565 S
C264   N317    1.361   .     A
C264   H291    1.082   .     S
C264   C268    1.408   .     A
C265   N318    1.363   .     A
C265   H302    1.078   .     S
C266   O323    1.392   .     S
C267   O324    1.381   .     S
C268   O325    1.381   .     S
H270   C358    1.111   .     S
H271   C360    1.110   1_455 S
H272   C696    1.108   .     S
H278   C362    1.111   1_455 S
H279   C363    1.112   1_455 S
H282   C364    1.111   .     S
H285   C365    1.110   .     S
H294   C704    1.109   .     S
H295   C32     1.110   1_565 S
H300   C35     1.111   1_565 S
H305   C1157   1.110   1_554 S
N317   Zn336   2.003   .     S
N318   Zn335   2.003   .     S
O319   Zn335   1.996   .     S
O327   Zn336   1.996   .     S
O328   Zn335   1.998   .     S
O329   Zn336   1.998   .     S
O330   Zn335   1.960   .     S
O331   Zn336   1.960   .     S
O332   Zn335   1.958   .     S
O333   Zn336   1.958   .     S
C337   C354    1.426   .     S
C337   O431    1.282   .     A
C337   O441    1.282   .     A
C338   O438    1.389   .     S
C338   C377    1.419   .     A
C338   C342    1.414   .     A
C339   C343    1.371   .     S
C339   O442    1.275   .     A
C339   O445    1.275   .     A
C340   C344    1.371   .     S
C340   O444    1.275   .     A
C340   O443    1.275   .     A
C341   C378    1.415   .     A
C341   C380    1.416   .     A
C342   C379    1.416   .     A
C342   C117    1.514   1_565 S
C343   C1240   1.168   1_554 S
C344   C791    1.168   .     S
C345   O446    1.383   .     S
C345   C350    1.382   .     A
C345   C356    1.412   .     A
C346   C351    1.384   .     A
C346   C357    1.408   .     A
C346   O432    1.384   .     S
C347   C357    1.411   .     A
C347   C352    1.384   .     A
C347   O433    1.384   .     S
C348   O440    1.287   .     A
C348   O439    1.286   .     A
C348   C355    1.442   .     S
C349   O434    1.383   .     S
C349   C356    1.415   .     A
C349   C353    1.382   .     A
C350   C354    1.394   .     A
C350   H424    1.084   .     S
C351   C355    1.398   .     A
C351   H425    1.084   .     S
C352   H426    1.083   .     S
C352   C355    1.397   .     A
C353   H427    1.084   .     S
C353   C354    1.391   .     A
C357   C244    1.452   1_655 S
C358   O446    1.409   .     S
C358   H428    1.113   .     S
C359   H381    1.080   .     S
C359   C378    1.422   .     A
C359   N429    1.361   .     A
C360   H385    1.111   .     S
C360   C246    1.519   1_655 S
C360   H271    1.110   1_655 S
C360   H1280   1.108   1_554 S
C361   H386    1.110   .     S
C361   C362    1.521   .     S
C361   H387    1.115   .     S
C361   O432    1.409   .     S
C362   H388    1.111   .     S
C362   H389    1.110   .     S
C362   H278    1.111   1_655 S
C363   H393    1.114   .     S
C363   O433    1.409   .     S
C363   C252    1.521   1_655 S
C363   H279    1.112   1_655 S
C364   H396    1.110   .     S
C364   H395    1.111   .     S
C365   O434    1.410   .     S
C365   H398    1.113   .     S
C366   H400    1.110   .     S
C366   H399    1.111   .     S
C366   H401    1.110   .     S
C366   C253    1.519   1_655 S
C367   H402    1.115   .     S
C367   O435    1.412   .     S
C367   H404    1.111   .     S
C367   C368    1.519   .     S
C368   H405    1.111   .     S
C368   H1302   1.109   1_554 S
C369   H408    1.114   .     S
C369   O436    1.410   .     S
C369   C147    1.521   1_565 S
C369   H185    1.114   1_565 S
C370   H392    1.081   .     S
C370   C379    1.409   .     A
C370   N430    1.362   .     A
C371   H410    1.110   .     S
C371   H411    1.111   .     S
C372   H413    1.115   .     S
C372   H415    1.112   .     S
C372   O437    1.411   .     S
C373   H416    1.110   .     S
C373   H418    1.111   .     S
C373   C148    1.519   1_565 S
C373   H865    1.110   .     S
C374   H419    1.111   .     S
C374   C375    1.521   .     S
C374   H420    1.115   .     S
C374   O438    1.413   .     S
C375   H423    1.111   .     S
C375   H421    1.111   .     S
C375   H198    1.110   1_565 S
C376   N429    1.361   .     A
C376   H403    1.082   .     S
C376   C380    1.408   .     A
C377   N430    1.363   .     A
C377   H414    1.078   .     S
C378   O435    1.392   .     S
C379   O436    1.381   .     S
C380   O437    1.381   .     S
H382   C246    1.111   1_655 S
H384   C808    1.108   .     S
H394   C252    1.111   1_655 S
H397   C253    1.110   1_655 S
H406   C816    1.109   .     S
H407   C144    1.110   1_565 S
H412   C147    1.111   1_565 S
H417   C1269   1.110   1_554 S
N429   Zn448   2.003   .     S
N430   Zn447   2.003   .     S
O431   Zn447   1.996   .     S
O439   Zn448   1.996   .     S
O440   Zn447   1.998   .     S
O441   Zn448   1.998   .     S
O442   Zn447   1.960   .     S
O443   Zn448   1.960   .     S
O444   Zn447   1.958   .     S
O445   Zn448   1.958   .     S
C449   C466    1.426   .     S
C449   O543    1.282   .     A
C449   O553    1.282   .     A
C450   O550    1.389   .     S
C450   C489    1.419   .     A
C450   C454    1.414   .     A
C451   C455    1.371   .     S
C451   O554    1.275   .     A
C451   O557    1.275   .     A
C452   C456    1.371   .     S
C452   O556    1.275   .     A
C452   O555    1.275   .     A
C453   C490    1.415   .     A
C453   C492    1.416   .     A
C453   C678    1.514   1_545 S
C454   C491    1.416   .     A
C454   C677    1.514   .     S
C456   C903    1.168   .     S
C457   O558    1.383   .     S
C457   C462    1.382   .     A
C457   C468    1.412   .     A
C458   C463    1.384   .     A
C458   C469    1.408   .     A
C458   O544    1.384   .     S
C459   C469    1.411   .     A
C459   C464    1.384   .     A
C459   O545    1.384   .     S
C460   O552    1.287   .     A
C460   O551    1.286   .     A
C460   C467    1.442   .     S
C461   O546    1.383   .     S
C461   C468    1.415   .     A
C461   C465    1.382   .     A
C462   C466    1.394   .     A
C462   H536    1.084   .     S
C463   C467    1.398   .     A
C463   H537    1.084   .     S
C464   H538    1.083   .     S
C464   C467    1.397   .     A
C465   H539    1.084   .     S
C465   C466    1.391   .     A
C468   C581    1.452   1_455 S
C469   C580    1.452   .     S
C470   O558    1.409   .     S
C470   H540    1.113   .     S
C470   C584    1.519   1_455 S
C470   H606    1.111   1_455 S
C471   H493    1.080   .     S
C471   C490    1.422   .     A
C471   N541    1.361   .     A
C472   H497    1.111   .     S
C472   C582    1.519   .     S
C472   H607    1.110   .     S
C473   H498    1.110   .     S
C473   C474    1.521   .     S
C473   H499    1.115   .     S
C473   O544    1.409   .     S
C474   H500    1.111   .     S
C474   H501    1.110   .     S
C474   H614    1.111   .     S
C475   H505    1.114   .     S
C475   O545    1.409   .     S
C475   C588    1.521   .     S
C475   H615    1.112   .     S
C476   H508    1.110   .     S
C476   H507    1.111   .     S
C476   C587    1.521   1_455 S
C476   H618    1.111   1_455 S
C477   O546    1.410   .     S
C477   H510    1.113   .     S
C477   C590    1.519   1_455 S
C477   H621    1.110   1_455 S
C478   H512    1.110   .     S
C478   H511    1.111   .     S
C478   H513    1.110   .     S
C478   C589    1.519   .     S
C479   H514    1.115   .     S
C479   O547    1.412   .     S
C479   H516    1.111   .     S
C479   C480    1.519   .     S
C480   H517    1.111   .     S
C480   H743    1.110   1_545 S
C481   H520    1.114   .     S
C481   O548    1.410   .     S
C481   C707    1.521   .     S
C481   H745    1.114   .     S
C482   H504    1.081   .     S
C482   C491    1.409   .     A
C482   N542    1.362   .     A
C483   H522    1.110   .     S
C483   H523    1.111   .     S
C483   C705    1.521   1_545 S
C483   H748    1.111   1_545 S
C484   H525    1.115   .     S
C484   H527    1.112   .     S
C484   O549    1.411   .     S
C484   C709    1.519   1_545 S
C485   H528    1.110   .     S
C485   H530    1.111   .     S
C485   C708    1.519   .     S
C485   H977    1.110   .     S
C486   H531    1.111   .     S
C486   C487    1.521   .     S
C486   H532    1.115   .     S
C486   O550    1.413   .     S
C487   H535    1.111   .     S
C487   H533    1.111   .     S
C487   H758    1.110   .     S
C488   N541    1.361   .     A
C488   H515    1.082   .     S
C488   C492    1.408   .     A
C489   N542    1.363   .     A
C489   H526    1.078   .     S
C490   O547    1.392   .     S
C491   O548    1.381   .     S
C492   O549    1.381   .     S
H494   C582    1.111   .     S
H495   C584    1.110   1_455 S
H496   C920    1.108   .     S
H502   C586    1.111   1_455 S
H503   C587    1.112   1_455 S
H506   C588    1.111   .     S
H509   C589    1.110   .     S
H518   C928    1.109   .     S
H519   C704    1.110   .     S
H521   C705    1.114   1_545 S
H524   C707    1.111   .     S
H534   C711    1.110   1_545 S
N541   Zn560   2.003   .     S
N542   Zn559   2.003   .     S
O543   Zn559   1.996   .     S
O551   Zn560   1.996   .     S
O552   Zn559   1.998   .     S
O553   Zn560   1.998   .     S
O554   Zn559   1.960   .     S
O555   Zn560   1.960   .     S
O556   Zn559   1.958   .     S
O557   Zn560   1.958   .     S
C561   C578    1.426   .     S
C561   O655    1.282   .     A
C561   O665    1.282   .     A
C562   O662    1.389   .     S
C562   C601    1.419   .     A
C562   C566    1.414   .     A
C563   C567    1.371   .     S
C563   O666    1.275   .     A
C563   O669    1.275   .     A
C564   C568    1.371   .     S
C564   O668    1.275   .     A
C564   O667    1.275   .     A
C565   C602    1.415   .     A
C565   C604    1.416   .     A
C565   C790    1.514   1_545 S
C566   C603    1.416   .     A
C566   C789    1.514   .     S
C568   C1015   1.168   .     S
C569   O670    1.383   .     S
C569   C574    1.382   .     A
C569   C580    1.412   .     A
C570   C575    1.384   .     A
C570   C581    1.408   .     A
C570   O656    1.384   .     S
C571   C581    1.411   .     A
C571   C576    1.384   .     A
C571   O657    1.384   .     S
C572   O664    1.287   .     A
C572   O663    1.286   .     A
C572   C579    1.442   .     S
C573   O658    1.383   .     S
C573   C580    1.415   .     A
C573   C577    1.382   .     A
C574   C578    1.394   .     A
C574   H648    1.084   .     S
C575   C579    1.398   .     A
C575   H649    1.084   .     S
C576   H650    1.083   .     S
C576   C579    1.397   .     A
C577   H651    1.084   .     S
C577   C578    1.391   .     A
C581   C468    1.452   1_655 S
C582   O670    1.409   .     S
C582   H652    1.113   .     S
C583   H605    1.080   .     S
C583   C602    1.422   .     A
C583   N653    1.361   .     A
C584   H609    1.111   .     S
C584   C470    1.519   1_655 S
C584   H495    1.110   1_655 S
C585   H610    1.110   .     S
C585   C586    1.521   .     S
C585   H611    1.115   .     S
C585   O656    1.409   .     S
C586   H612    1.111   .     S
C586   H613    1.110   .     S
C586   H502    1.111   1_655 S
C587   H617    1.114   .     S
C587   O657    1.409   .     S
C587   C476    1.521   1_655 S
C587   H503    1.112   1_655 S
C588   H620    1.110   .     S
C588   H619    1.111   .     S
C589   O658    1.410   .     S
C589   H622    1.113   .     S
C590   H624    1.110   .     S
C590   H623    1.111   .     S
C590   H625    1.110   .     S
C590   C477    1.519   1_655 S
C591   H626    1.115   .     S
C591   O659    1.412   .     S
C591   H628    1.111   .     S
C591   C592    1.519   .     S
C592   H629    1.111   .     S
C592   H855    1.110   1_545 S
C593   H632    1.114   .     S
C593   O660    1.410   .     S
C593   C819    1.521   .     S
C593   H857    1.114   .     S
C594   H616    1.081   .     S
C594   C603    1.409   .     A
C594   N654    1.362   .     A
C595   H634    1.110   .     S
C595   H635    1.111   .     S
C595   C817    1.521   1_545 S
C595   H860    1.111   1_545 S
C596   H637    1.115   .     S
C596   H639    1.112   .     S
C596   O661    1.411   .     S
C596   C821    1.519   1_545 S
C597   H640    1.110   .     S
C597   H642    1.111   .     S
C597   C820    1.519   .     S
C597   H1089   1.110   .     S
C598   H643    1.111   .     S
C598   C599    1.521   .     S
C598   H644    1.115   .     S
C598   O662    1.413   .     S
C599   H647    1.111   .     S
C599   H645    1.111   .     S
C599   H870    1.110   .     S
C600   N653    1.361   .     A
C600   H627    1.082   .     S
C600   C604    1.408   .     A
C601   N654    1.363   .     A
C601   H638    1.078   .     S
C602   O659    1.392   .     S
C603   O660    1.381   .     S
C604   O661    1.381   .     S
H606   C470    1.111   1_655 S
H608   C1032   1.108   .     S
H618   C476    1.111   1_655 S
H621   C477    1.110   1_655 S
H630   C1040   1.109   .     S
H631   C816    1.110   .     S
H633   C817    1.114   1_545 S
H636   C819    1.111   .     S
H646   C823    1.110   1_545 S
N653   Zn672   2.003   .     S
N654   Zn671   2.003   .     S
O655   Zn671   1.996   .     S
O663   Zn672   1.996   .     S
O664   Zn671   1.998   .     S
O665   Zn672   1.998   .     S
O666   Zn671   1.960   .     S
O667   Zn672   1.960   .     S
O668   Zn671   1.958   .     S
O669   Zn672   1.958   .     S
C673   C690    1.426   .     S
C673   O767    1.282   .     A
C673   O777    1.282   .     A
C674   O774    1.389   .     S
C674   C713    1.419   .     A
C674   C678    1.414   .     A
C675   C679    1.371   .     S
C675   O778    1.275   .     A
C675   O781    1.275   .     A
C676   C680    1.371   .     S
C676   O780    1.275   .     A
C676   O779    1.275   .     A
C677   C714    1.415   .     A
C677   C716    1.416   .     A
C678   C715    1.416   .     A
C678   C453    1.514   1_565 S
C680   C1127   1.168   .     S
C681   O782    1.383   .     S
C681   C686    1.382   .     A
C681   C692    1.412   .     A
C682   C687    1.384   .     A
C682   C693    1.408   .     A
C682   O768    1.384   .     S
C683   C693    1.411   .     A
C683   C688    1.384   .     A
C683   O769    1.384   .     S
C684   O776    1.287   .     A
C684   O775    1.286   .     A
C684   C691    1.442   .     S
C685   O770    1.383   .     S
C685   C692    1.415   .     A
C685   C689    1.382   .     A
C686   C690    1.394   .     A
C686   H760    1.084   .     S
C687   C691    1.398   .     A
C687   H761    1.084   .     S
C688   H762    1.083   .     S
C688   C691    1.397   .     A
C689   H763    1.084   .     S
C689   C690    1.391   .     A
C692   C805    1.452   1_455 S
C693   C804    1.452   .     S
C694   O782    1.409   .     S
C694   H764    1.113   .     S
C694   C808    1.519   1_455 S
C694   H830    1.111   1_455 S
C695   H717    1.080   .     S
C695   C714    1.422   .     A
C695   N765    1.361   .     A
C696   H721    1.111   .     S
C696   C806    1.519   .     S
C696   H831    1.110   .     S
C697   H722    1.110   .     S
C697   C698    1.521   .     S
C697   H723    1.115   .     S
C697   O768    1.409   .     S
C698   H724    1.111   .     S
C698   H725    1.110   .     S
C698   H838    1.111   .     S
C699   H729    1.114   .     S
C699   O769    1.409   .     S
C699   C812    1.521   .     S
C699   H839    1.112   .     S
C700   H732    1.110   .     S
C700   H731    1.111   .     S
C700   C811    1.521   1_455 S
C700   H842    1.111   1_455 S
C701   O770    1.410   .     S
C701   H734    1.113   .     S
C701   C814    1.519   1_455 S
C701   H845    1.110   1_455 S
C702   H736    1.110   .     S
C702   H735    1.111   .     S
C702   H737    1.110   .     S
C702   C813    1.519   .     S
C703   H738    1.115   .     S
C703   O771    1.412   .     S
C703   H740    1.111   .     S
C703   C704    1.519   .     S
C704   H741    1.111   .     S
C705   H744    1.114   .     S
C705   O772    1.410   .     S
C705   C483    1.521   1_565 S
C705   H521    1.114   1_565 S
C706   H728    1.081   .     S
C706   C715    1.409   .     A
C706   N766    1.362   .     A
C707   H746    1.110   .     S
C707   H747    1.111   .     S
C708   H749    1.115   .     S
C708   H751    1.112   .     S
C708   O773    1.411   .     S
C709   H752    1.110   .     S
C709   H754    1.111   .     S
C709   C484    1.519   1_565 S
C709   H1201   1.110   .     S
C710   H755    1.111   .     S
C710   C711    1.521   .     S
C710   H756    1.115   .     S
C710   O774    1.413   .     S
C711   H759    1.111   .     S
C711   H757    1.111   .     S
C711   H534    1.110   1_565 S
C712   N765    1.361   .     A
C712   H739    1.082   .     S
C712   C716    1.408   .     A
C713   N766    1.363   .     A
C713   H750    1.078   .     S
C714   O771    1.392   .     S
C715   O772    1.381   .     S
C716   O773    1.381   .     S
H718   C806    1.111   .     S
H719   C808    1.110   1_455 S
H720   C1144   1.108   .     S
H726   C810    1.111   1_455 S
H727   C811    1.112   1_455 S
H730   C812    1.111   .     S
H733   C813    1.110   .     S
H742   C1152   1.109   .     S
H743   C480    1.110   1_565 S
H748   C483    1.111   1_565 S
N765   Zn784   2.003   .     S
N766   Zn783   2.003   .     S
O767   Zn783   1.996   .     S
O775   Zn784   1.996   .     S
O776   Zn783   1.998   .     S
O777   Zn784   1.998   .     S
O778   Zn783   1.960   .     S
O779   Zn784   1.960   .     S
O780   Zn783   1.958   .     S
O781   Zn784   1.958   .     S
C785   C802    1.426   .     S
C785   O879    1.282   .     A
C785   O889    1.282   .     A
C786   O886    1.389   .     S
C786   C825    1.419   .     A
C786   C790    1.414   .     A
C787   C791    1.371   .     S
C787   O890    1.275   .     A
C787   O893    1.275   .     A
C788   C792    1.371   .     S
C788   O892    1.275   .     A
C788   O891    1.275   .     A
C789   C826    1.415   .     A
C789   C828    1.416   .     A
C790   C827    1.416   .     A
C790   C565    1.514   1_565 S
C792   C1239   1.168   .     S
C793   O894    1.383   .     S
C793   C798    1.382   .     A
C793   C804    1.412   .     A
C794   C799    1.384   .     A
C794   C805    1.408   .     A
C794   O880    1.384   .     S
C795   C805    1.411   .     A
C795   C800    1.384   .     A
C795   O881    1.384   .     S
C796   O888    1.287   .     A
C796   O887    1.286   .     A
C796   C803    1.442   .     S
C797   O882    1.383   .     S
C797   C804    1.415   .     A
C797   C801    1.382   .     A
C798   C802    1.394   .     A
C798   H872    1.084   .     S
C799   C803    1.398   .     A
C799   H873    1.084   .     S
C800   H874    1.083   .     S
C800   C803    1.397   .     A
C801   H875    1.084   .     S
C801   C802    1.391   .     A
C805   C692    1.452   1_655 S
C806   O894    1.409   .     S
C806   H876    1.113   .     S
C807   H829    1.080   .     S
C807   C826    1.422   .     A
C807   N877    1.361   .     A
C808   H833    1.111   .     S
C808   C694    1.519   1_655 S
C808   H719    1.110   1_655 S
C809   H834    1.110   .     S
C809   C810    1.521   .     S
C809   H835    1.115   .     S
C809   O880    1.409   .     S
C810   H836    1.111   .     S
C810   H837    1.110   .     S
C810   H726    1.111   1_655 S
C811   H841    1.114   .     S
C811   O881    1.409   .     S
C811   C700    1.521   1_655 S
C811   H727    1.112   1_655 S
C812   H844    1.110   .     S
C812   H843    1.111   .     S
C813   O882    1.410   .     S
C813   H846    1.113   .     S
C814   H848    1.110   .     S
C814   H847    1.111   .     S
C814   H849    1.110   .     S
C814   C701    1.519   1_655 S
C815   H850    1.115   .     S
C815   O883    1.412   .     S
C815   H852    1.111   .     S
C815   C816    1.519   .     S
C816   H853    1.111   .     S
C817   H856    1.114   .     S
C817   O884    1.410   .     S
C817   C595    1.521   1_565 S
C817   H633    1.114   1_565 S
C818   H840    1.081   .     S
C818   C827    1.409   .     A
C818   N878    1.362   .     A
C819   H858    1.110   .     S
C819   H859    1.111   .     S
C820   H861    1.115   .     S
C820   H863    1.112   .     S
C820   O885    1.411   .     S
C821   H864    1.110   .     S
C821   H866    1.111   .     S
C821   C596    1.519   1_565 S
C821   H1313   1.110   .     S
C822   H867    1.111   .     S
C822   C823    1.521   .     S
C822   H868    1.115   .     S
C822   O886    1.413   .     S
C823   H871    1.111   .     S
C823   H869    1.111   .     S
C823   H646    1.110   1_565 S
C824   N877    1.361   .     A
C824   H851    1.082   .     S
C824   C828    1.408   .     A
C825   N878    1.363   .     A
C825   H862    1.078   .     S
C826   O883    1.392   .     S
C827   O884    1.381   .     S
C828   O885    1.381   .     S
H830   C694    1.111   1_655 S
H832   C1256   1.108   .     S
H842   C700    1.111   1_655 S
H845   C701    1.110   1_655 S
H854   C1264   1.109   .     S
H855   C592    1.110   1_565 S
H860   C595    1.111   1_565 S
N877   Zn896   2.003   .     S
N878   Zn895   2.003   .     S
O879   Zn895   1.996   .     S
O887   Zn896   1.996   .     S
O888   Zn895   1.998   .     S
O889   Zn896   1.998   .     S
O890   Zn895   1.960   .     S
O891   Zn896   1.960   .     S
O892   Zn895   1.958   .     S
O893   Zn896   1.958   .     S
C897   C914    1.426   .     S
C897   O991    1.282   .     A
C897   O1001   1.282   .     A
C898   O998    1.389   .     S
C898   C937    1.419   .     A
C898   C902    1.414   .     A
C899   C903    1.371   .     S
C899   O1002   1.275   .     A
C899   O1005   1.275   .     A
C900   C904    1.371   .     S
C900   O1004   1.275   .     A
C900   O1003   1.275   .     A
C901   C938    1.415   .     A
C901   C940    1.416   .     A
C901   C1126   1.514   1_545 S
C902   C939    1.416   .     A
C902   C1125   1.514   .     S
C904   C7      1.168   1_556 S
C905   O1006   1.383   .     S
C905   C910    1.382   .     A
C905   C916    1.412   .     A
C906   C911    1.384   .     A
C906   C917    1.408   .     A
C906   O992    1.384   .     S
C907   C917    1.411   .     A
C907   C912    1.384   .     A
C907   O993    1.384   .     S
C908   O1000   1.287   .     A
C908   O999    1.286   .     A
C908   C915    1.442   .     S
C909   O994    1.383   .     S
C909   C916    1.415   .     A
C909   C913    1.382   .     A
C910   C914    1.394   .     A
C910   H984    1.084   .     S
C911   C915    1.398   .     A
C911   H985    1.084   .     S
C912   H986    1.083   .     S
C912   C915    1.397   .     A
C913   H987    1.084   .     S
C913   C914    1.391   .     A
C916   C1029   1.452   1_455 S
C917   C1028   1.452   .     S
C918   O1006   1.409   .     S
C918   H988    1.113   .     S
C918   C1032   1.519   1_455 S
C918   H1054   1.111   1_455 S
C919   H941    1.080   .     S
C919   C938    1.422   .     A
C919   N989    1.361   .     A
C920   H945    1.111   .     S
C920   C1030   1.519   .     S
C920   H1055   1.110   .     S
C921   H946    1.110   .     S
C921   C922    1.521   .     S
C921   H947    1.115   .     S
C921   O992    1.409   .     S
C922   H948    1.111   .     S
C922   H949    1.110   .     S
C922   H1062   1.111   .     S
C923   H953    1.114   .     S
C923   O993    1.409   .     S
C923   C1036   1.521   .     S
C923   H1063   1.112   .     S
C924   H956    1.110   .     S
C924   H955    1.111   .     S
C924   C1035   1.521   1_455 S
C924   H1066   1.111   1_455 S
C925   O994    1.410   .     S
C925   H958    1.113   .     S
C925   C1038   1.519   1_455 S
C925   H1069   1.110   1_455 S
C926   H960    1.110   .     S
C926   H959    1.111   .     S
C926   H961    1.110   .     S
C926   C1037   1.519   .     S
C927   H962    1.115   .     S
C927   O995    1.412   .     S
C927   H964    1.111   .     S
C927   C928    1.519   .     S
C928   H965    1.111   .     S
C928   H1191   1.110   1_545 S
C929   H968    1.114   .     S
C929   O996    1.410   .     S
C929   C1155   1.521   .     S
C929   H1193   1.114   .     S
C930   H952    1.081   .     S
C930   C939    1.409   .     A
C930   N990    1.362   .     A
C931   H970    1.110   .     S
C931   H971    1.111   .     S
C931   C1153   1.521   1_545 S
C931   H1196   1.111   1_545 S
C932   H973    1.115   .     S
C932   H975    1.112   .     S
C932   O997    1.411   .     S
C932   C1157   1.519   1_545 S
C933   H976    1.110   .     S
C933   H978    1.111   .     S
C933   C1156   1.519   .     S
C933   H81     1.110   1_556 S
C934   H979    1.111   .     S
C934   C935    1.521   .     S
C934   H980    1.115   .     S
C934   O998    1.413   .     S
C935   H983    1.111   .     S
C935   H981    1.111   .     S
C935   H1206   1.110   .     S
C936   N989    1.361   .     A
C936   H963    1.082   .     S
C936   C940    1.408   .     A
C937   N990    1.363   .     A
C937   H974    1.078   .     S
C938   O995    1.392   .     S
C939   O996    1.381   .     S
C940   O997    1.381   .     S
H942   C1030   1.111   .     S
H943   C1032   1.110   1_455 S
H944   C24     1.108   1_556 S
H950   C1034   1.111   1_455 S
H951   C1035   1.112   1_455 S
H954   C1036   1.111   .     S
H957   C1037   1.110   .     S
H966   C32     1.109   1_556 S
H967   C1152   1.110   .     S
H969   C1153   1.114   1_545 S
H972   C1155   1.111   .     S
H982   C1159   1.110   1_545 S
N989   Zn1008  2.003   .     S
N990   Zn1007  2.003   .     S
O991   Zn1007  1.996   .     S
O999   Zn1008  1.996   .     S
O1000  Zn1007  1.998   .     S
O1001  Zn1008  1.998   .     S
O1002  Zn1007  1.960   .     S
O1003  Zn1008  1.960   .     S
O1004  Zn1007  1.958   .     S
O1005  Zn1008  1.958   .     S
C1009  C1026   1.426   .     S
C1009  O1103   1.282   .     A
C1009  O1113   1.282   .     A
C1010  O1110   1.389   .     S
C1010  C1049   1.419   .     A
C1010  C1014   1.414   .     A
C1011  C1015   1.371   .     S
C1011  O1114   1.275   .     A
C1011  O1117   1.275   .     A
C1012  C1016   1.371   .     S
C1012  O1116   1.275   .     A
C1012  O1115   1.275   .     A
C1013  C1050   1.415   .     A
C1013  C1052   1.416   .     A
C1013  C1238   1.514   1_545 S
C1014  C1051   1.416   .     A
C1014  C1237   1.514   .     S
C1016  C119    1.168   1_556 S
C1017  O1118   1.383   .     S
C1017  C1022   1.382   .     A
C1017  C1028   1.412   .     A
C1018  C1023   1.384   .     A
C1018  C1029   1.408   .     A
C1018  O1104   1.384   .     S
C1019  C1029   1.411   .     A
C1019  C1024   1.384   .     A
C1019  O1105   1.384   .     S
C1020  O1112   1.287   .     A
C1020  O1111   1.286   .     A
C1020  C1027   1.442   .     S
C1021  O1106   1.383   .     S
C1021  C1028   1.415   .     A
C1021  C1025   1.382   .     A
C1022  C1026   1.394   .     A
C1022  H1096   1.084   .     S
C1023  C1027   1.398   .     A
C1023  H1097   1.084   .     S
C1024  H1098   1.083   .     S
C1024  C1027   1.397   .     A
C1025  H1099   1.084   .     S
C1025  C1026   1.391   .     A
C1029  C916    1.452   1_655 S
C1030  O1118   1.409   .     S
C1030  H1100   1.113   .     S
C1031  H1053   1.080   .     S
C1031  C1050   1.422   .     A
C1031  N1101   1.361   .     A
C1032  H1057   1.111   .     S
C1032  C918    1.519   1_655 S
C1032  H943    1.110   1_655 S
C1033  H1058   1.110   .     S
C1033  C1034   1.521   .     S
C1033  H1059   1.115   .     S
C1033  O1104   1.409   .     S
C1034  H1060   1.111   .     S
C1034  H1061   1.110   .     S
C1034  H950    1.111   1_655 S
C1035  H1065   1.114   .     S
C1035  O1105   1.409   .     S
C1035  C924    1.521   1_655 S
C1035  H951    1.112   1_655 S
C1036  H1068   1.110   .     S
C1036  H1067   1.111   .     S
C1037  O1106   1.410   .     S
C1037  H1070   1.113   .     S
C1038  H1072   1.110   .     S
C1038  H1071   1.111   .     S
C1038  H1073   1.110   .     S
C1038  C925    1.519   1_655 S
C1039  H1074   1.115   .     S
C1039  O1107   1.412   .     S
C1039  H1076   1.111   .     S
C1039  C1040   1.519   .     S
C1040  H1077   1.111   .     S
C1040  H1303   1.110   1_545 S
C1041  H1080   1.114   .     S
C1041  O1108   1.410   .     S
C1041  C1267   1.521   .     S
C1041  H1305   1.114   .     S
C1042  H1064   1.081   .     S
C1042  C1051   1.409   .     A
C1042  N1102   1.362   .     A
C1043  H1082   1.110   .     S
C1043  H1083   1.111   .     S
C1043  C1265   1.521   1_545 S
C1043  H1308   1.111   1_545 S
C1044  H1085   1.115   .     S
C1044  H1087   1.112   .     S
C1044  O1109   1.411   .     S
C1044  C1269   1.519   1_545 S
C1045  H1088   1.110   .     S
C1045  H1090   1.111   .     S
C1045  C1268   1.519   .     S
C1045  H193    1.110   1_556 S
C1046  H1091   1.111   .     S
C1046  C1047   1.521   .     S
C1046  H1092   1.115   .     S
C1046  O1110   1.413   .     S
C1047  H1095   1.111   .     S
C1047  H1093   1.111   .     S
C1047  H1318   1.110   .     S
C1048  N1101   1.361   .     A
C1048  H1075   1.082   .     S
C1048  C1052   1.408   .     A
C1049  N1102   1.363   .     A
C1049  H1086   1.078   .     S
C1050  O1107   1.392   .     S
C1051  O1108   1.381   .     S
C1052  O1109   1.381   .     S
H1054  C918    1.111   1_655 S
H1056  C136    1.108   1_556 S
H1066  C924    1.111   1_655 S
H1069  C925    1.110   1_655 S
H1078  C144    1.109   1_556 S
H1079  C1264   1.110   .     S
H1081  C1265   1.114   1_545 S
H1084  C1267   1.111   .     S
H1094  C1271   1.110   1_545 S
N1101  Zn1120  2.003   .     S
N1102  Zn1119  2.003   .     S
O1103  Zn1119  1.996   .     S
O1111  Zn1120  1.996   .     S
O1112  Zn1119  1.998   .     S
O1113  Zn1120  1.998   .     S
O1114  Zn1119  1.960   .     S
O1115  Zn1120  1.960   .     S
O1116  Zn1119  1.958   .     S
O1117  Zn1120  1.958   .     S
C1121  C1138   1.426   .     S
C1121  O1215   1.282   .     A
C1121  O1225   1.282   .     A
C1122  O1222   1.389   .     S
C1122  C1161   1.419   .     A
C1122  C1126   1.414   .     A
C1123  C1127   1.371   .     S
C1123  O1226   1.275   .     A
C1123  O1229   1.275   .     A
C1124  C1128   1.371   .     S
C1124  O1228   1.275   .     A
C1124  O1227   1.275   .     A
C1125  C1162   1.415   .     A
C1125  C1164   1.416   .     A
C1126  C1163   1.416   .     A
C1126  C901    1.514   1_565 S
C1128  C231    1.168   1_556 S
C1129  O1230   1.383   .     S
C1129  C1134   1.382   .     A
C1129  C1140   1.412   .     A
C1130  C1135   1.384   .     A
C1130  C1141   1.408   .     A
C1130  O1216   1.384   .     S
C1131  C1141   1.411   .     A
C1131  C1136   1.384   .     A
C1131  O1217   1.384   .     S
C1132  O1224   1.287   .     A
C1132  O1223   1.286   .     A
C1132  C1139   1.442   .     S
C1133  O1218   1.383   .     S
C1133  C1140   1.415   .     A
C1133  C1137   1.382   .     A
C1134  C1138   1.394   .     A
C1134  H1208   1.084   .     S
C1135  C1139   1.398   .     A
C1135  H1209   1.084   .     S
C1136  H1210   1.083   .     S
C1136  C1139   1.397   .     A
C1137  H1211   1.084   .     S
C1137  C1138   1.391   .     A
C1140  C1253   1.452   1_455 S
C1141  C1252   1.452   .     S
C1142  O1230   1.409   .     S
C1142  H1212   1.113   .     S
C1142  C1256   1.519   1_455 S
C1142  H1278   1.111   1_455 S
C1143  H1165   1.080   .     S
C1143  C1162   1.422   .     A
C1143  N1213   1.361   .     A
C1144  H1169   1.111   .     S
C1144  C1254   1.519   .     S
C1144  H1279   1.110   .     S
C1145  H1170   1.110   .     S
C1145  C1146   1.521   .     S
C1145  H1171   1.115   .     S
C1145  O1216   1.409   .     S
C1146  H1172   1.111   .     S
C1146  H1173   1.110   .     S
C1146  H1286   1.111   .     S
C1147  H1177   1.114   .     S
C1147  O1217   1.409   .     S
C1147  C1260   1.521   .     S
C1147  H1287   1.112   .     S
C1148  H1180   1.110   .     S
C1148  H1179   1.111   .     S
C1148  C1259   1.521   1_455 S
C1148  H1290   1.111   1_455 S
C1149  O1218   1.410   .     S
C1149  H1182   1.113   .     S
C1149  C1262   1.519   1_455 S
C1149  H1293   1.110   1_455 S
C1150  H1184   1.110   .     S
C1150  H1183   1.111   .     S
C1150  H1185   1.110   .     S
C1150  C1261   1.519   .     S
C1151  H1186   1.115   .     S
C1151  O1219   1.412   .     S
C1151  H1188   1.111   .     S
C1151  C1152   1.519   .     S
C1152  H1189   1.111   .     S
C1153  H1192   1.114   .     S
C1153  O1220   1.410   .     S
C1153  C931    1.521   1_565 S
C1153  H969    1.114   1_565 S
C1154  H1176   1.081   .     S
C1154  C1163   1.409   .     A
C1154  N1214   1.362   .     A
C1155  H1194   1.110   .     S
C1155  H1195   1.111   .     S
C1156  H1197   1.115   .     S
C1156  H1199   1.112   .     S
C1156  O1221   1.411   .     S
C1157  H1200   1.110   .     S
C1157  H1202   1.111   .     S
C1157  C932    1.519   1_565 S
C1157  H305    1.110   1_556 S
C1158  H1203   1.111   .     S
C1158  C1159   1.521   .     S
C1158  H1204   1.115   .     S
C1158  O1222   1.413   .     S
C1159  H1207   1.111   .     S
C1159  H1205   1.111   .     S
C1159  H982    1.110   1_565 S
C1160  N1213   1.361   .     A
C1160  H1187   1.082   .     S
C1160  C1164   1.408   .     A
C1161  N1214   1.363   .     A
C1161  H1198   1.078   .     S
C1162  O1219   1.392   .     S
C1163  O1220   1.381   .     S
C1164  O1221   1.381   .     S
H1166  C1254   1.111   .     S
H1167  C1256   1.110   1_455 S
H1168  C248    1.108   1_556 S
H1174  C1258   1.111   1_455 S
H1175  C1259   1.112   1_455 S
H1178  C1260   1.111   .     S
H1181  C1261   1.110   .     S
H1190  C256    1.109   1_556 S
H1191  C928    1.110   1_565 S
H1196  C931    1.111   1_565 S
N1213  Zn1232  2.003   .     S
N1214  Zn1231  2.003   .     S
O1215  Zn1231  1.996   .     S
O1223  Zn1232  1.996   .     S
O1224  Zn1231  1.998   .     S
O1225  Zn1232  1.998   .     S
O1226  Zn1231  1.960   .     S
O1227  Zn1232  1.960   .     S
O1228  Zn1231  1.958   .     S
O1229  Zn1232  1.958   .     S
C1233  C1250   1.426   .     S
C1233  O1327   1.282   .     A
C1233  O1337   1.282   .     A
C1234  O1334   1.389   .     S
C1234  C1273   1.419   .     A
C1234  C1238   1.414   .     A
C1235  C1239   1.371   .     S
C1235  O1338   1.275   .     A
C1235  O1341   1.275   .     A
C1236  C1240   1.371   .     S
C1236  O1340   1.275   .     A
C1236  O1339   1.275   .     A
C1237  C1274   1.415   .     A
C1237  C1276   1.416   .     A
C1238  C1275   1.416   .     A
C1238  C1013   1.514   1_565 S
C1240  C343    1.168   1_556 S
C1241  O1342   1.383   .     S
C1241  C1246   1.382   .     A
C1241  C1252   1.412   .     A
C1242  C1247   1.384   .     A
C1242  C1253   1.408   .     A
C1242  O1328   1.384   .     S
C1243  C1253   1.411   .     A
C1243  C1248   1.384   .     A
C1243  O1329   1.384   .     S
C1244  O1336   1.287   .     A
C1244  O1335   1.286   .     A
C1244  C1251   1.442   .     S
C1245  O1330   1.383   .     S
C1245  C1252   1.415   .     A
C1245  C1249   1.382   .     A
C1246  C1250   1.394   .     A
C1246  H1320   1.084   .     S
C1247  C1251   1.398   .     A
C1247  H1321   1.084   .     S
C1248  H1322   1.083   .     S
C1248  C1251   1.397   .     A
C1249  H1323   1.084   .     S
C1249  C1250   1.391   .     A
C1253  C1140   1.452   1_655 S
C1254  O1342   1.409   .     S
C1254  H1324   1.113   .     S
C1255  H1277   1.080   .     S
C1255  C1274   1.422   .     A
C1255  N1325   1.361   .     A
C1256  H1281   1.111   .     S
C1256  C1142   1.519   1_655 S
C1256  H1167   1.110   1_655 S
C1257  H1282   1.110   .     S
C1257  C1258   1.521   .     S
C1257  H1283   1.115   .     S
C1257  O1328   1.409   .     S
C1258  H1284   1.111   .     S
C1258  H1285   1.110   .     S
C1258  H1174   1.111   1_655 S
C1259  H1289   1.114   .     S
C1259  O1329   1.409   .     S
C1259  C1148   1.521   1_655 S
C1259  H1175   1.112   1_655 S
C1260  H1292   1.110   .     S
C1260  H1291   1.111   .     S
C1261  O1330   1.410   .     S
C1261  H1294   1.113   .     S
C1262  H1296   1.110   .     S
C1262  H1295   1.111   .     S
C1262  H1297   1.110   .     S
C1262  C1149   1.519   1_655 S
C1263  H1298   1.115   .     S
C1263  O1331   1.412   .     S
C1263  H1300   1.111   .     S
C1263  C1264   1.519   .     S
C1264  H1301   1.111   .     S
C1265  H1304   1.114   .     S
C1265  O1332   1.410   .     S
C1265  C1043   1.521   1_565 S
C1265  H1081   1.114   1_565 S
C1266  H1288   1.081   .     S
C1266  C1275   1.409   .     A
C1266  N1326   1.362   .     A
C1267  H1306   1.110   .     S
C1267  H1307   1.111   .     S
C1268  H1309   1.115   .     S
C1268  H1311   1.112   .     S
C1268  O1333   1.411   .     S
C1269  H1312   1.110   .     S
C1269  H1314   1.111   .     S
C1269  C1044   1.519   1_565 S
C1269  H417    1.110   1_556 S
C1270  H1315   1.111   .     S
C1270  C1271   1.521   .     S
C1270  H1316   1.115   .     S
C1270  O1334   1.413   .     S
C1271  H1319   1.111   .     S
C1271  H1317   1.111   .     S
C1271  H1094   1.110   1_565 S
C1272  N1325   1.361   .     A
C1272  H1299   1.082   .     S
C1272  C1276   1.408   .     A
C1273  N1326   1.363   .     A
C1273  H1310   1.078   .     S
C1274  O1331   1.392   .     S
C1275  O1332   1.381   .     S
C1276  O1333   1.381   .     S
H1278  C1142   1.111   1_655 S
H1280  C360    1.108   1_556 S
H1290  C1148   1.111   1_655 S
H1293  C1149   1.110   1_655 S
H1302  C368    1.109   1_556 S
H1303  C1040   1.110   1_565 S
H1308  C1043   1.111   1_565 S
N1325  Zn1344  2.003   .     S
N1326  Zn1343  2.003   .     S
O1327  Zn1343  1.996   .     S
O1335  Zn1344  1.996   .     S
O1336  Zn1343  1.998   .     S
O1337  Zn1344  1.998   .     S
O1338  Zn1343  1.960   .     S
O1339  Zn1344  1.960   .     S
O1340  Zn1343  1.958   .     S
O1341  Zn1344  1.958   .     S
