data_str_m3_o1_o17_pcu_sym.201
_audit_creation_date              2020-01-03
_audit_creation_method            'Materials Studio'
_symmetry_space_group_name_H-M    'P1'
_symmetry_Int_Tables_number       1
_symmetry_cell_setting            triclinic
loop_
_symmetry_equiv_pos_as_xyz
  x,y,z
_cell_length_a                    32.0183
_cell_length_b                    29.4881
_cell_length_c                    30.0260
_cell_angle_alpha                 89.8936
_cell_angle_beta                  90.4932
_cell_angle_gamma                 89.7498
loop_
_atom_site_label
_atom_site_type_symbol
_atom_site_fract_x
_atom_site_fract_y
_atom_site_fract_z
_atom_site_U_iso_or_equiv
_atom_site_adp_type
_atom_site_occupancy
O1     O     0.10559   0.20487   0.24999   0.00000  Uiso   1.00
O2     O     0.22774   0.12846   0.25000   0.00000  Uiso   1.00
O3     O     0.22774   0.20487   0.25000   0.00000  Uiso   1.00
O4     O     0.10559   0.12846   0.24999   0.00000  Uiso   1.00
C5     C     0.08675   0.16681   0.24979   0.00000  Uiso   1.00
C6     C     0.24658   0.16652   0.25021   0.00000  Uiso   1.00
O7     O     0.16666   0.20489   0.18392   0.00000  Uiso   1.00
O8     O     0.16667   0.12844   0.31607   0.00000  Uiso   1.00
O9     O     0.16667   0.20489   0.31607   0.00000  Uiso   1.00
O10    O     0.16666   0.12844   0.18392   0.00000  Uiso   1.00
C11    C     0.16841   0.16675   0.16341   0.00000  Uiso   1.00
C12    C     0.16492   0.16659   0.33659   0.00000  Uiso   1.00
Zn13   Zn    0.16667   0.21771   0.25000   0.00000  Uiso   1.00
Zn14   Zn    0.16667   0.11563   0.25000   0.00000  Uiso   1.00
C15    C     0.18128   0.20212   0.40684   0.00000  Uiso   1.00
C16    C     0.15194   0.13128   0.09315   0.00000  Uiso   1.00
C17    C     0.16195   0.16669   0.38443   0.00000  Uiso   1.00
C18    C     0.17132   0.16667   0.11557   0.00000  Uiso   1.00
C19    C     0.14170   0.13153   0.40754   0.00000  Uiso   1.00
C20    C     0.19153   0.20186   0.09247   0.00000  Uiso   1.00
C21    C     0.14153   0.13225   0.45450   0.00000  Uiso   1.00
C22    C     0.19161   0.20123   0.04550   0.00000  Uiso   1.00
C23    C     0.16464   0.16681   0.47676   0.00000  Uiso   1.00
C24    C     0.16851   0.16665   0.02324   0.00000  Uiso   1.00
C25    C     0.18394   0.20172   0.45258   0.00000  Uiso   1.00
C26    C     0.14922   0.13174   0.04742   0.00000  Uiso   1.00
C27    C     0.12015   0.09931   0.48016   0.00000  Uiso   1.00
C28    C     0.21287   0.23426   0.01984   0.00000  Uiso   1.00
C29    C     0.12558   0.09859   0.02607   0.00000  Uiso   1.00
C30    C     0.20749   0.23493   0.47392   0.00000  Uiso   1.00
H31    H     0.19660   0.22893   0.38839   0.00000  Uiso   1.00
H32    H     0.13664   0.10446   0.11160   0.00000  Uiso   1.00
H33    H     0.10942   0.07313   0.04546   0.00000  Uiso   1.00
H34    H     0.22361   0.26044   0.45455   0.00000  Uiso   1.00
C35    C     0.02135   0.14021   0.21817   0.00000  Uiso   1.00
C36    C     0.31198   0.19312   0.28184   0.00000  Uiso   1.00
C37    C     0.31154   0.13935   0.21917   0.00000  Uiso   1.00
C38    C     0.02179   0.19398   0.28084   0.00000  Uiso   1.00
C39    C     0.29073   0.16606   0.25069   0.00000  Uiso   1.00
C40    C     0.04261   0.16727   0.24932   0.00000  Uiso   1.00
C41    C     0.19073   0.02382   0.27978   0.00000  Uiso   1.00
C42    C     0.14260   0.30951   0.22022   0.00000  Uiso   1.00
C43    C     0.14261   0.02417   0.22021   0.00000  Uiso   1.00
C44    C     0.19072   0.30916   0.27979   0.00000  Uiso   1.00
H45    H     0.20996   0.04190   0.30357   0.00000  Uiso   1.00
H46    H     0.12337   0.29143   0.19643   0.00000  Uiso   1.00
H47    H     0.12341   0.04252   0.19640   0.00000  Uiso   1.00
H48    H     0.20992   0.29081   0.30360   0.00000  Uiso   1.00
N49    N     0.16667   0.28573   0.25000   0.00000  Uiso   1.00
N50    N     0.16667   0.04760   0.25000   0.00000  Uiso   1.00
N51    N     0.12385   0.09434   0.38327   0.00000  Uiso   1.00
O52    O     0.14173   0.05464   0.38478   0.00000  Uiso   1.00
O53    O     0.09273   0.10123   0.35588   0.00000  Uiso   1.00
N54    N     0.20948   0.23898   0.11677   0.00000  Uiso   1.00
O55    O     0.24074   0.23200   0.14396   0.00000  Uiso   1.00
O56    O     0.19149   0.27862   0.11561   0.00000  Uiso   1.00
N57    N     0.09020   0.06874   0.46124   0.00000  Uiso   1.00
O58    O     0.05656   0.08501   0.44244   0.00000  Uiso   1.00
O59    O     0.09156   0.02593   0.47178   0.00000  Uiso   1.00
N60    N     0.24262   0.26506   0.03877   0.00000  Uiso   1.00
O61    O     0.24074   0.30792   0.02851   0.00000  Uiso   1.00
O62    O     0.27652   0.24906   0.05725   0.00000  Uiso   1.00
N63    N     0.04336   0.11618   0.18392   0.00000  Uiso   1.00
O64    O     0.03698   0.07313   0.17758   0.00000  Uiso   1.00
O65    O     0.06870   0.13780   0.15782   0.00000  Uiso   1.00
N66    N     0.28997   0.21716   0.31609   0.00000  Uiso   1.00
O67    O     0.29637   0.26020   0.32244   0.00000  Uiso   1.00
O68    O     0.26462   0.19555   0.34217   0.00000  Uiso   1.00
N69    N     0.28883   0.11400   0.18630   0.00000  Uiso   1.00
O70    O     0.27156   0.13475   0.15257   0.00000  Uiso   1.00
O71    O     0.28247   0.07086   0.19207   0.00000  Uiso   1.00
N72    N     0.04450   0.21930   0.31373   0.00000  Uiso   1.00
O73    O     0.06175   0.19854   0.34746   0.00000  Uiso   1.00
O74    O     0.05089   0.26244   0.30796   0.00000  Uiso   1.00
O75    O     0.43892   0.20487   0.24999   0.00000  Uiso   1.00
O76    O     0.56108   0.12846   0.25000   0.00000  Uiso   1.00
O77    O     0.56108   0.20487   0.25000   0.00000  Uiso   1.00
O78    O     0.43892   0.12846   0.24999   0.00000  Uiso   1.00
C79    C     0.42008   0.16681   0.24979   0.00000  Uiso   1.00
C80    C     0.57992   0.16652   0.25021   0.00000  Uiso   1.00
O81    O     0.49999   0.20489   0.18392   0.00000  Uiso   1.00
O82    O     0.50001   0.12844   0.31607   0.00000  Uiso   1.00
O83    O     0.50001   0.20489   0.31607   0.00000  Uiso   1.00
O84    O     0.49999   0.12844   0.18392   0.00000  Uiso   1.00
C85    C     0.50174   0.16675   0.16341   0.00000  Uiso   1.00
C86    C     0.49825   0.16659   0.33659   0.00000  Uiso   1.00
Zn87   Zn    0.50000   0.21771   0.25000   0.00000  Uiso   1.00
Zn88   Zn    0.50000   0.11563   0.25000   0.00000  Uiso   1.00
C89    C     0.51462   0.20212   0.40684   0.00000  Uiso   1.00
C90    C     0.48528   0.13128   0.09315   0.00000  Uiso   1.00
C91    C     0.49529   0.16669   0.38443   0.00000  Uiso   1.00
C92    C     0.50466   0.16667   0.11557   0.00000  Uiso   1.00
C93    C     0.47503   0.13153   0.40754   0.00000  Uiso   1.00
C94    C     0.52487   0.20186   0.09247   0.00000  Uiso   1.00
C95    C     0.47486   0.13225   0.45450   0.00000  Uiso   1.00
C96    C     0.52494   0.20123   0.04550   0.00000  Uiso   1.00
C97    C     0.49797   0.16681   0.47676   0.00000  Uiso   1.00
C98    C     0.50185   0.16665   0.02324   0.00000  Uiso   1.00
C99    C     0.51727   0.20172   0.45258   0.00000  Uiso   1.00
C100   C     0.48256   0.13174   0.04742   0.00000  Uiso   1.00
C101   C     0.45349   0.09931   0.48016   0.00000  Uiso   1.00
C102   C     0.54621   0.23426   0.01984   0.00000  Uiso   1.00
C103   C     0.45892   0.09859   0.02607   0.00000  Uiso   1.00
C104   C     0.54083   0.23493   0.47392   0.00000  Uiso   1.00
H105   H     0.52993   0.22893   0.38839   0.00000  Uiso   1.00
H106   H     0.46998   0.10446   0.11160   0.00000  Uiso   1.00
H107   H     0.44275   0.07313   0.04546   0.00000  Uiso   1.00
H108   H     0.55695   0.26044   0.45455   0.00000  Uiso   1.00
C109   C     0.35468   0.14021   0.21817   0.00000  Uiso   1.00
C110   C     0.64532   0.19312   0.28184   0.00000  Uiso   1.00
C111   C     0.64488   0.13935   0.21917   0.00000  Uiso   1.00
C112   C     0.35512   0.19398   0.28084   0.00000  Uiso   1.00
C113   C     0.62406   0.16606   0.25069   0.00000  Uiso   1.00
C114   C     0.37594   0.16727   0.24932   0.00000  Uiso   1.00
C115   C     0.52407   0.02382   0.27978   0.00000  Uiso   1.00
C116   C     0.47593   0.30951   0.22022   0.00000  Uiso   1.00
C117   C     0.47594   0.02417   0.22021   0.00000  Uiso   1.00
C118   C     0.52406   0.30916   0.27979   0.00000  Uiso   1.00
H119   H     0.54330   0.04190   0.30357   0.00000  Uiso   1.00
H120   H     0.45670   0.29143   0.19643   0.00000  Uiso   1.00
H121   H     0.45674   0.04252   0.19640   0.00000  Uiso   1.00
H122   H     0.54326   0.29081   0.30360   0.00000  Uiso   1.00
N123   N     0.50000   0.28573   0.25000   0.00000  Uiso   1.00
N124   N     0.50000   0.04760   0.25000   0.00000  Uiso   1.00
N125   N     0.45718   0.09434   0.38327   0.00000  Uiso   1.00
O126   O     0.47506   0.05464   0.38478   0.00000  Uiso   1.00
O127   O     0.42606   0.10123   0.35588   0.00000  Uiso   1.00
N128   N     0.54282   0.23898   0.11677   0.00000  Uiso   1.00
O129   O     0.57407   0.23200   0.14396   0.00000  Uiso   1.00
O130   O     0.52482   0.27862   0.11561   0.00000  Uiso   1.00
N131   N     0.42353   0.06874   0.46124   0.00000  Uiso   1.00
O132   O     0.38989   0.08501   0.44244   0.00000  Uiso   1.00
O133   O     0.42490   0.02593   0.47178   0.00000  Uiso   1.00
N134   N     0.57595   0.26506   0.03877   0.00000  Uiso   1.00
O135   O     0.57408   0.30792   0.02851   0.00000  Uiso   1.00
O136   O     0.60986   0.24906   0.05725   0.00000  Uiso   1.00
N137   N     0.37670   0.11618   0.18392   0.00000  Uiso   1.00
O138   O     0.37031   0.07313   0.17758   0.00000  Uiso   1.00
O139   O     0.40203   0.13780   0.15782   0.00000  Uiso   1.00
N140   N     0.62330   0.21716   0.31609   0.00000  Uiso   1.00
O141   O     0.62970   0.26020   0.32244   0.00000  Uiso   1.00
O142   O     0.59795   0.19555   0.34217   0.00000  Uiso   1.00
N143   N     0.62216   0.11400   0.18630   0.00000  Uiso   1.00
O144   O     0.60489   0.13475   0.15257   0.00000  Uiso   1.00
O145   O     0.61580   0.07086   0.19207   0.00000  Uiso   1.00
N146   N     0.37784   0.21930   0.31373   0.00000  Uiso   1.00
O147   O     0.39509   0.19854   0.34746   0.00000  Uiso   1.00
O148   O     0.38423   0.26244   0.30796   0.00000  Uiso   1.00
O149   O     0.77226   0.20487   0.24999   0.00000  Uiso   1.00
O150   O     0.89441   0.12846   0.25000   0.00000  Uiso   1.00
O151   O     0.89441   0.20487   0.25000   0.00000  Uiso   1.00
O152   O     0.77226   0.12846   0.24999   0.00000  Uiso   1.00
C153   C     0.75342   0.16681   0.24979   0.00000  Uiso   1.00
C154   C     0.91325   0.16652   0.25021   0.00000  Uiso   1.00
O155   O     0.83333   0.20489   0.18392   0.00000  Uiso   1.00
O156   O     0.83334   0.12844   0.31607   0.00000  Uiso   1.00
O157   O     0.83334   0.20489   0.31607   0.00000  Uiso   1.00
O158   O     0.83333   0.12844   0.18392   0.00000  Uiso   1.00
C159   C     0.83508   0.16675   0.16341   0.00000  Uiso   1.00
C160   C     0.83159   0.16659   0.33659   0.00000  Uiso   1.00
Zn161  Zn    0.83333   0.21771   0.25000   0.00000  Uiso   1.00
Zn162  Zn    0.83333   0.11563   0.25000   0.00000  Uiso   1.00
C163   C     0.84795   0.20212   0.40684   0.00000  Uiso   1.00
C164   C     0.81861   0.13128   0.09315   0.00000  Uiso   1.00
C165   C     0.82862   0.16669   0.38443   0.00000  Uiso   1.00
C166   C     0.83799   0.16667   0.11557   0.00000  Uiso   1.00
C167   C     0.80837   0.13153   0.40754   0.00000  Uiso   1.00
C168   C     0.85820   0.20186   0.09247   0.00000  Uiso   1.00
C169   C     0.80820   0.13225   0.45450   0.00000  Uiso   1.00
C170   C     0.85827   0.20123   0.04550   0.00000  Uiso   1.00
C171   C     0.83130   0.16681   0.47676   0.00000  Uiso   1.00
C172   C     0.83518   0.16665   0.02324   0.00000  Uiso   1.00
C173   C     0.85060   0.20172   0.45258   0.00000  Uiso   1.00
C174   C     0.81589   0.13174   0.04742   0.00000  Uiso   1.00
C175   C     0.78682   0.09931   0.48016   0.00000  Uiso   1.00
C176   C     0.87954   0.23426   0.01984   0.00000  Uiso   1.00
C177   C     0.79225   0.09859   0.02607   0.00000  Uiso   1.00
C178   C     0.87416   0.23493   0.47392   0.00000  Uiso   1.00
H179   H     0.86327   0.22893   0.38839   0.00000  Uiso   1.00
H180   H     0.80331   0.10446   0.11160   0.00000  Uiso   1.00
H181   H     0.77608   0.07313   0.04546   0.00000  Uiso   1.00
H182   H     0.89028   0.26044   0.45455   0.00000  Uiso   1.00
C183   C     0.68802   0.14021   0.21817   0.00000  Uiso   1.00
C184   C     0.97865   0.19312   0.28184   0.00000  Uiso   1.00
C185   C     0.97821   0.13935   0.21917   0.00000  Uiso   1.00
C186   C     0.68846   0.19398   0.28084   0.00000  Uiso   1.00
C187   C     0.95739   0.16606   0.25069   0.00000  Uiso   1.00
C188   C     0.70927   0.16727   0.24932   0.00000  Uiso   1.00
C189   C     0.85740   0.02382   0.27978   0.00000  Uiso   1.00
C190   C     0.80926   0.30951   0.22022   0.00000  Uiso   1.00
C191   C     0.80927   0.02417   0.22021   0.00000  Uiso   1.00
C192   C     0.85739   0.30916   0.27979   0.00000  Uiso   1.00
H193   H     0.87663   0.04190   0.30357   0.00000  Uiso   1.00
H194   H     0.79004   0.29143   0.19643   0.00000  Uiso   1.00
H195   H     0.79008   0.04252   0.19640   0.00000  Uiso   1.00
H196   H     0.87659   0.29081   0.30360   0.00000  Uiso   1.00
N197   N     0.83333   0.28573   0.25000   0.00000  Uiso   1.00
N198   N     0.83333   0.04760   0.25000   0.00000  Uiso   1.00
N199   N     0.79051   0.09434   0.38327   0.00000  Uiso   1.00
O200   O     0.80839   0.05464   0.38478   0.00000  Uiso   1.00
O201   O     0.75939   0.10123   0.35588   0.00000  Uiso   1.00
N202   N     0.87615   0.23898   0.11677   0.00000  Uiso   1.00
O203   O     0.90740   0.23200   0.14396   0.00000  Uiso   1.00
O204   O     0.85815   0.27862   0.11561   0.00000  Uiso   1.00
N205   N     0.75686   0.06874   0.46124   0.00000  Uiso   1.00
O206   O     0.72323   0.08501   0.44244   0.00000  Uiso   1.00
O207   O     0.75823   0.02593   0.47178   0.00000  Uiso   1.00
N208   N     0.90928   0.26506   0.03877   0.00000  Uiso   1.00
O209   O     0.90741   0.30792   0.02851   0.00000  Uiso   1.00
O210   O     0.94319   0.24906   0.05725   0.00000  Uiso   1.00
N211   N     0.71003   0.11618   0.18392   0.00000  Uiso   1.00
O212   O     0.70365   0.07313   0.17758   0.00000  Uiso   1.00
O213   O     0.73536   0.13780   0.15782   0.00000  Uiso   1.00
N214   N     0.95664   0.21716   0.31609   0.00000  Uiso   1.00
O215   O     0.96304   0.26020   0.32244   0.00000  Uiso   1.00
O216   O     0.93128   0.19555   0.34217   0.00000  Uiso   1.00
N217   N     0.95550   0.11400   0.18630   0.00000  Uiso   1.00
O218   O     0.93822   0.13475   0.15257   0.00000  Uiso   1.00
O219   O     0.94913   0.07086   0.19207   0.00000  Uiso   1.00
N220   N     0.71117   0.21930   0.31373   0.00000  Uiso   1.00
O221   O     0.72842   0.19854   0.34746   0.00000  Uiso   1.00
O222   O     0.71756   0.26244   0.30796   0.00000  Uiso   1.00
O223   O     0.10559   0.53821   0.24999   0.00000  Uiso   1.00
O224   O     0.22774   0.46179   0.25000   0.00000  Uiso   1.00
O225   O     0.22774   0.53821   0.25000   0.00000  Uiso   1.00
O226   O     0.10559   0.46179   0.24999   0.00000  Uiso   1.00
C227   C     0.08675   0.50014   0.24979   0.00000  Uiso   1.00
C228   C     0.24658   0.49986   0.25021   0.00000  Uiso   1.00
O229   O     0.16666   0.53823   0.18392   0.00000  Uiso   1.00
O230   O     0.16667   0.46177   0.31607   0.00000  Uiso   1.00
O231   O     0.16667   0.53823   0.31607   0.00000  Uiso   1.00
O232   O     0.16666   0.46177   0.18392   0.00000  Uiso   1.00
C233   C     0.16841   0.50008   0.16341   0.00000  Uiso   1.00
C234   C     0.16492   0.49992   0.33659   0.00000  Uiso   1.00
Zn235  Zn    0.16667   0.55104   0.25000   0.00000  Uiso   1.00
Zn236  Zn    0.16667   0.44896   0.25000   0.00000  Uiso   1.00
C237   C     0.18128   0.53545   0.40684   0.00000  Uiso   1.00
C238   C     0.15194   0.46462   0.09315   0.00000  Uiso   1.00
C239   C     0.16195   0.50002   0.38443   0.00000  Uiso   1.00
C240   C     0.17132   0.50000   0.11557   0.00000  Uiso   1.00
C241   C     0.14170   0.46487   0.40754   0.00000  Uiso   1.00
C242   C     0.19153   0.53519   0.09247   0.00000  Uiso   1.00
C243   C     0.14153   0.46558   0.45450   0.00000  Uiso   1.00
C244   C     0.19161   0.53456   0.04550   0.00000  Uiso   1.00
C245   C     0.16464   0.50015   0.47676   0.00000  Uiso   1.00
C246   C     0.16851   0.49999   0.02324   0.00000  Uiso   1.00
C247   C     0.18394   0.53505   0.45258   0.00000  Uiso   1.00
C248   C     0.14922   0.46507   0.04742   0.00000  Uiso   1.00
C249   C     0.12015   0.43264   0.48016   0.00000  Uiso   1.00
C250   C     0.21287   0.56759   0.01984   0.00000  Uiso   1.00
C251   C     0.12558   0.43193   0.02607   0.00000  Uiso   1.00
C252   C     0.20749   0.56826   0.47392   0.00000  Uiso   1.00
H253   H     0.19660   0.56226   0.38839   0.00000  Uiso   1.00
H254   H     0.13664   0.43779   0.11160   0.00000  Uiso   1.00
H255   H     0.10942   0.40646   0.04546   0.00000  Uiso   1.00
H256   H     0.22361   0.59377   0.45455   0.00000  Uiso   1.00
C257   C     0.02135   0.47354   0.21817   0.00000  Uiso   1.00
C258   C     0.31198   0.52645   0.28184   0.00000  Uiso   1.00
C259   C     0.31154   0.47268   0.21917   0.00000  Uiso   1.00
C260   C     0.02179   0.52731   0.28084   0.00000  Uiso   1.00
C261   C     0.29073   0.49940   0.25069   0.00000  Uiso   1.00
C262   C     0.04261   0.50060   0.24932   0.00000  Uiso   1.00
C263   C     0.19073   0.35716   0.27978   0.00000  Uiso   1.00
C264   C     0.14260   0.64284   0.22022   0.00000  Uiso   1.00
C265   C     0.14261   0.35750   0.22021   0.00000  Uiso   1.00
C266   C     0.19072   0.64250   0.27979   0.00000  Uiso   1.00
H267   H     0.20996   0.37523   0.30357   0.00000  Uiso   1.00
H268   H     0.12337   0.62476   0.19643   0.00000  Uiso   1.00
H269   H     0.12341   0.37586   0.19640   0.00000  Uiso   1.00
H270   H     0.20992   0.62414   0.30360   0.00000  Uiso   1.00
N271   N     0.16667   0.61907   0.25000   0.00000  Uiso   1.00
N272   N     0.16667   0.38093   0.25000   0.00000  Uiso   1.00
N273   N     0.12385   0.42767   0.38327   0.00000  Uiso   1.00
O274   O     0.14173   0.38798   0.38478   0.00000  Uiso   1.00
O275   O     0.09273   0.43456   0.35588   0.00000  Uiso   1.00
N276   N     0.20948   0.57231   0.11677   0.00000  Uiso   1.00
O277   O     0.24074   0.56533   0.14396   0.00000  Uiso   1.00
O278   O     0.19149   0.61196   0.11561   0.00000  Uiso   1.00
N279   N     0.09020   0.40207   0.46124   0.00000  Uiso   1.00
O280   O     0.05656   0.41834   0.44244   0.00000  Uiso   1.00
O281   O     0.09156   0.35926   0.47178   0.00000  Uiso   1.00
N282   N     0.24262   0.59839   0.03877   0.00000  Uiso   1.00
O283   O     0.24074   0.64125   0.02851   0.00000  Uiso   1.00
O284   O     0.27652   0.58239   0.05725   0.00000  Uiso   1.00
N285   N     0.04336   0.44951   0.18392   0.00000  Uiso   1.00
O286   O     0.03698   0.40646   0.17758   0.00000  Uiso   1.00
O287   O     0.06870   0.47113   0.15782   0.00000  Uiso   1.00
N288   N     0.28997   0.55049   0.31609   0.00000  Uiso   1.00
O289   O     0.29637   0.59354   0.32244   0.00000  Uiso   1.00
O290   O     0.26462   0.52888   0.34217   0.00000  Uiso   1.00
N291   N     0.28883   0.44733   0.18630   0.00000  Uiso   1.00
O292   O     0.27156   0.46808   0.15257   0.00000  Uiso   1.00
O293   O     0.28247   0.40419   0.19207   0.00000  Uiso   1.00
N294   N     0.04450   0.55264   0.31373   0.00000  Uiso   1.00
O295   O     0.06175   0.53187   0.34746   0.00000  Uiso   1.00
O296   O     0.05089   0.59578   0.30796   0.00000  Uiso   1.00
O297   O     0.43892   0.53821   0.24999   0.00000  Uiso   1.00
O298   O     0.56108   0.46179   0.25000   0.00000  Uiso   1.00
O299   O     0.56108   0.53821   0.25000   0.00000  Uiso   1.00
O300   O     0.43892   0.46179   0.24999   0.00000  Uiso   1.00
C301   C     0.42008   0.50014   0.24979   0.00000  Uiso   1.00
C302   C     0.57992   0.49986   0.25021   0.00000  Uiso   1.00
O303   O     0.49999   0.53823   0.18392   0.00000  Uiso   1.00
O304   O     0.50001   0.46177   0.31607   0.00000  Uiso   1.00
O305   O     0.50001   0.53823   0.31607   0.00000  Uiso   1.00
O306   O     0.49999   0.46177   0.18392   0.00000  Uiso   1.00
C307   C     0.50174   0.50008   0.16341   0.00000  Uiso   1.00
C308   C     0.49825   0.49992   0.33659   0.00000  Uiso   1.00
Zn309  Zn    0.50000   0.55104   0.25000   0.00000  Uiso   1.00
Zn310  Zn    0.50000   0.44896   0.25000   0.00000  Uiso   1.00
C311   C     0.51462   0.53545   0.40684   0.00000  Uiso   1.00
C312   C     0.48528   0.46462   0.09315   0.00000  Uiso   1.00
C313   C     0.49529   0.50002   0.38443   0.00000  Uiso   1.00
C314   C     0.50466   0.50000   0.11557   0.00000  Uiso   1.00
C315   C     0.47503   0.46487   0.40754   0.00000  Uiso   1.00
C316   C     0.52487   0.53519   0.09247   0.00000  Uiso   1.00
C317   C     0.47486   0.46558   0.45450   0.00000  Uiso   1.00
C318   C     0.52494   0.53456   0.04550   0.00000  Uiso   1.00
C319   C     0.49797   0.50015   0.47676   0.00000  Uiso   1.00
C320   C     0.50185   0.49999   0.02324   0.00000  Uiso   1.00
C321   C     0.51727   0.53505   0.45258   0.00000  Uiso   1.00
C322   C     0.48256   0.46507   0.04742   0.00000  Uiso   1.00
C323   C     0.45349   0.43264   0.48016   0.00000  Uiso   1.00
C324   C     0.54621   0.56759   0.01984   0.00000  Uiso   1.00
C325   C     0.45892   0.43193   0.02607   0.00000  Uiso   1.00
C326   C     0.54083   0.56826   0.47392   0.00000  Uiso   1.00
H327   H     0.52993   0.56226   0.38839   0.00000  Uiso   1.00
H328   H     0.46998   0.43779   0.11160   0.00000  Uiso   1.00
H329   H     0.44275   0.40646   0.04546   0.00000  Uiso   1.00
H330   H     0.55695   0.59377   0.45455   0.00000  Uiso   1.00
C331   C     0.35468   0.47354   0.21817   0.00000  Uiso   1.00
C332   C     0.64532   0.52645   0.28184   0.00000  Uiso   1.00
C333   C     0.64488   0.47268   0.21917   0.00000  Uiso   1.00
C334   C     0.35512   0.52731   0.28084   0.00000  Uiso   1.00
C335   C     0.62406   0.49940   0.25069   0.00000  Uiso   1.00
C336   C     0.37594   0.50060   0.24932   0.00000  Uiso   1.00
C337   C     0.52407   0.35716   0.27978   0.00000  Uiso   1.00
C338   C     0.47593   0.64284   0.22022   0.00000  Uiso   1.00
C339   C     0.47594   0.35750   0.22021   0.00000  Uiso   1.00
C340   C     0.52406   0.64250   0.27979   0.00000  Uiso   1.00
H341   H     0.54330   0.37523   0.30357   0.00000  Uiso   1.00
H342   H     0.45670   0.62476   0.19643   0.00000  Uiso   1.00
H343   H     0.45674   0.37586   0.19640   0.00000  Uiso   1.00
H344   H     0.54326   0.62414   0.30360   0.00000  Uiso   1.00
N345   N     0.50000   0.61907   0.25000   0.00000  Uiso   1.00
N346   N     0.50000   0.38093   0.25000   0.00000  Uiso   1.00
N347   N     0.45718   0.42767   0.38327   0.00000  Uiso   1.00
O348   O     0.47506   0.38798   0.38478   0.00000  Uiso   1.00
O349   O     0.42606   0.43456   0.35588   0.00000  Uiso   1.00
N350   N     0.54282   0.57231   0.11677   0.00000  Uiso   1.00
O351   O     0.57407   0.56533   0.14396   0.00000  Uiso   1.00
O352   O     0.52482   0.61196   0.11561   0.00000  Uiso   1.00
N353   N     0.42353   0.40207   0.46124   0.00000  Uiso   1.00
O354   O     0.38989   0.41834   0.44244   0.00000  Uiso   1.00
O355   O     0.42490   0.35926   0.47178   0.00000  Uiso   1.00
N356   N     0.57595   0.59839   0.03877   0.00000  Uiso   1.00
O357   O     0.57408   0.64125   0.02851   0.00000  Uiso   1.00
O358   O     0.60986   0.58239   0.05725   0.00000  Uiso   1.00
N359   N     0.37670   0.44951   0.18392   0.00000  Uiso   1.00
O360   O     0.37031   0.40646   0.17758   0.00000  Uiso   1.00
O361   O     0.40203   0.47113   0.15782   0.00000  Uiso   1.00
N362   N     0.62330   0.55049   0.31609   0.00000  Uiso   1.00
O363   O     0.62970   0.59354   0.32244   0.00000  Uiso   1.00
O364   O     0.59795   0.52888   0.34217   0.00000  Uiso   1.00
N365   N     0.62216   0.44733   0.18630   0.00000  Uiso   1.00
O366   O     0.60489   0.46808   0.15257   0.00000  Uiso   1.00
O367   O     0.61580   0.40419   0.19207   0.00000  Uiso   1.00
N368   N     0.37784   0.55264   0.31373   0.00000  Uiso   1.00
O369   O     0.39509   0.53187   0.34746   0.00000  Uiso   1.00
O370   O     0.38423   0.59578   0.30796   0.00000  Uiso   1.00
O371   O     0.77226   0.53821   0.24999   0.00000  Uiso   1.00
O372   O     0.89441   0.46179   0.25000   0.00000  Uiso   1.00
O373   O     0.89441   0.53821   0.25000   0.00000  Uiso   1.00
O374   O     0.77226   0.46179   0.24999   0.00000  Uiso   1.00
C375   C     0.75342   0.50014   0.24979   0.00000  Uiso   1.00
C376   C     0.91325   0.49986   0.25021   0.00000  Uiso   1.00
O377   O     0.83333   0.53823   0.18392   0.00000  Uiso   1.00
O378   O     0.83334   0.46177   0.31607   0.00000  Uiso   1.00
O379   O     0.83334   0.53823   0.31607   0.00000  Uiso   1.00
O380   O     0.83333   0.46177   0.18392   0.00000  Uiso   1.00
C381   C     0.83508   0.50008   0.16341   0.00000  Uiso   1.00
C382   C     0.83159   0.49992   0.33659   0.00000  Uiso   1.00
Zn383  Zn    0.83333   0.55104   0.25000   0.00000  Uiso   1.00
Zn384  Zn    0.83333   0.44896   0.25000   0.00000  Uiso   1.00
C385   C     0.84795   0.53545   0.40684   0.00000  Uiso   1.00
C386   C     0.81861   0.46462   0.09315   0.00000  Uiso   1.00
C387   C     0.82862   0.50002   0.38443   0.00000  Uiso   1.00
C388   C     0.83799   0.50000   0.11557   0.00000  Uiso   1.00
C389   C     0.80837   0.46487   0.40754   0.00000  Uiso   1.00
C390   C     0.85820   0.53519   0.09247   0.00000  Uiso   1.00
C391   C     0.80820   0.46558   0.45450   0.00000  Uiso   1.00
C392   C     0.85827   0.53456   0.04550   0.00000  Uiso   1.00
C393   C     0.83130   0.50015   0.47676   0.00000  Uiso   1.00
C394   C     0.83518   0.49999   0.02324   0.00000  Uiso   1.00
C395   C     0.85060   0.53505   0.45258   0.00000  Uiso   1.00
C396   C     0.81589   0.46507   0.04742   0.00000  Uiso   1.00
C397   C     0.78682   0.43264   0.48016   0.00000  Uiso   1.00
C398   C     0.87954   0.56759   0.01984   0.00000  Uiso   1.00
C399   C     0.79225   0.43193   0.02607   0.00000  Uiso   1.00
C400   C     0.87416   0.56826   0.47392   0.00000  Uiso   1.00
H401   H     0.86327   0.56226   0.38839   0.00000  Uiso   1.00
H402   H     0.80331   0.43779   0.11160   0.00000  Uiso   1.00
H403   H     0.77608   0.40646   0.04546   0.00000  Uiso   1.00
H404   H     0.89028   0.59377   0.45455   0.00000  Uiso   1.00
C405   C     0.68802   0.47354   0.21817   0.00000  Uiso   1.00
C406   C     0.97865   0.52645   0.28184   0.00000  Uiso   1.00
C407   C     0.97821   0.47268   0.21917   0.00000  Uiso   1.00
C408   C     0.68846   0.52731   0.28084   0.00000  Uiso   1.00
C409   C     0.95739   0.49940   0.25069   0.00000  Uiso   1.00
C410   C     0.70927   0.50060   0.24932   0.00000  Uiso   1.00
C411   C     0.85740   0.35716   0.27978   0.00000  Uiso   1.00
C412   C     0.80926   0.64284   0.22022   0.00000  Uiso   1.00
C413   C     0.80927   0.35750   0.22021   0.00000  Uiso   1.00
C414   C     0.85739   0.64250   0.27979   0.00000  Uiso   1.00
H415   H     0.87663   0.37523   0.30357   0.00000  Uiso   1.00
H416   H     0.79004   0.62476   0.19643   0.00000  Uiso   1.00
H417   H     0.79008   0.37586   0.19640   0.00000  Uiso   1.00
H418   H     0.87659   0.62414   0.30360   0.00000  Uiso   1.00
N419   N     0.83333   0.61907   0.25000   0.00000  Uiso   1.00
N420   N     0.83333   0.38093   0.25000   0.00000  Uiso   1.00
N421   N     0.79051   0.42767   0.38327   0.00000  Uiso   1.00
O422   O     0.80839   0.38798   0.38478   0.00000  Uiso   1.00
O423   O     0.75939   0.43456   0.35588   0.00000  Uiso   1.00
N424   N     0.87615   0.57231   0.11677   0.00000  Uiso   1.00
O425   O     0.90740   0.56533   0.14396   0.00000  Uiso   1.00
O426   O     0.85815   0.61196   0.11561   0.00000  Uiso   1.00
N427   N     0.75686   0.40207   0.46124   0.00000  Uiso   1.00
O428   O     0.72323   0.41834   0.44244   0.00000  Uiso   1.00
O429   O     0.75823   0.35926   0.47178   0.00000  Uiso   1.00
N430   N     0.90928   0.59839   0.03877   0.00000  Uiso   1.00
O431   O     0.90741   0.64125   0.02851   0.00000  Uiso   1.00
O432   O     0.94319   0.58239   0.05725   0.00000  Uiso   1.00
N433   N     0.71003   0.44951   0.18392   0.00000  Uiso   1.00
O434   O     0.70365   0.40646   0.17758   0.00000  Uiso   1.00
O435   O     0.73536   0.47113   0.15782   0.00000  Uiso   1.00
N436   N     0.95664   0.55049   0.31609   0.00000  Uiso   1.00
O437   O     0.96304   0.59354   0.32244   0.00000  Uiso   1.00
O438   O     0.93128   0.52888   0.34217   0.00000  Uiso   1.00
N439   N     0.95550   0.44733   0.18630   0.00000  Uiso   1.00
O440   O     0.93822   0.46808   0.15257   0.00000  Uiso   1.00
O441   O     0.94913   0.40419   0.19207   0.00000  Uiso   1.00
N442   N     0.71117   0.55264   0.31373   0.00000  Uiso   1.00
O443   O     0.72842   0.53187   0.34746   0.00000  Uiso   1.00
O444   O     0.71756   0.59578   0.30796   0.00000  Uiso   1.00
O445   O     0.10559   0.87154   0.24999   0.00000  Uiso   1.00
O446   O     0.22774   0.79513   0.25000   0.00000  Uiso   1.00
O447   O     0.22774   0.87154   0.25000   0.00000  Uiso   1.00
O448   O     0.10559   0.79513   0.24999   0.00000  Uiso   1.00
C449   C     0.08675   0.83348   0.24979   0.00000  Uiso   1.00
C450   C     0.24658   0.83319   0.25021   0.00000  Uiso   1.00
O451   O     0.16666   0.87156   0.18392   0.00000  Uiso   1.00
O452   O     0.16667   0.79511   0.31607   0.00000  Uiso   1.00
O453   O     0.16667   0.87156   0.31607   0.00000  Uiso   1.00
O454   O     0.16666   0.79511   0.18392   0.00000  Uiso   1.00
C455   C     0.16841   0.83342   0.16341   0.00000  Uiso   1.00
C456   C     0.16492   0.83325   0.33659   0.00000  Uiso   1.00
Zn457  Zn    0.16667   0.88437   0.25000   0.00000  Uiso   1.00
Zn458  Zn    0.16667   0.78229   0.25000   0.00000  Uiso   1.00
C459   C     0.18128   0.86878   0.40684   0.00000  Uiso   1.00
C460   C     0.15194   0.79795   0.09315   0.00000  Uiso   1.00
C461   C     0.16195   0.83336   0.38443   0.00000  Uiso   1.00
C462   C     0.17132   0.83334   0.11557   0.00000  Uiso   1.00
C463   C     0.14170   0.79820   0.40754   0.00000  Uiso   1.00
C464   C     0.19153   0.86853   0.09247   0.00000  Uiso   1.00
C465   C     0.14153   0.79892   0.45450   0.00000  Uiso   1.00
C466   C     0.19161   0.86789   0.04550   0.00000  Uiso   1.00
C467   C     0.16464   0.83348   0.47676   0.00000  Uiso   1.00
C468   C     0.16851   0.83332   0.02324   0.00000  Uiso   1.00
C469   C     0.18394   0.86838   0.45258   0.00000  Uiso   1.00
C470   C     0.14922   0.79840   0.04742   0.00000  Uiso   1.00
C471   C     0.12015   0.76597   0.48016   0.00000  Uiso   1.00
C472   C     0.21287   0.90093   0.01984   0.00000  Uiso   1.00
C473   C     0.12558   0.76526   0.02607   0.00000  Uiso   1.00
C474   C     0.20749   0.90159   0.47392   0.00000  Uiso   1.00
H475   H     0.19660   0.89560   0.38839   0.00000  Uiso   1.00
H476   H     0.13664   0.77113   0.11160   0.00000  Uiso   1.00
H477   H     0.10942   0.73980   0.04546   0.00000  Uiso   1.00
H478   H     0.22361   0.92710   0.45455   0.00000  Uiso   1.00
C479   C     0.02135   0.80688   0.21817   0.00000  Uiso   1.00
C480   C     0.31198   0.85979   0.28184   0.00000  Uiso   1.00
C481   C     0.31154   0.80601   0.21917   0.00000  Uiso   1.00
C482   C     0.02179   0.86064   0.28084   0.00000  Uiso   1.00
C483   C     0.29073   0.83273   0.25069   0.00000  Uiso   1.00
C484   C     0.04261   0.83393   0.24932   0.00000  Uiso   1.00
C485   C     0.19073   0.69049   0.27978   0.00000  Uiso   1.00
C486   C     0.14260   0.97618   0.22022   0.00000  Uiso   1.00
C487   C     0.14261   0.69084   0.22021   0.00000  Uiso   1.00
C488   C     0.19072   0.97583   0.27979   0.00000  Uiso   1.00
H489   H     0.20996   0.70857   0.30357   0.00000  Uiso   1.00
H490   H     0.12337   0.95810   0.19643   0.00000  Uiso   1.00
H491   H     0.12341   0.70919   0.19640   0.00000  Uiso   1.00
H492   H     0.20992   0.95748   0.30360   0.00000  Uiso   1.00
N493   N     0.16667   0.95240   0.25000   0.00000  Uiso   1.00
N494   N     0.16667   0.71427   0.25000   0.00000  Uiso   1.00
N495   N     0.12385   0.76101   0.38327   0.00000  Uiso   1.00
O496   O     0.14173   0.72131   0.38478   0.00000  Uiso   1.00
O497   O     0.09273   0.76790   0.35588   0.00000  Uiso   1.00
N498   N     0.20948   0.90564   0.11677   0.00000  Uiso   1.00
O499   O     0.24074   0.89866   0.14396   0.00000  Uiso   1.00
O500   O     0.19149   0.94529   0.11561   0.00000  Uiso   1.00
N501   N     0.09020   0.73540   0.46124   0.00000  Uiso   1.00
O502   O     0.05656   0.75168   0.44244   0.00000  Uiso   1.00
O503   O     0.09156   0.69259   0.47178   0.00000  Uiso   1.00
N504   N     0.24262   0.93172   0.03877   0.00000  Uiso   1.00
O505   O     0.24074   0.97459   0.02851   0.00000  Uiso   1.00
O506   O     0.27652   0.91573   0.05725   0.00000  Uiso   1.00
N507   N     0.04336   0.78285   0.18392   0.00000  Uiso   1.00
O508   O     0.03698   0.73980   0.17758   0.00000  Uiso   1.00
O509   O     0.06870   0.80446   0.15782   0.00000  Uiso   1.00
N510   N     0.28997   0.88382   0.31609   0.00000  Uiso   1.00
O511   O     0.29637   0.92687   0.32244   0.00000  Uiso   1.00
O512   O     0.26462   0.86222   0.34217   0.00000  Uiso   1.00
N513   N     0.28883   0.78067   0.18630   0.00000  Uiso   1.00
O514   O     0.27156   0.80142   0.15257   0.00000  Uiso   1.00
O515   O     0.28247   0.73753   0.19207   0.00000  Uiso   1.00
N516   N     0.04450   0.88597   0.31373   0.00000  Uiso   1.00
O517   O     0.06175   0.86521   0.34746   0.00000  Uiso   1.00
O518   O     0.05089   0.92911   0.30796   0.00000  Uiso   1.00
O519   O     0.43892   0.87154   0.24999   0.00000  Uiso   1.00
O520   O     0.56108   0.79513   0.25000   0.00000  Uiso   1.00
O521   O     0.56108   0.87154   0.25000   0.00000  Uiso   1.00
O522   O     0.43892   0.79513   0.24999   0.00000  Uiso   1.00
C523   C     0.42008   0.83348   0.24979   0.00000  Uiso   1.00
C524   C     0.57992   0.83319   0.25021   0.00000  Uiso   1.00
O525   O     0.49999   0.87156   0.18392   0.00000  Uiso   1.00
O526   O     0.50001   0.79511   0.31607   0.00000  Uiso   1.00
O527   O     0.50001   0.87156   0.31607   0.00000  Uiso   1.00
O528   O     0.49999   0.79511   0.18392   0.00000  Uiso   1.00
C529   C     0.50174   0.83342   0.16341   0.00000  Uiso   1.00
C530   C     0.49825   0.83325   0.33659   0.00000  Uiso   1.00
Zn531  Zn    0.50000   0.88437   0.25000   0.00000  Uiso   1.00
Zn532  Zn    0.50000   0.78229   0.25000   0.00000  Uiso   1.00
C533   C     0.51462   0.86878   0.40684   0.00000  Uiso   1.00
C534   C     0.48528   0.79795   0.09315   0.00000  Uiso   1.00
C535   C     0.49529   0.83336   0.38443   0.00000  Uiso   1.00
C536   C     0.50466   0.83334   0.11557   0.00000  Uiso   1.00
C537   C     0.47503   0.79820   0.40754   0.00000  Uiso   1.00
C538   C     0.52487   0.86853   0.09247   0.00000  Uiso   1.00
C539   C     0.47486   0.79892   0.45450   0.00000  Uiso   1.00
C540   C     0.52494   0.86789   0.04550   0.00000  Uiso   1.00
C541   C     0.49797   0.83348   0.47676   0.00000  Uiso   1.00
C542   C     0.50185   0.83332   0.02324   0.00000  Uiso   1.00
C543   C     0.51727   0.86838   0.45258   0.00000  Uiso   1.00
C544   C     0.48256   0.79840   0.04742   0.00000  Uiso   1.00
C545   C     0.45349   0.76597   0.48016   0.00000  Uiso   1.00
C546   C     0.54621   0.90093   0.01984   0.00000  Uiso   1.00
C547   C     0.45892   0.76526   0.02607   0.00000  Uiso   1.00
C548   C     0.54083   0.90159   0.47392   0.00000  Uiso   1.00
H549   H     0.52993   0.89560   0.38839   0.00000  Uiso   1.00
H550   H     0.46998   0.77113   0.11160   0.00000  Uiso   1.00
H551   H     0.44275   0.73980   0.04546   0.00000  Uiso   1.00
H552   H     0.55695   0.92710   0.45455   0.00000  Uiso   1.00
C553   C     0.35468   0.80688   0.21817   0.00000  Uiso   1.00
C554   C     0.64532   0.85979   0.28184   0.00000  Uiso   1.00
C555   C     0.64488   0.80601   0.21917   0.00000  Uiso   1.00
C556   C     0.35512   0.86064   0.28084   0.00000  Uiso   1.00
C557   C     0.62406   0.83273   0.25069   0.00000  Uiso   1.00
C558   C     0.37594   0.83393   0.24932   0.00000  Uiso   1.00
C559   C     0.52407   0.69049   0.27978   0.00000  Uiso   1.00
C560   C     0.47593   0.97618   0.22022   0.00000  Uiso   1.00
C561   C     0.47594   0.69084   0.22021   0.00000  Uiso   1.00
C562   C     0.52406   0.97583   0.27979   0.00000  Uiso   1.00
H563   H     0.54330   0.70857   0.30357   0.00000  Uiso   1.00
H564   H     0.45670   0.95810   0.19643   0.00000  Uiso   1.00
H565   H     0.45674   0.70919   0.19640   0.00000  Uiso   1.00
H566   H     0.54326   0.95748   0.30360   0.00000  Uiso   1.00
N567   N     0.50000   0.95240   0.25000   0.00000  Uiso   1.00
N568   N     0.50000   0.71427   0.25000   0.00000  Uiso   1.00
N569   N     0.45718   0.76101   0.38327   0.00000  Uiso   1.00
O570   O     0.47506   0.72131   0.38478   0.00000  Uiso   1.00
O571   O     0.42606   0.76790   0.35588   0.00000  Uiso   1.00
N572   N     0.54282   0.90564   0.11677   0.00000  Uiso   1.00
O573   O     0.57407   0.89866   0.14396   0.00000  Uiso   1.00
O574   O     0.52482   0.94529   0.11561   0.00000  Uiso   1.00
N575   N     0.42353   0.73540   0.46124   0.00000  Uiso   1.00
O576   O     0.38989   0.75168   0.44244   0.00000  Uiso   1.00
O577   O     0.42490   0.69259   0.47178   0.00000  Uiso   1.00
N578   N     0.57595   0.93172   0.03877   0.00000  Uiso   1.00
O579   O     0.57408   0.97459   0.02851   0.00000  Uiso   1.00
O580   O     0.60986   0.91573   0.05725   0.00000  Uiso   1.00
N581   N     0.37670   0.78285   0.18392   0.00000  Uiso   1.00
O582   O     0.37031   0.73980   0.17758   0.00000  Uiso   1.00
O583   O     0.40203   0.80446   0.15782   0.00000  Uiso   1.00
N584   N     0.62330   0.88382   0.31609   0.00000  Uiso   1.00
O585   O     0.62970   0.92687   0.32244   0.00000  Uiso   1.00
O586   O     0.59795   0.86222   0.34217   0.00000  Uiso   1.00
N587   N     0.62216   0.78067   0.18630   0.00000  Uiso   1.00
O588   O     0.60489   0.80142   0.15257   0.00000  Uiso   1.00
O589   O     0.61580   0.73753   0.19207   0.00000  Uiso   1.00
N590   N     0.37784   0.88597   0.31373   0.00000  Uiso   1.00
O591   O     0.39509   0.86521   0.34746   0.00000  Uiso   1.00
O592   O     0.38423   0.92911   0.30796   0.00000  Uiso   1.00
O593   O     0.77226   0.87154   0.24999   0.00000  Uiso   1.00
O594   O     0.89441   0.79513   0.25000   0.00000  Uiso   1.00
O595   O     0.89441   0.87154   0.25000   0.00000  Uiso   1.00
O596   O     0.77226   0.79513   0.24999   0.00000  Uiso   1.00
C597   C     0.75342   0.83348   0.24979   0.00000  Uiso   1.00
C598   C     0.91325   0.83319   0.25021   0.00000  Uiso   1.00
O599   O     0.83333   0.87156   0.18392   0.00000  Uiso   1.00
O600   O     0.83334   0.79511   0.31607   0.00000  Uiso   1.00
O601   O     0.83334   0.87156   0.31607   0.00000  Uiso   1.00
O602   O     0.83333   0.79511   0.18392   0.00000  Uiso   1.00
C603   C     0.83508   0.83342   0.16341   0.00000  Uiso   1.00
C604   C     0.83159   0.83325   0.33659   0.00000  Uiso   1.00
Zn605  Zn    0.83333   0.88437   0.25000   0.00000  Uiso   1.00
Zn606  Zn    0.83333   0.78229   0.25000   0.00000  Uiso   1.00
C607   C     0.84795   0.86878   0.40684   0.00000  Uiso   1.00
C608   C     0.81861   0.79795   0.09315   0.00000  Uiso   1.00
C609   C     0.82862   0.83336   0.38443   0.00000  Uiso   1.00
C610   C     0.83799   0.83334   0.11557   0.00000  Uiso   1.00
C611   C     0.80837   0.79820   0.40754   0.00000  Uiso   1.00
C612   C     0.85820   0.86853   0.09247   0.00000  Uiso   1.00
C613   C     0.80820   0.79892   0.45450   0.00000  Uiso   1.00
C614   C     0.85827   0.86789   0.04550   0.00000  Uiso   1.00
C615   C     0.83130   0.83348   0.47676   0.00000  Uiso   1.00
C616   C     0.83518   0.83332   0.02324   0.00000  Uiso   1.00
C617   C     0.85060   0.86838   0.45258   0.00000  Uiso   1.00
C618   C     0.81589   0.79840   0.04742   0.00000  Uiso   1.00
C619   C     0.78682   0.76597   0.48016   0.00000  Uiso   1.00
C620   C     0.87954   0.90093   0.01984   0.00000  Uiso   1.00
C621   C     0.79225   0.76526   0.02607   0.00000  Uiso   1.00
C622   C     0.87416   0.90159   0.47392   0.00000  Uiso   1.00
H623   H     0.86327   0.89560   0.38839   0.00000  Uiso   1.00
H624   H     0.80331   0.77113   0.11160   0.00000  Uiso   1.00
H625   H     0.77608   0.73980   0.04546   0.00000  Uiso   1.00
H626   H     0.89028   0.92710   0.45455   0.00000  Uiso   1.00
C627   C     0.68802   0.80688   0.21817   0.00000  Uiso   1.00
C628   C     0.97865   0.85979   0.28184   0.00000  Uiso   1.00
C629   C     0.97821   0.80601   0.21917   0.00000  Uiso   1.00
C630   C     0.68846   0.86064   0.28084   0.00000  Uiso   1.00
C631   C     0.95739   0.83273   0.25069   0.00000  Uiso   1.00
C632   C     0.70927   0.83393   0.24932   0.00000  Uiso   1.00
C633   C     0.85740   0.69049   0.27978   0.00000  Uiso   1.00
C634   C     0.80926   0.97618   0.22022   0.00000  Uiso   1.00
C635   C     0.80927   0.69084   0.22021   0.00000  Uiso   1.00
C636   C     0.85739   0.97583   0.27979   0.00000  Uiso   1.00
H637   H     0.87663   0.70857   0.30357   0.00000  Uiso   1.00
H638   H     0.79004   0.95810   0.19643   0.00000  Uiso   1.00
H639   H     0.79008   0.70919   0.19640   0.00000  Uiso   1.00
H640   H     0.87659   0.95748   0.30360   0.00000  Uiso   1.00
N641   N     0.83333   0.95240   0.25000   0.00000  Uiso   1.00
N642   N     0.83333   0.71427   0.25000   0.00000  Uiso   1.00
N643   N     0.79051   0.76101   0.38327   0.00000  Uiso   1.00
O644   O     0.80839   0.72131   0.38478   0.00000  Uiso   1.00
O645   O     0.75939   0.76790   0.35588   0.00000  Uiso   1.00
N646   N     0.87615   0.90564   0.11677   0.00000  Uiso   1.00
O647   O     0.90740   0.89866   0.14396   0.00000  Uiso   1.00
O648   O     0.85815   0.94529   0.11561   0.00000  Uiso   1.00
N649   N     0.75686   0.73540   0.46124   0.00000  Uiso   1.00
O650   O     0.72323   0.75168   0.44244   0.00000  Uiso   1.00
O651   O     0.75823   0.69259   0.47178   0.00000  Uiso   1.00
N652   N     0.90928   0.93172   0.03877   0.00000  Uiso   1.00
O653   O     0.90741   0.97459   0.02851   0.00000  Uiso   1.00
O654   O     0.94319   0.91573   0.05725   0.00000  Uiso   1.00
N655   N     0.71003   0.78285   0.18392   0.00000  Uiso   1.00
O656   O     0.70365   0.73980   0.17758   0.00000  Uiso   1.00
O657   O     0.73536   0.80446   0.15782   0.00000  Uiso   1.00
N658   N     0.95664   0.88382   0.31609   0.00000  Uiso   1.00
O659   O     0.96304   0.92687   0.32244   0.00000  Uiso   1.00
O660   O     0.93128   0.86222   0.34217   0.00000  Uiso   1.00
N661   N     0.95550   0.78067   0.18630   0.00000  Uiso   1.00
O662   O     0.93822   0.80142   0.15257   0.00000  Uiso   1.00
O663   O     0.94913   0.73753   0.19207   0.00000  Uiso   1.00
N664   N     0.71117   0.88597   0.31373   0.00000  Uiso   1.00
O665   O     0.72842   0.86521   0.34746   0.00000  Uiso   1.00
O666   O     0.71756   0.92911   0.30796   0.00000  Uiso   1.00
O667   O     0.10559   0.20487   0.74999   0.00000  Uiso   1.00
O668   O     0.22774   0.12846   0.75000   0.00000  Uiso   1.00
O669   O     0.22774   0.20487   0.75000   0.00000  Uiso   1.00
O670   O     0.10559   0.12846   0.74999   0.00000  Uiso   1.00
C671   C     0.08675   0.16681   0.74979   0.00000  Uiso   1.00
C672   C     0.24658   0.16652   0.75021   0.00000  Uiso   1.00
O673   O     0.16666   0.20489   0.68392   0.00000  Uiso   1.00
O674   O     0.16667   0.12844   0.81607   0.00000  Uiso   1.00
O675   O     0.16667   0.20489   0.81607   0.00000  Uiso   1.00
O676   O     0.16666   0.12844   0.68392   0.00000  Uiso   1.00
C677   C     0.16841   0.16675   0.66341   0.00000  Uiso   1.00
C678   C     0.16492   0.16659   0.83659   0.00000  Uiso   1.00
Zn679  Zn    0.16667   0.21771   0.75000   0.00000  Uiso   1.00
Zn680  Zn    0.16667   0.11563   0.75000   0.00000  Uiso   1.00
C681   C     0.18128   0.20212   0.90684   0.00000  Uiso   1.00
C682   C     0.15194   0.13128   0.59315   0.00000  Uiso   1.00
C683   C     0.16195   0.16669   0.88443   0.00000  Uiso   1.00
C684   C     0.17132   0.16667   0.61557   0.00000  Uiso   1.00
C685   C     0.14170   0.13153   0.90754   0.00000  Uiso   1.00
C686   C     0.19153   0.20186   0.59247   0.00000  Uiso   1.00
C687   C     0.14153   0.13225   0.95450   0.00000  Uiso   1.00
C688   C     0.19161   0.20123   0.54550   0.00000  Uiso   1.00
C689   C     0.16464   0.16681   0.97676   0.00000  Uiso   1.00
C690   C     0.16851   0.16665   0.52324   0.00000  Uiso   1.00
C691   C     0.18394   0.20172   0.95258   0.00000  Uiso   1.00
C692   C     0.14922   0.13174   0.54742   0.00000  Uiso   1.00
C693   C     0.12015   0.09931   0.98016   0.00000  Uiso   1.00
C694   C     0.21287   0.23426   0.51984   0.00000  Uiso   1.00
C695   C     0.12558   0.09859   0.52607   0.00000  Uiso   1.00
C696   C     0.20749   0.23493   0.97392   0.00000  Uiso   1.00
H697   H     0.19660   0.22893   0.88839   0.00000  Uiso   1.00
H698   H     0.13664   0.10446   0.61160   0.00000  Uiso   1.00
H699   H     0.10942   0.07313   0.54546   0.00000  Uiso   1.00
H700   H     0.22361   0.26044   0.95455   0.00000  Uiso   1.00
C701   C     0.02135   0.14021   0.71817   0.00000  Uiso   1.00
C702   C     0.31198   0.19312   0.78184   0.00000  Uiso   1.00
C703   C     0.31154   0.13935   0.71917   0.00000  Uiso   1.00
C704   C     0.02179   0.19398   0.78084   0.00000  Uiso   1.00
C705   C     0.29073   0.16606   0.75069   0.00000  Uiso   1.00
C706   C     0.04261   0.16727   0.74932   0.00000  Uiso   1.00
C707   C     0.19073   0.02382   0.77978   0.00000  Uiso   1.00
C708   C     0.14260   0.30951   0.72022   0.00000  Uiso   1.00
C709   C     0.14261   0.02417   0.72021   0.00000  Uiso   1.00
C710   C     0.19072   0.30916   0.77979   0.00000  Uiso   1.00
H711   H     0.20996   0.04190   0.80357   0.00000  Uiso   1.00
H712   H     0.12337   0.29143   0.69643   0.00000  Uiso   1.00
H713   H     0.12341   0.04252   0.69640   0.00000  Uiso   1.00
H714   H     0.20992   0.29081   0.80360   0.00000  Uiso   1.00
N715   N     0.16667   0.28573   0.75000   0.00000  Uiso   1.00
N716   N     0.16667   0.04760   0.75000   0.00000  Uiso   1.00
N717   N     0.12385   0.09434   0.88327   0.00000  Uiso   1.00
O718   O     0.14173   0.05464   0.88478   0.00000  Uiso   1.00
O719   O     0.09273   0.10123   0.85588   0.00000  Uiso   1.00
N720   N     0.20948   0.23898   0.61677   0.00000  Uiso   1.00
O721   O     0.24074   0.23200   0.64396   0.00000  Uiso   1.00
O722   O     0.19149   0.27862   0.61561   0.00000  Uiso   1.00
N723   N     0.09020   0.06874   0.96124   0.00000  Uiso   1.00
O724   O     0.05656   0.08501   0.94244   0.00000  Uiso   1.00
O725   O     0.09156   0.02593   0.97178   0.00000  Uiso   1.00
N726   N     0.24262   0.26506   0.53877   0.00000  Uiso   1.00
O727   O     0.24074   0.30792   0.52851   0.00000  Uiso   1.00
O728   O     0.27652   0.24906   0.55725   0.00000  Uiso   1.00
N729   N     0.04336   0.11618   0.68392   0.00000  Uiso   1.00
O730   O     0.03698   0.07313   0.67758   0.00000  Uiso   1.00
O731   O     0.06870   0.13780   0.65782   0.00000  Uiso   1.00
N732   N     0.28997   0.21716   0.81609   0.00000  Uiso   1.00
O733   O     0.29637   0.26020   0.82244   0.00000  Uiso   1.00
O734   O     0.26462   0.19555   0.84217   0.00000  Uiso   1.00
N735   N     0.28883   0.11400   0.68630   0.00000  Uiso   1.00
O736   O     0.27156   0.13475   0.65257   0.00000  Uiso   1.00
O737   O     0.28247   0.07086   0.69207   0.00000  Uiso   1.00
N738   N     0.04450   0.21930   0.81373   0.00000  Uiso   1.00
O739   O     0.06175   0.19854   0.84746   0.00000  Uiso   1.00
O740   O     0.05089   0.26244   0.80796   0.00000  Uiso   1.00
O741   O     0.43892   0.20487   0.74999   0.00000  Uiso   1.00
O742   O     0.56108   0.12846   0.75000   0.00000  Uiso   1.00
O743   O     0.56108   0.20487   0.75000   0.00000  Uiso   1.00
O744   O     0.43892   0.12846   0.74999   0.00000  Uiso   1.00
C745   C     0.42008   0.16681   0.74979   0.00000  Uiso   1.00
C746   C     0.57992   0.16652   0.75021   0.00000  Uiso   1.00
O747   O     0.49999   0.20489   0.68392   0.00000  Uiso   1.00
O748   O     0.50001   0.12844   0.81607   0.00000  Uiso   1.00
O749   O     0.50001   0.20489   0.81607   0.00000  Uiso   1.00
O750   O     0.49999   0.12844   0.68392   0.00000  Uiso   1.00
C751   C     0.50174   0.16675   0.66341   0.00000  Uiso   1.00
C752   C     0.49825   0.16659   0.83659   0.00000  Uiso   1.00
Zn753  Zn    0.50000   0.21771   0.75000   0.00000  Uiso   1.00
Zn754  Zn    0.50000   0.11563   0.75000   0.00000  Uiso   1.00
C755   C     0.51462   0.20212   0.90684   0.00000  Uiso   1.00
C756   C     0.48528   0.13128   0.59315   0.00000  Uiso   1.00
C757   C     0.49529   0.16669   0.88443   0.00000  Uiso   1.00
C758   C     0.50466   0.16667   0.61557   0.00000  Uiso   1.00
C759   C     0.47503   0.13153   0.90754   0.00000  Uiso   1.00
C760   C     0.52487   0.20186   0.59247   0.00000  Uiso   1.00
C761   C     0.47486   0.13225   0.95450   0.00000  Uiso   1.00
C762   C     0.52494   0.20123   0.54550   0.00000  Uiso   1.00
C763   C     0.49797   0.16681   0.97676   0.00000  Uiso   1.00
C764   C     0.50185   0.16665   0.52324   0.00000  Uiso   1.00
C765   C     0.51727   0.20172   0.95258   0.00000  Uiso   1.00
C766   C     0.48256   0.13174   0.54742   0.00000  Uiso   1.00
C767   C     0.45349   0.09931   0.98016   0.00000  Uiso   1.00
C768   C     0.54621   0.23426   0.51984   0.00000  Uiso   1.00
C769   C     0.45892   0.09859   0.52607   0.00000  Uiso   1.00
C770   C     0.54083   0.23493   0.97392   0.00000  Uiso   1.00
H771   H     0.52993   0.22893   0.88839   0.00000  Uiso   1.00
H772   H     0.46998   0.10446   0.61160   0.00000  Uiso   1.00
H773   H     0.44275   0.07313   0.54546   0.00000  Uiso   1.00
H774   H     0.55695   0.26044   0.95455   0.00000  Uiso   1.00
C775   C     0.35468   0.14021   0.71817   0.00000  Uiso   1.00
C776   C     0.64532   0.19312   0.78184   0.00000  Uiso   1.00
C777   C     0.64488   0.13935   0.71917   0.00000  Uiso   1.00
C778   C     0.35512   0.19398   0.78084   0.00000  Uiso   1.00
C779   C     0.62406   0.16606   0.75069   0.00000  Uiso   1.00
C780   C     0.37594   0.16727   0.74932   0.00000  Uiso   1.00
C781   C     0.52407   0.02382   0.77978   0.00000  Uiso   1.00
C782   C     0.47593   0.30951   0.72022   0.00000  Uiso   1.00
C783   C     0.47594   0.02417   0.72021   0.00000  Uiso   1.00
C784   C     0.52406   0.30916   0.77979   0.00000  Uiso   1.00
H785   H     0.54330   0.04190   0.80357   0.00000  Uiso   1.00
H786   H     0.45670   0.29143   0.69643   0.00000  Uiso   1.00
H787   H     0.45674   0.04252   0.69640   0.00000  Uiso   1.00
H788   H     0.54326   0.29081   0.80360   0.00000  Uiso   1.00
N789   N     0.50000   0.28573   0.75000   0.00000  Uiso   1.00
N790   N     0.50000   0.04760   0.75000   0.00000  Uiso   1.00
N791   N     0.45718   0.09434   0.88327   0.00000  Uiso   1.00
O792   O     0.47506   0.05464   0.88478   0.00000  Uiso   1.00
O793   O     0.42606   0.10123   0.85588   0.00000  Uiso   1.00
N794   N     0.54282   0.23898   0.61677   0.00000  Uiso   1.00
O795   O     0.57407   0.23200   0.64396   0.00000  Uiso   1.00
O796   O     0.52482   0.27862   0.61561   0.00000  Uiso   1.00
N797   N     0.42353   0.06874   0.96124   0.00000  Uiso   1.00
O798   O     0.38989   0.08501   0.94244   0.00000  Uiso   1.00
O799   O     0.42490   0.02593   0.97178   0.00000  Uiso   1.00
N800   N     0.57595   0.26506   0.53877   0.00000  Uiso   1.00
O801   O     0.57408   0.30792   0.52851   0.00000  Uiso   1.00
O802   O     0.60986   0.24906   0.55725   0.00000  Uiso   1.00
N803   N     0.37670   0.11618   0.68392   0.00000  Uiso   1.00
O804   O     0.37031   0.07313   0.67758   0.00000  Uiso   1.00
O805   O     0.40203   0.13780   0.65782   0.00000  Uiso   1.00
N806   N     0.62330   0.21716   0.81609   0.00000  Uiso   1.00
O807   O     0.62970   0.26020   0.82244   0.00000  Uiso   1.00
O808   O     0.59795   0.19555   0.84217   0.00000  Uiso   1.00
N809   N     0.62216   0.11400   0.68630   0.00000  Uiso   1.00
O810   O     0.60489   0.13475   0.65257   0.00000  Uiso   1.00
O811   O     0.61580   0.07086   0.69207   0.00000  Uiso   1.00
N812   N     0.37784   0.21930   0.81373   0.00000  Uiso   1.00
O813   O     0.39509   0.19854   0.84746   0.00000  Uiso   1.00
O814   O     0.38423   0.26244   0.80796   0.00000  Uiso   1.00
O815   O     0.77226   0.20487   0.74999   0.00000  Uiso   1.00
O816   O     0.89441   0.12846   0.75000   0.00000  Uiso   1.00
O817   O     0.89441   0.20487   0.75000   0.00000  Uiso   1.00
O818   O     0.77226   0.12846   0.74999   0.00000  Uiso   1.00
C819   C     0.75342   0.16681   0.74979   0.00000  Uiso   1.00
C820   C     0.91325   0.16652   0.75021   0.00000  Uiso   1.00
O821   O     0.83333   0.20489   0.68392   0.00000  Uiso   1.00
O822   O     0.83334   0.12844   0.81607   0.00000  Uiso   1.00
O823   O     0.83334   0.20489   0.81607   0.00000  Uiso   1.00
O824   O     0.83333   0.12844   0.68392   0.00000  Uiso   1.00
C825   C     0.83508   0.16675   0.66341   0.00000  Uiso   1.00
C826   C     0.83159   0.16659   0.83659   0.00000  Uiso   1.00
Zn827  Zn    0.83333   0.21771   0.75000   0.00000  Uiso   1.00
Zn828  Zn    0.83333   0.11563   0.75000   0.00000  Uiso   1.00
C829   C     0.84795   0.20212   0.90684   0.00000  Uiso   1.00
C830   C     0.81861   0.13128   0.59315   0.00000  Uiso   1.00
C831   C     0.82862   0.16669   0.88443   0.00000  Uiso   1.00
C832   C     0.83799   0.16667   0.61557   0.00000  Uiso   1.00
C833   C     0.80837   0.13153   0.90754   0.00000  Uiso   1.00
C834   C     0.85820   0.20186   0.59247   0.00000  Uiso   1.00
C835   C     0.80820   0.13225   0.95450   0.00000  Uiso   1.00
C836   C     0.85827   0.20123   0.54550   0.00000  Uiso   1.00
C837   C     0.83130   0.16681   0.97676   0.00000  Uiso   1.00
C838   C     0.83518   0.16665   0.52324   0.00000  Uiso   1.00
C839   C     0.85060   0.20172   0.95258   0.00000  Uiso   1.00
C840   C     0.81589   0.13174   0.54742   0.00000  Uiso   1.00
C841   C     0.78682   0.09931   0.98016   0.00000  Uiso   1.00
C842   C     0.87954   0.23426   0.51984   0.00000  Uiso   1.00
C843   C     0.79225   0.09859   0.52607   0.00000  Uiso   1.00
C844   C     0.87416   0.23493   0.97392   0.00000  Uiso   1.00
H845   H     0.86327   0.22893   0.88839   0.00000  Uiso   1.00
H846   H     0.80331   0.10446   0.61160   0.00000  Uiso   1.00
H847   H     0.77608   0.07313   0.54546   0.00000  Uiso   1.00
H848   H     0.89028   0.26044   0.95455   0.00000  Uiso   1.00
C849   C     0.68802   0.14021   0.71817   0.00000  Uiso   1.00
C850   C     0.97865   0.19312   0.78184   0.00000  Uiso   1.00
C851   C     0.97821   0.13935   0.71917   0.00000  Uiso   1.00
C852   C     0.68846   0.19398   0.78084   0.00000  Uiso   1.00
C853   C     0.95739   0.16606   0.75069   0.00000  Uiso   1.00
C854   C     0.70927   0.16727   0.74932   0.00000  Uiso   1.00
C855   C     0.85740   0.02382   0.77978   0.00000  Uiso   1.00
C856   C     0.80926   0.30951   0.72022   0.00000  Uiso   1.00
C857   C     0.80927   0.02417   0.72021   0.00000  Uiso   1.00
C858   C     0.85739   0.30916   0.77979   0.00000  Uiso   1.00
H859   H     0.87663   0.04190   0.80357   0.00000  Uiso   1.00
H860   H     0.79004   0.29143   0.69643   0.00000  Uiso   1.00
H861   H     0.79008   0.04252   0.69640   0.00000  Uiso   1.00
H862   H     0.87659   0.29081   0.80360   0.00000  Uiso   1.00
N863   N     0.83333   0.28573   0.75000   0.00000  Uiso   1.00
N864   N     0.83333   0.04760   0.75000   0.00000  Uiso   1.00
N865   N     0.79051   0.09434   0.88327   0.00000  Uiso   1.00
O866   O     0.80839   0.05464   0.88478   0.00000  Uiso   1.00
O867   O     0.75939   0.10123   0.85588   0.00000  Uiso   1.00
N868   N     0.87615   0.23898   0.61677   0.00000  Uiso   1.00
O869   O     0.90740   0.23200   0.64396   0.00000  Uiso   1.00
O870   O     0.85815   0.27862   0.61561   0.00000  Uiso   1.00
N871   N     0.75686   0.06874   0.96124   0.00000  Uiso   1.00
O872   O     0.72323   0.08501   0.94244   0.00000  Uiso   1.00
O873   O     0.75823   0.02593   0.97178   0.00000  Uiso   1.00
N874   N     0.90928   0.26506   0.53877   0.00000  Uiso   1.00
O875   O     0.90741   0.30792   0.52851   0.00000  Uiso   1.00
O876   O     0.94319   0.24906   0.55725   0.00000  Uiso   1.00
N877   N     0.71003   0.11618   0.68392   0.00000  Uiso   1.00
O878   O     0.70365   0.07313   0.67758   0.00000  Uiso   1.00
O879   O     0.73536   0.13780   0.65782   0.00000  Uiso   1.00
N880   N     0.95664   0.21716   0.81609   0.00000  Uiso   1.00
O881   O     0.96304   0.26020   0.82244   0.00000  Uiso   1.00
O882   O     0.93128   0.19555   0.84217   0.00000  Uiso   1.00
N883   N     0.95550   0.11400   0.68630   0.00000  Uiso   1.00
O884   O     0.93822   0.13475   0.65257   0.00000  Uiso   1.00
O885   O     0.94913   0.07086   0.69207   0.00000  Uiso   1.00
N886   N     0.71117   0.21930   0.81373   0.00000  Uiso   1.00
O887   O     0.72842   0.19854   0.84746   0.00000  Uiso   1.00
O888   O     0.71756   0.26244   0.80796   0.00000  Uiso   1.00
O889   O     0.10559   0.53821   0.74999   0.00000  Uiso   1.00
O890   O     0.22774   0.46179   0.75000   0.00000  Uiso   1.00
O891   O     0.22774   0.53821   0.75000   0.00000  Uiso   1.00
O892   O     0.10559   0.46179   0.74999   0.00000  Uiso   1.00
C893   C     0.08675   0.50014   0.74979   0.00000  Uiso   1.00
C894   C     0.24658   0.49986   0.75021   0.00000  Uiso   1.00
O895   O     0.16666   0.53823   0.68392   0.00000  Uiso   1.00
O896   O     0.16667   0.46177   0.81607   0.00000  Uiso   1.00
O897   O     0.16667   0.53823   0.81607   0.00000  Uiso   1.00
O898   O     0.16666   0.46177   0.68392   0.00000  Uiso   1.00
C899   C     0.16841   0.50008   0.66341   0.00000  Uiso   1.00
C900   C     0.16492   0.49992   0.83659   0.00000  Uiso   1.00
Zn901  Zn    0.16667   0.55104   0.75000   0.00000  Uiso   1.00
Zn902  Zn    0.16667   0.44896   0.75000   0.00000  Uiso   1.00
C903   C     0.18128   0.53545   0.90684   0.00000  Uiso   1.00
C904   C     0.15194   0.46462   0.59315   0.00000  Uiso   1.00
C905   C     0.16195   0.50002   0.88443   0.00000  Uiso   1.00
C906   C     0.17132   0.50000   0.61557   0.00000  Uiso   1.00
C907   C     0.14170   0.46487   0.90754   0.00000  Uiso   1.00
C908   C     0.19153   0.53519   0.59247   0.00000  Uiso   1.00
C909   C     0.14153   0.46558   0.95450   0.00000  Uiso   1.00
C910   C     0.19161   0.53456   0.54550   0.00000  Uiso   1.00
C911   C     0.16464   0.50015   0.97676   0.00000  Uiso   1.00
C912   C     0.16851   0.49999   0.52324   0.00000  Uiso   1.00
C913   C     0.18394   0.53505   0.95258   0.00000  Uiso   1.00
C914   C     0.14922   0.46507   0.54742   0.00000  Uiso   1.00
C915   C     0.12015   0.43264   0.98016   0.00000  Uiso   1.00
C916   C     0.21287   0.56759   0.51984   0.00000  Uiso   1.00
C917   C     0.12558   0.43193   0.52607   0.00000  Uiso   1.00
C918   C     0.20749   0.56826   0.97392   0.00000  Uiso   1.00
H919   H     0.19660   0.56226   0.88839   0.00000  Uiso   1.00
H920   H     0.13664   0.43779   0.61160   0.00000  Uiso   1.00
H921   H     0.10942   0.40646   0.54546   0.00000  Uiso   1.00
H922   H     0.22361   0.59377   0.95455   0.00000  Uiso   1.00
C923   C     0.02135   0.47354   0.71817   0.00000  Uiso   1.00
C924   C     0.31198   0.52645   0.78184   0.00000  Uiso   1.00
C925   C     0.31154   0.47268   0.71917   0.00000  Uiso   1.00
C926   C     0.02179   0.52731   0.78084   0.00000  Uiso   1.00
C927   C     0.29073   0.49940   0.75069   0.00000  Uiso   1.00
C928   C     0.04261   0.50060   0.74932   0.00000  Uiso   1.00
C929   C     0.19073   0.35716   0.77978   0.00000  Uiso   1.00
C930   C     0.14260   0.64284   0.72022   0.00000  Uiso   1.00
C931   C     0.14261   0.35750   0.72021   0.00000  Uiso   1.00
C932   C     0.19072   0.64250   0.77979   0.00000  Uiso   1.00
H933   H     0.20996   0.37523   0.80357   0.00000  Uiso   1.00
H934   H     0.12337   0.62476   0.69643   0.00000  Uiso   1.00
H935   H     0.12341   0.37586   0.69640   0.00000  Uiso   1.00
H936   H     0.20992   0.62414   0.80360   0.00000  Uiso   1.00
N937   N     0.16667   0.61907   0.75000   0.00000  Uiso   1.00
N938   N     0.16667   0.38093   0.75000   0.00000  Uiso   1.00
N939   N     0.12385   0.42767   0.88327   0.00000  Uiso   1.00
O940   O     0.14173   0.38798   0.88478   0.00000  Uiso   1.00
O941   O     0.09273   0.43456   0.85588   0.00000  Uiso   1.00
N942   N     0.20948   0.57231   0.61677   0.00000  Uiso   1.00
O943   O     0.24074   0.56533   0.64396   0.00000  Uiso   1.00
O944   O     0.19149   0.61196   0.61561   0.00000  Uiso   1.00
N945   N     0.09020   0.40207   0.96124   0.00000  Uiso   1.00
O946   O     0.05656   0.41834   0.94244   0.00000  Uiso   1.00
O947   O     0.09156   0.35926   0.97178   0.00000  Uiso   1.00
N948   N     0.24262   0.59839   0.53877   0.00000  Uiso   1.00
O949   O     0.24074   0.64125   0.52851   0.00000  Uiso   1.00
O950   O     0.27652   0.58239   0.55725   0.00000  Uiso   1.00
N951   N     0.04336   0.44951   0.68392   0.00000  Uiso   1.00
O952   O     0.03698   0.40646   0.67758   0.00000  Uiso   1.00
O953   O     0.06870   0.47113   0.65782   0.00000  Uiso   1.00
N954   N     0.28997   0.55049   0.81609   0.00000  Uiso   1.00
O955   O     0.29637   0.59354   0.82244   0.00000  Uiso   1.00
O956   O     0.26462   0.52888   0.84217   0.00000  Uiso   1.00
N957   N     0.28883   0.44733   0.68630   0.00000  Uiso   1.00
O958   O     0.27156   0.46808   0.65257   0.00000  Uiso   1.00
O959   O     0.28247   0.40419   0.69207   0.00000  Uiso   1.00
N960   N     0.04450   0.55264   0.81373   0.00000  Uiso   1.00
O961   O     0.06175   0.53187   0.84746   0.00000  Uiso   1.00
O962   O     0.05089   0.59578   0.80796   0.00000  Uiso   1.00
O963   O     0.43892   0.53821   0.74999   0.00000  Uiso   1.00
O964   O     0.56108   0.46179   0.75000   0.00000  Uiso   1.00
O965   O     0.56108   0.53821   0.75000   0.00000  Uiso   1.00
O966   O     0.43892   0.46179   0.74999   0.00000  Uiso   1.00
C967   C     0.42008   0.50014   0.74979   0.00000  Uiso   1.00
C968   C     0.57992   0.49986   0.75021   0.00000  Uiso   1.00
O969   O     0.49999   0.53823   0.68392   0.00000  Uiso   1.00
O970   O     0.50001   0.46177   0.81607   0.00000  Uiso   1.00
O971   O     0.50001   0.53823   0.81607   0.00000  Uiso   1.00
O972   O     0.49999   0.46177   0.68392   0.00000  Uiso   1.00
C973   C     0.50174   0.50008   0.66341   0.00000  Uiso   1.00
C974   C     0.49825   0.49992   0.83659   0.00000  Uiso   1.00
Zn975  Zn    0.50000   0.55104   0.75000   0.00000  Uiso   1.00
Zn976  Zn    0.50000   0.44896   0.75000   0.00000  Uiso   1.00
C977   C     0.51462   0.53545   0.90684   0.00000  Uiso   1.00
C978   C     0.48528   0.46462   0.59315   0.00000  Uiso   1.00
C979   C     0.49529   0.50002   0.88443   0.00000  Uiso   1.00
C980   C     0.50466   0.50000   0.61557   0.00000  Uiso   1.00
C981   C     0.47503   0.46487   0.90754   0.00000  Uiso   1.00
C982   C     0.52487   0.53519   0.59247   0.00000  Uiso   1.00
C983   C     0.47486   0.46558   0.95450   0.00000  Uiso   1.00
C984   C     0.52494   0.53456   0.54550   0.00000  Uiso   1.00
C985   C     0.49797   0.50015   0.97676   0.00000  Uiso   1.00
C986   C     0.50185   0.49999   0.52324   0.00000  Uiso   1.00
C987   C     0.51727   0.53505   0.95258   0.00000  Uiso   1.00
C988   C     0.48256   0.46507   0.54742   0.00000  Uiso   1.00
C989   C     0.45349   0.43264   0.98016   0.00000  Uiso   1.00
C990   C     0.54621   0.56759   0.51984   0.00000  Uiso   1.00
C991   C     0.45892   0.43193   0.52607   0.00000  Uiso   1.00
C992   C     0.54083   0.56826   0.97392   0.00000  Uiso   1.00
H993   H     0.52993   0.56226   0.88839   0.00000  Uiso   1.00
H994   H     0.46998   0.43779   0.61160   0.00000  Uiso   1.00
H995   H     0.44275   0.40646   0.54546   0.00000  Uiso   1.00
H996   H     0.55695   0.59377   0.95455   0.00000  Uiso   1.00
C997   C     0.35468   0.47354   0.71817   0.00000  Uiso   1.00
C998   C     0.64532   0.52645   0.78184   0.00000  Uiso   1.00
C999   C     0.64488   0.47268   0.71917   0.00000  Uiso   1.00
C1000  C     0.35512   0.52731   0.78084   0.00000  Uiso   1.00
C1001  C     0.62406   0.49940   0.75069   0.00000  Uiso   1.00
C1002  C     0.37594   0.50060   0.74932   0.00000  Uiso   1.00
C1003  C     0.52407   0.35716   0.77978   0.00000  Uiso   1.00
C1004  C     0.47593   0.64284   0.72022   0.00000  Uiso   1.00
C1005  C     0.47594   0.35750   0.72021   0.00000  Uiso   1.00
C1006  C     0.52406   0.64250   0.77979   0.00000  Uiso   1.00
H1007  H     0.54330   0.37523   0.80357   0.00000  Uiso   1.00
H1008  H     0.45670   0.62476   0.69643   0.00000  Uiso   1.00
H1009  H     0.45674   0.37586   0.69640   0.00000  Uiso   1.00
H1010  H     0.54326   0.62414   0.80360   0.00000  Uiso   1.00
N1011  N     0.50000   0.61907   0.75000   0.00000  Uiso   1.00
N1012  N     0.50000   0.38093   0.75000   0.00000  Uiso   1.00
N1013  N     0.45718   0.42767   0.88327   0.00000  Uiso   1.00
O1014  O     0.47506   0.38798   0.88478   0.00000  Uiso   1.00
O1015  O     0.42606   0.43456   0.85588   0.00000  Uiso   1.00
N1016  N     0.54282   0.57231   0.61677   0.00000  Uiso   1.00
O1017  O     0.57407   0.56533   0.64396   0.00000  Uiso   1.00
O1018  O     0.52482   0.61196   0.61561   0.00000  Uiso   1.00
N1019  N     0.42353   0.40207   0.96124   0.00000  Uiso   1.00
O1020  O     0.38989   0.41834   0.94244   0.00000  Uiso   1.00
O1021  O     0.42490   0.35926   0.97178   0.00000  Uiso   1.00
N1022  N     0.57595   0.59839   0.53877   0.00000  Uiso   1.00
O1023  O     0.57408   0.64125   0.52851   0.00000  Uiso   1.00
O1024  O     0.60986   0.58239   0.55725   0.00000  Uiso   1.00
N1025  N     0.37670   0.44951   0.68392   0.00000  Uiso   1.00
O1026  O     0.37031   0.40646   0.67758   0.00000  Uiso   1.00
O1027  O     0.40203   0.47113   0.65782   0.00000  Uiso   1.00
N1028  N     0.62330   0.55049   0.81609   0.00000  Uiso   1.00
O1029  O     0.62970   0.59354   0.82244   0.00000  Uiso   1.00
O1030  O     0.59795   0.52888   0.84217   0.00000  Uiso   1.00
N1031  N     0.62216   0.44733   0.68630   0.00000  Uiso   1.00
O1032  O     0.60489   0.46808   0.65257   0.00000  Uiso   1.00
O1033  O     0.61580   0.40419   0.69207   0.00000  Uiso   1.00
N1034  N     0.37784   0.55264   0.81373   0.00000  Uiso   1.00
O1035  O     0.39509   0.53187   0.84746   0.00000  Uiso   1.00
O1036  O     0.38423   0.59578   0.80796   0.00000  Uiso   1.00
O1037  O     0.77226   0.53821   0.74999   0.00000  Uiso   1.00
O1038  O     0.89441   0.46179   0.75000   0.00000  Uiso   1.00
O1039  O     0.89441   0.53821   0.75000   0.00000  Uiso   1.00
O1040  O     0.77226   0.46179   0.74999   0.00000  Uiso   1.00
C1041  C     0.75342   0.50014   0.74979   0.00000  Uiso   1.00
C1042  C     0.91325   0.49986   0.75021   0.00000  Uiso   1.00
O1043  O     0.83333   0.53823   0.68392   0.00000  Uiso   1.00
O1044  O     0.83334   0.46177   0.81607   0.00000  Uiso   1.00
O1045  O     0.83334   0.53823   0.81607   0.00000  Uiso   1.00
O1046  O     0.83333   0.46177   0.68392   0.00000  Uiso   1.00
C1047  C     0.83508   0.50008   0.66341   0.00000  Uiso   1.00
C1048  C     0.83159   0.49992   0.83659   0.00000  Uiso   1.00
Zn1049 Zn    0.83333   0.55104   0.75000   0.00000  Uiso   1.00
Zn1050 Zn    0.83333   0.44896   0.75000   0.00000  Uiso   1.00
C1051  C     0.84795   0.53545   0.90684   0.00000  Uiso   1.00
C1052  C     0.81861   0.46462   0.59315   0.00000  Uiso   1.00
C1053  C     0.82862   0.50002   0.88443   0.00000  Uiso   1.00
C1054  C     0.83799   0.50000   0.61557   0.00000  Uiso   1.00
C1055  C     0.80837   0.46487   0.90754   0.00000  Uiso   1.00
C1056  C     0.85820   0.53519   0.59247   0.00000  Uiso   1.00
C1057  C     0.80820   0.46558   0.95450   0.00000  Uiso   1.00
C1058  C     0.85827   0.53456   0.54550   0.00000  Uiso   1.00
C1059  C     0.83130   0.50015   0.97676   0.00000  Uiso   1.00
C1060  C     0.83518   0.49999   0.52324   0.00000  Uiso   1.00
C1061  C     0.85060   0.53505   0.95258   0.00000  Uiso   1.00
C1062  C     0.81589   0.46507   0.54742   0.00000  Uiso   1.00
C1063  C     0.78682   0.43264   0.98016   0.00000  Uiso   1.00
C1064  C     0.87954   0.56759   0.51984   0.00000  Uiso   1.00
C1065  C     0.79225   0.43193   0.52607   0.00000  Uiso   1.00
C1066  C     0.87416   0.56826   0.97392   0.00000  Uiso   1.00
H1067  H     0.86327   0.56226   0.88839   0.00000  Uiso   1.00
H1068  H     0.80331   0.43779   0.61160   0.00000  Uiso   1.00
H1069  H     0.77608   0.40646   0.54546   0.00000  Uiso   1.00
H1070  H     0.89028   0.59377   0.95455   0.00000  Uiso   1.00
C1071  C     0.68802   0.47354   0.71817   0.00000  Uiso   1.00
C1072  C     0.97865   0.52645   0.78184   0.00000  Uiso   1.00
C1073  C     0.97821   0.47268   0.71917   0.00000  Uiso   1.00
C1074  C     0.68846   0.52731   0.78084   0.00000  Uiso   1.00
C1075  C     0.95739   0.49940   0.75069   0.00000  Uiso   1.00
C1076  C     0.70927   0.50060   0.74932   0.00000  Uiso   1.00
C1077  C     0.85740   0.35716   0.77978   0.00000  Uiso   1.00
C1078  C     0.80926   0.64284   0.72022   0.00000  Uiso   1.00
C1079  C     0.80927   0.35750   0.72021   0.00000  Uiso   1.00
C1080  C     0.85739   0.64250   0.77979   0.00000  Uiso   1.00
H1081  H     0.87663   0.37523   0.80357   0.00000  Uiso   1.00
H1082  H     0.79004   0.62476   0.69643   0.00000  Uiso   1.00
H1083  H     0.79008   0.37586   0.69640   0.00000  Uiso   1.00
H1084  H     0.87659   0.62414   0.80360   0.00000  Uiso   1.00
N1085  N     0.83333   0.61907   0.75000   0.00000  Uiso   1.00
N1086  N     0.83333   0.38093   0.75000   0.00000  Uiso   1.00
N1087  N     0.79051   0.42767   0.88327   0.00000  Uiso   1.00
O1088  O     0.80839   0.38798   0.88478   0.00000  Uiso   1.00
O1089  O     0.75939   0.43456   0.85588   0.00000  Uiso   1.00
N1090  N     0.87615   0.57231   0.61677   0.00000  Uiso   1.00
O1091  O     0.90740   0.56533   0.64396   0.00000  Uiso   1.00
O1092  O     0.85815   0.61196   0.61561   0.00000  Uiso   1.00
N1093  N     0.75686   0.40207   0.96124   0.00000  Uiso   1.00
O1094  O     0.72323   0.41834   0.94244   0.00000  Uiso   1.00
O1095  O     0.75823   0.35926   0.97178   0.00000  Uiso   1.00
N1096  N     0.90928   0.59839   0.53877   0.00000  Uiso   1.00
O1097  O     0.90741   0.64125   0.52851   0.00000  Uiso   1.00
O1098  O     0.94319   0.58239   0.55725   0.00000  Uiso   1.00
N1099  N     0.71003   0.44951   0.68392   0.00000  Uiso   1.00
O1100  O     0.70365   0.40646   0.67758   0.00000  Uiso   1.00
O1101  O     0.73536   0.47113   0.65782   0.00000  Uiso   1.00
N1102  N     0.95664   0.55049   0.81609   0.00000  Uiso   1.00
O1103  O     0.96304   0.59354   0.82244   0.00000  Uiso   1.00
O1104  O     0.93128   0.52888   0.84217   0.00000  Uiso   1.00
N1105  N     0.95550   0.44733   0.68630   0.00000  Uiso   1.00
O1106  O     0.93822   0.46808   0.65257   0.00000  Uiso   1.00
O1107  O     0.94913   0.40419   0.69207   0.00000  Uiso   1.00
N1108  N     0.71117   0.55264   0.81373   0.00000  Uiso   1.00
O1109  O     0.72842   0.53187   0.84746   0.00000  Uiso   1.00
O1110  O     0.71756   0.59578   0.80796   0.00000  Uiso   1.00
O1111  O     0.10559   0.87154   0.74999   0.00000  Uiso   1.00
O1112  O     0.22774   0.79513   0.75000   0.00000  Uiso   1.00
O1113  O     0.22774   0.87154   0.75000   0.00000  Uiso   1.00
O1114  O     0.10559   0.79513   0.74999   0.00000  Uiso   1.00
C1115  C     0.08675   0.83348   0.74979   0.00000  Uiso   1.00
C1116  C     0.24658   0.83319   0.75021   0.00000  Uiso   1.00
O1117  O     0.16666   0.87156   0.68392   0.00000  Uiso   1.00
O1118  O     0.16667   0.79511   0.81607   0.00000  Uiso   1.00
O1119  O     0.16667   0.87156   0.81607   0.00000  Uiso   1.00
O1120  O     0.16666   0.79511   0.68392   0.00000  Uiso   1.00
C1121  C     0.16841   0.83342   0.66341   0.00000  Uiso   1.00
C1122  C     0.16492   0.83325   0.83659   0.00000  Uiso   1.00
Zn1123 Zn    0.16667   0.88437   0.75000   0.00000  Uiso   1.00
Zn1124 Zn    0.16667   0.78229   0.75000   0.00000  Uiso   1.00
C1125  C     0.18128   0.86878   0.90684   0.00000  Uiso   1.00
C1126  C     0.15194   0.79795   0.59315   0.00000  Uiso   1.00
C1127  C     0.16195   0.83336   0.88443   0.00000  Uiso   1.00
C1128  C     0.17132   0.83334   0.61557   0.00000  Uiso   1.00
C1129  C     0.14170   0.79820   0.90754   0.00000  Uiso   1.00
C1130  C     0.19153   0.86853   0.59247   0.00000  Uiso   1.00
C1131  C     0.14153   0.79892   0.95450   0.00000  Uiso   1.00
C1132  C     0.19161   0.86789   0.54550   0.00000  Uiso   1.00
C1133  C     0.16464   0.83348   0.97676   0.00000  Uiso   1.00
C1134  C     0.16851   0.83332   0.52324   0.00000  Uiso   1.00
C1135  C     0.18394   0.86838   0.95258   0.00000  Uiso   1.00
C1136  C     0.14922   0.79840   0.54742   0.00000  Uiso   1.00
C1137  C     0.12015   0.76597   0.98016   0.00000  Uiso   1.00
C1138  C     0.21287   0.90093   0.51984   0.00000  Uiso   1.00
C1139  C     0.12558   0.76526   0.52607   0.00000  Uiso   1.00
C1140  C     0.20749   0.90159   0.97392   0.00000  Uiso   1.00
H1141  H     0.19660   0.89560   0.88839   0.00000  Uiso   1.00
H1142  H     0.13664   0.77113   0.61160   0.00000  Uiso   1.00
H1143  H     0.10942   0.73980   0.54546   0.00000  Uiso   1.00
H1144  H     0.22361   0.92710   0.95455   0.00000  Uiso   1.00
C1145  C     0.02135   0.80688   0.71817   0.00000  Uiso   1.00
C1146  C     0.31198   0.85979   0.78184   0.00000  Uiso   1.00
C1147  C     0.31154   0.80601   0.71917   0.00000  Uiso   1.00
C1148  C     0.02179   0.86064   0.78084   0.00000  Uiso   1.00
C1149  C     0.29073   0.83273   0.75069   0.00000  Uiso   1.00
C1150  C     0.04261   0.83393   0.74932   0.00000  Uiso   1.00
C1151  C     0.19073   0.69049   0.77978   0.00000  Uiso   1.00
C1152  C     0.14260   0.97618   0.72022   0.00000  Uiso   1.00
C1153  C     0.14261   0.69084   0.72021   0.00000  Uiso   1.00
C1154  C     0.19072   0.97583   0.77979   0.00000  Uiso   1.00
H1155  H     0.20996   0.70857   0.80357   0.00000  Uiso   1.00
H1156  H     0.12337   0.95810   0.69643   0.00000  Uiso   1.00
H1157  H     0.12341   0.70919   0.69640   0.00000  Uiso   1.00
H1158  H     0.20992   0.95748   0.80360   0.00000  Uiso   1.00
N1159  N     0.16667   0.95240   0.75000   0.00000  Uiso   1.00
N1160  N     0.16667   0.71427   0.75000   0.00000  Uiso   1.00
N1161  N     0.12385   0.76101   0.88327   0.00000  Uiso   1.00
O1162  O     0.14173   0.72131   0.88478   0.00000  Uiso   1.00
O1163  O     0.09273   0.76790   0.85588   0.00000  Uiso   1.00
N1164  N     0.20948   0.90564   0.61677   0.00000  Uiso   1.00
O1165  O     0.24074   0.89866   0.64396   0.00000  Uiso   1.00
O1166  O     0.19149   0.94529   0.61561   0.00000  Uiso   1.00
N1167  N     0.09020   0.73540   0.96124   0.00000  Uiso   1.00
O1168  O     0.05656   0.75168   0.94244   0.00000  Uiso   1.00
O1169  O     0.09156   0.69259   0.97178   0.00000  Uiso   1.00
N1170  N     0.24262   0.93172   0.53877   0.00000  Uiso   1.00
O1171  O     0.24074   0.97459   0.52851   0.00000  Uiso   1.00
O1172  O     0.27652   0.91573   0.55725   0.00000  Uiso   1.00
N1173  N     0.04336   0.78285   0.68392   0.00000  Uiso   1.00
O1174  O     0.03698   0.73980   0.67758   0.00000  Uiso   1.00
O1175  O     0.06870   0.80446   0.65782   0.00000  Uiso   1.00
N1176  N     0.28997   0.88382   0.81609   0.00000  Uiso   1.00
O1177  O     0.29637   0.92687   0.82244   0.00000  Uiso   1.00
O1178  O     0.26462   0.86222   0.84217   0.00000  Uiso   1.00
N1179  N     0.28883   0.78067   0.68630   0.00000  Uiso   1.00
O1180  O     0.27156   0.80142   0.65257   0.00000  Uiso   1.00
O1181  O     0.28247   0.73753   0.69207   0.00000  Uiso   1.00
N1182  N     0.04450   0.88597   0.81373   0.00000  Uiso   1.00
O1183  O     0.06175   0.86521   0.84746   0.00000  Uiso   1.00
O1184  O     0.05089   0.92911   0.80796   0.00000  Uiso   1.00
O1185  O     0.43892   0.87154   0.74999   0.00000  Uiso   1.00
O1186  O     0.56108   0.79513   0.75000   0.00000  Uiso   1.00
O1187  O     0.56108   0.87154   0.75000   0.00000  Uiso   1.00
O1188  O     0.43892   0.79513   0.74999   0.00000  Uiso   1.00
C1189  C     0.42008   0.83348   0.74979   0.00000  Uiso   1.00
C1190  C     0.57992   0.83319   0.75021   0.00000  Uiso   1.00
O1191  O     0.49999   0.87156   0.68392   0.00000  Uiso   1.00
O1192  O     0.50001   0.79511   0.81607   0.00000  Uiso   1.00
O1193  O     0.50001   0.87156   0.81607   0.00000  Uiso   1.00
O1194  O     0.49999   0.79511   0.68392   0.00000  Uiso   1.00
C1195  C     0.50174   0.83342   0.66341   0.00000  Uiso   1.00
C1196  C     0.49825   0.83325   0.83659   0.00000  Uiso   1.00
Zn1197 Zn    0.50000   0.88437   0.75000   0.00000  Uiso   1.00
Zn1198 Zn    0.50000   0.78229   0.75000   0.00000  Uiso   1.00
C1199  C     0.51462   0.86878   0.90684   0.00000  Uiso   1.00
C1200  C     0.48528   0.79795   0.59315   0.00000  Uiso   1.00
C1201  C     0.49529   0.83336   0.88443   0.00000  Uiso   1.00
C1202  C     0.50466   0.83334   0.61557   0.00000  Uiso   1.00
C1203  C     0.47503   0.79820   0.90754   0.00000  Uiso   1.00
C1204  C     0.52487   0.86853   0.59247   0.00000  Uiso   1.00
C1205  C     0.47486   0.79892   0.95450   0.00000  Uiso   1.00
C1206  C     0.52494   0.86789   0.54550   0.00000  Uiso   1.00
C1207  C     0.49797   0.83348   0.97676   0.00000  Uiso   1.00
C1208  C     0.50185   0.83332   0.52324   0.00000  Uiso   1.00
C1209  C     0.51727   0.86838   0.95258   0.00000  Uiso   1.00
C1210  C     0.48256   0.79840   0.54742   0.00000  Uiso   1.00
C1211  C     0.45349   0.76597   0.98016   0.00000  Uiso   1.00
C1212  C     0.54621   0.90093   0.51984   0.00000  Uiso   1.00
C1213  C     0.45892   0.76526   0.52607   0.00000  Uiso   1.00
C1214  C     0.54083   0.90159   0.97392   0.00000  Uiso   1.00
H1215  H     0.52993   0.89560   0.88839   0.00000  Uiso   1.00
H1216  H     0.46998   0.77113   0.61160   0.00000  Uiso   1.00
H1217  H     0.44275   0.73980   0.54546   0.00000  Uiso   1.00
H1218  H     0.55695   0.92710   0.95455   0.00000  Uiso   1.00
C1219  C     0.35468   0.80688   0.71817   0.00000  Uiso   1.00
C1220  C     0.64532   0.85979   0.78184   0.00000  Uiso   1.00
C1221  C     0.64488   0.80601   0.71917   0.00000  Uiso   1.00
C1222  C     0.35512   0.86064   0.78084   0.00000  Uiso   1.00
C1223  C     0.62406   0.83273   0.75069   0.00000  Uiso   1.00
C1224  C     0.37594   0.83393   0.74932   0.00000  Uiso   1.00
C1225  C     0.52407   0.69049   0.77978   0.00000  Uiso   1.00
C1226  C     0.47593   0.97618   0.72022   0.00000  Uiso   1.00
C1227  C     0.47594   0.69084   0.72021   0.00000  Uiso   1.00
C1228  C     0.52406   0.97583   0.77979   0.00000  Uiso   1.00
H1229  H     0.54330   0.70857   0.80357   0.00000  Uiso   1.00
H1230  H     0.45670   0.95810   0.69643   0.00000  Uiso   1.00
H1231  H     0.45674   0.70919   0.69640   0.00000  Uiso   1.00
H1232  H     0.54326   0.95748   0.80360   0.00000  Uiso   1.00
N1233  N     0.50000   0.95240   0.75000   0.00000  Uiso   1.00
N1234  N     0.50000   0.71427   0.75000   0.00000  Uiso   1.00
N1235  N     0.45718   0.76101   0.88327   0.00000  Uiso   1.00
O1236  O     0.47506   0.72131   0.88478   0.00000  Uiso   1.00
O1237  O     0.42606   0.76790   0.85588   0.00000  Uiso   1.00
N1238  N     0.54282   0.90564   0.61677   0.00000  Uiso   1.00
O1239  O     0.57407   0.89866   0.64396   0.00000  Uiso   1.00
O1240  O     0.52482   0.94529   0.61561   0.00000  Uiso   1.00
N1241  N     0.42353   0.73540   0.96124   0.00000  Uiso   1.00
O1242  O     0.38989   0.75168   0.94244   0.00000  Uiso   1.00
O1243  O     0.42490   0.69259   0.97178   0.00000  Uiso   1.00
N1244  N     0.57595   0.93172   0.53877   0.00000  Uiso   1.00
O1245  O     0.57408   0.97459   0.52851   0.00000  Uiso   1.00
O1246  O     0.60986   0.91573   0.55725   0.00000  Uiso   1.00
N1247  N     0.37670   0.78285   0.68392   0.00000  Uiso   1.00
O1248  O     0.37031   0.73980   0.67758   0.00000  Uiso   1.00
O1249  O     0.40203   0.80446   0.65782   0.00000  Uiso   1.00
N1250  N     0.62330   0.88382   0.81609   0.00000  Uiso   1.00
O1251  O     0.62970   0.92687   0.82244   0.00000  Uiso   1.00
O1252  O     0.59795   0.86222   0.84217   0.00000  Uiso   1.00
N1253  N     0.62216   0.78067   0.68630   0.00000  Uiso   1.00
O1254  O     0.60489   0.80142   0.65257   0.00000  Uiso   1.00
O1255  O     0.61580   0.73753   0.69207   0.00000  Uiso   1.00
N1256  N     0.37784   0.88597   0.81373   0.00000  Uiso   1.00
O1257  O     0.39509   0.86521   0.84746   0.00000  Uiso   1.00
O1258  O     0.38423   0.92911   0.80796   0.00000  Uiso   1.00
O1259  O     0.77226   0.87154   0.74999   0.00000  Uiso   1.00
O1260  O     0.89441   0.79513   0.75000   0.00000  Uiso   1.00
O1261  O     0.89441   0.87154   0.75000   0.00000  Uiso   1.00
O1262  O     0.77226   0.79513   0.74999   0.00000  Uiso   1.00
C1263  C     0.75342   0.83348   0.74979   0.00000  Uiso   1.00
C1264  C     0.91325   0.83319   0.75021   0.00000  Uiso   1.00
O1265  O     0.83333   0.87156   0.68392   0.00000  Uiso   1.00
O1266  O     0.83334   0.79511   0.81607   0.00000  Uiso   1.00
O1267  O     0.83334   0.87156   0.81607   0.00000  Uiso   1.00
O1268  O     0.83333   0.79511   0.68392   0.00000  Uiso   1.00
C1269  C     0.83508   0.83342   0.66341   0.00000  Uiso   1.00
C1270  C     0.83159   0.83325   0.83659   0.00000  Uiso   1.00
Zn1271 Zn    0.83333   0.88437   0.75000   0.00000  Uiso   1.00
Zn1272 Zn    0.83333   0.78229   0.75000   0.00000  Uiso   1.00
C1273  C     0.84795   0.86878   0.90684   0.00000  Uiso   1.00
C1274  C     0.81861   0.79795   0.59315   0.00000  Uiso   1.00
C1275  C     0.82862   0.83336   0.88443   0.00000  Uiso   1.00
C1276  C     0.83799   0.83334   0.61557   0.00000  Uiso   1.00
C1277  C     0.80837   0.79820   0.90754   0.00000  Uiso   1.00
C1278  C     0.85820   0.86853   0.59247   0.00000  Uiso   1.00
C1279  C     0.80820   0.79892   0.95450   0.00000  Uiso   1.00
C1280  C     0.85827   0.86789   0.54550   0.00000  Uiso   1.00
C1281  C     0.83130   0.83348   0.97676   0.00000  Uiso   1.00
C1282  C     0.83518   0.83332   0.52324   0.00000  Uiso   1.00
C1283  C     0.85060   0.86838   0.95258   0.00000  Uiso   1.00
C1284  C     0.81589   0.79840   0.54742   0.00000  Uiso   1.00
C1285  C     0.78682   0.76597   0.98016   0.00000  Uiso   1.00
C1286  C     0.87954   0.90093   0.51984   0.00000  Uiso   1.00
C1287  C     0.79225   0.76526   0.52607   0.00000  Uiso   1.00
C1288  C     0.87416   0.90159   0.97392   0.00000  Uiso   1.00
H1289  H     0.86327   0.89560   0.88839   0.00000  Uiso   1.00
H1290  H     0.80331   0.77113   0.61160   0.00000  Uiso   1.00
H1291  H     0.77608   0.73980   0.54546   0.00000  Uiso   1.00
H1292  H     0.89028   0.92710   0.95455   0.00000  Uiso   1.00
C1293  C     0.68802   0.80688   0.71817   0.00000  Uiso   1.00
C1294  C     0.97865   0.85979   0.78184   0.00000  Uiso   1.00
C1295  C     0.97821   0.80601   0.71917   0.00000  Uiso   1.00
C1296  C     0.68846   0.86064   0.78084   0.00000  Uiso   1.00
C1297  C     0.95739   0.83273   0.75069   0.00000  Uiso   1.00
C1298  C     0.70927   0.83393   0.74932   0.00000  Uiso   1.00
C1299  C     0.85740   0.69049   0.77978   0.00000  Uiso   1.00
C1300  C     0.80926   0.97618   0.72022   0.00000  Uiso   1.00
C1301  C     0.80927   0.69084   0.72021   0.00000  Uiso   1.00
C1302  C     0.85739   0.97583   0.77979   0.00000  Uiso   1.00
H1303  H     0.87663   0.70857   0.80357   0.00000  Uiso   1.00
H1304  H     0.79004   0.95810   0.69643   0.00000  Uiso   1.00
H1305  H     0.79008   0.70919   0.69640   0.00000  Uiso   1.00
H1306  H     0.87659   0.95748   0.80360   0.00000  Uiso   1.00
N1307  N     0.83333   0.95240   0.75000   0.00000  Uiso   1.00
N1308  N     0.83333   0.71427   0.75000   0.00000  Uiso   1.00
N1309  N     0.79051   0.76101   0.88327   0.00000  Uiso   1.00
O1310  O     0.80839   0.72131   0.88478   0.00000  Uiso   1.00
O1311  O     0.75939   0.76790   0.85588   0.00000  Uiso   1.00
N1312  N     0.87615   0.90564   0.61677   0.00000  Uiso   1.00
O1313  O     0.90740   0.89866   0.64396   0.00000  Uiso   1.00
O1314  O     0.85815   0.94529   0.61561   0.00000  Uiso   1.00
N1315  N     0.75686   0.73540   0.96124   0.00000  Uiso   1.00
O1316  O     0.72323   0.75168   0.94244   0.00000  Uiso   1.00
O1317  O     0.75823   0.69259   0.97178   0.00000  Uiso   1.00
N1318  N     0.90928   0.93172   0.53877   0.00000  Uiso   1.00
O1319  O     0.90741   0.97459   0.52851   0.00000  Uiso   1.00
O1320  O     0.94319   0.91573   0.55725   0.00000  Uiso   1.00
N1321  N     0.71003   0.78285   0.68392   0.00000  Uiso   1.00
O1322  O     0.70365   0.73980   0.67758   0.00000  Uiso   1.00
O1323  O     0.73536   0.80446   0.65782   0.00000  Uiso   1.00
N1324  N     0.95664   0.88382   0.81609   0.00000  Uiso   1.00
O1325  O     0.96304   0.92687   0.82244   0.00000  Uiso   1.00
O1326  O     0.93128   0.86222   0.84217   0.00000  Uiso   1.00
N1327  N     0.95550   0.78067   0.68630   0.00000  Uiso   1.00
O1328  O     0.93822   0.80142   0.65257   0.00000  Uiso   1.00
O1329  O     0.94913   0.73753   0.69207   0.00000  Uiso   1.00
N1330  N     0.71117   0.88597   0.81373   0.00000  Uiso   1.00
O1331  O     0.72842   0.86521   0.84746   0.00000  Uiso   1.00
O1332  O     0.71756   0.92911   0.80796   0.00000  Uiso   1.00
loop_
_geom_bond_atom_site_label_1
_geom_bond_atom_site_label_2
_geom_bond_distance
_geom_bond_site_symmetry_2
_ccdc_geom_bond_type
O1     Zn13    1.993   .     S
O1     C5      1.277   .     A
O2     C6      1.277   .     A
O2     Zn14    1.993   .     S
O3     Zn13    1.990   .     S
O3     C6      1.279   .     A
O4     Zn14    1.990   .     S
O4     C5      1.279   .     A
C5     C40     1.413   .     S
C6     C39     1.413   .     S
O7     C11     1.285   .     A
O7     Zn13    2.020   .     S
O8     C12     1.285   .     A
O8     Zn14    2.020   .     S
O9     C12     1.287   .     A
O9     Zn13    2.019   .     S
O10    Zn14    2.019   .     S
O10    C11     1.287   .     A
C11    C18     1.440   .     S
C12    C17     1.440   .     S
Zn13   N49     2.006   .     S
Zn14   N50     2.006   .     S
C15    H31     1.086   .     S
C15    C25     1.375   .     A
C15    C17     1.389   .     A
C16    H32     1.086   .     S
C16    C18     1.389   .     A
C16    C26     1.375   .     A
C17    C19     1.410   .     A
C18    C20     1.410   .     A
C19    N51     1.436   .     S
C19    C21     1.410   .     A
C20    N54     1.436   .     S
C20    C22     1.410   .     A
C21    C27     1.421   .     A
C21    C23     1.426   .     A
C22    C28     1.421   .     A
C22    C24     1.426   .     A
C23    C25     1.407   .     A
C23    C690    1.400   .     S
C24    C26     1.407   .     A
C24    C689    1.400   1_554 S
C25    C30     1.393   .     A
C26    C29     1.393   .     A
C27    N57     1.434   .     S
C27    C695    1.388   .     S
C28    N60     1.433   .     S
C28    C696    1.388   1_554 S
C29    H33     1.085   .     S
C29    C693    1.388   1_554 S
C30    H34     1.085   .     S
C30    C694    1.388   .     S
C35    C40     1.404   .     A
C35    N63     1.438   .     S
C35    C185    1.382   1_455 S
C36    N66     1.438   .     S
C36    C39     1.404   .     A
C36    C112    1.382   .     S
C37    N69     1.434   .     S
C37    C39     1.403   .     A
C37    C109    1.382   .     S
C38    C40     1.403   .     A
C38    N72     1.434   .     S
C38    C184    1.382   1_455 S
C41    H45     1.082   .     S
C41    N50     1.366   .     A
C41    C488    1.415   1_545 S
C42    N49     1.366   .     A
C42    H46     1.082   .     S
C42    C265    1.415   .     S
C43    N50     1.366   .     A
C43    H47     1.082   .     S
C43    C486    1.415   1_545 S
C44    N49     1.366   .     A
C44    H48     1.082   .     S
C44    C263    1.415   .     S
N51    O52     1.301   .     A
N51    O53     1.302   .     A
N54    O56     1.301   .     A
N54    O55     1.302   .     A
N57    O58     1.301   .     A
N57    O59     1.301   .     A
N60    O62     1.301   .     A
N60    O61     1.301   .     A
N63    O65     1.301   .     A
N63    O64     1.301   .     A
N66    O68     1.301   .     A
N66    O67     1.301   .     A
N69    O71     1.301   .     A
N69    O70     1.300   .     A
N72    O73     1.300   .     A
N72    O74     1.301   .     A
O75    Zn87    1.993   .     S
O75    C79     1.277   .     A
O76    C80     1.277   .     A
O76    Zn88    1.993   .     S
O77    Zn87    1.990   .     S
O77    C80     1.279   .     A
O78    Zn88    1.990   .     S
O78    C79     1.279   .     A
C79    C114    1.413   .     S
C80    C113    1.413   .     S
O81    C85     1.285   .     A
O81    Zn87    2.020   .     S
O82    C86     1.285   .     A
O82    Zn88    2.020   .     S
O83    C86     1.287   .     A
O83    Zn87    2.019   .     S
O84    Zn88    2.019   .     S
O84    C85     1.287   .     A
C85    C92     1.440   .     S
C86    C91     1.440   .     S
Zn87   N123    2.006   .     S
Zn88   N124    2.006   .     S
C89    H105    1.086   .     S
C89    C99     1.375   .     A
C89    C91     1.389   .     A
C90    H106    1.086   .     S
C90    C92     1.389   .     A
C90    C100    1.375   .     A
C91    C93     1.410   .     A
C92    C94     1.410   .     A
C93    N125    1.436   .     S
C93    C95     1.410   .     A
C94    N128    1.436   .     S
C94    C96     1.410   .     A
C95    C101    1.421   .     A
C95    C97     1.426   .     A
C96    C102    1.421   .     A
C96    C98     1.426   .     A
C97    C99     1.407   .     A
C97    C764    1.400   .     S
C98    C100    1.407   .     A
C98    C763    1.400   1_554 S
C99    C104    1.393   .     A
C100   C103    1.393   .     A
C101   N131    1.434   .     S
C101   C769    1.388   .     S
C102   N134    1.433   .     S
C102   C770    1.388   1_554 S
C103   H107    1.085   .     S
C103   C767    1.388   1_554 S
C104   H108    1.085   .     S
C104   C768    1.388   .     S
C109   C114    1.404   .     A
C109   N137    1.438   .     S
C110   N140    1.438   .     S
C110   C113    1.404   .     A
C110   C186    1.382   .     S
C111   N143    1.434   .     S
C111   C113    1.403   .     A
C111   C183    1.382   .     S
C112   C114    1.403   .     A
C112   N146    1.434   .     S
C115   H119    1.082   .     S
C115   N124    1.366   .     A
C115   C562    1.415   1_545 S
C116   N123    1.366   .     A
C116   H120    1.082   .     S
C116   C339    1.415   .     S
C117   N124    1.366   .     A
C117   H121    1.082   .     S
C117   C560    1.415   1_545 S
C118   N123    1.366   .     A
C118   H122    1.082   .     S
C118   C337    1.415   .     S
N125   O126    1.301   .     A
N125   O127    1.302   .     A
N128   O130    1.301   .     A
N128   O129    1.302   .     A
N131   O132    1.301   .     A
N131   O133    1.301   .     A
N134   O136    1.301   .     A
N134   O135    1.301   .     A
N137   O139    1.301   .     A
N137   O138    1.301   .     A
N140   O142    1.301   .     A
N140   O141    1.301   .     A
N143   O145    1.301   .     A
N143   O144    1.300   .     A
N146   O147    1.300   .     A
N146   O148    1.301   .     A
O149   Zn161   1.993   .     S
O149   C153    1.277   .     A
O150   C154    1.277   .     A
O150   Zn162   1.993   .     S
O151   Zn161   1.990   .     S
O151   C154    1.279   .     A
O152   Zn162   1.990   .     S
O152   C153    1.279   .     A
C153   C188    1.413   .     S
C154   C187    1.413   .     S
O155   C159    1.285   .     A
O155   Zn161   2.020   .     S
O156   C160    1.285   .     A
O156   Zn162   2.020   .     S
O157   C160    1.287   .     A
O157   Zn161   2.019   .     S
O158   Zn162   2.019   .     S
O158   C159    1.287   .     A
C159   C166    1.440   .     S
C160   C165    1.440   .     S
Zn161  N197    2.006   .     S
Zn162  N198    2.006   .     S
C163   H179    1.086   .     S
C163   C173    1.375   .     A
C163   C165    1.389   .     A
C164   H180    1.086   .     S
C164   C166    1.389   .     A
C164   C174    1.375   .     A
C165   C167    1.410   .     A
C166   C168    1.410   .     A
C167   N199    1.436   .     S
C167   C169    1.410   .     A
C168   N202    1.436   .     S
C168   C170    1.410   .     A
C169   C175    1.421   .     A
C169   C171    1.426   .     A
C170   C176    1.421   .     A
C170   C172    1.426   .     A
C171   C173    1.407   .     A
C171   C838    1.400   .     S
C172   C174    1.407   .     A
C172   C837    1.400   1_554 S
C173   C178    1.393   .     A
C174   C177    1.393   .     A
C175   N205    1.434   .     S
C175   C843    1.388   .     S
C176   N208    1.433   .     S
C176   C844    1.388   1_554 S
C177   H181    1.085   .     S
C177   C841    1.388   1_554 S
C178   H182    1.085   .     S
C178   C842    1.388   .     S
C183   C188    1.404   .     A
C183   N211    1.438   .     S
C184   N214    1.438   .     S
C184   C187    1.404   .     A
C184   C38     1.382   1_655 S
C185   N217    1.434   .     S
C185   C187    1.403   .     A
C185   C35     1.382   1_655 S
C186   C188    1.403   .     A
C186   N220    1.434   .     S
C189   H193    1.082   .     S
C189   N198    1.366   .     A
C189   C636    1.415   1_545 S
C190   N197    1.366   .     A
C190   H194    1.082   .     S
C190   C413    1.415   .     S
C191   N198    1.366   .     A
C191   H195    1.082   .     S
C191   C634    1.415   1_545 S
C192   N197    1.366   .     A
C192   H196    1.082   .     S
C192   C411    1.415   .     S
N199   O200    1.301   .     A
N199   O201    1.302   .     A
N202   O204    1.301   .     A
N202   O203    1.302   .     A
N205   O206    1.301   .     A
N205   O207    1.301   .     A
N208   O210    1.301   .     A
N208   O209    1.301   .     A
N211   O213    1.301   .     A
N211   O212    1.301   .     A
N214   O216    1.301   .     A
N214   O215    1.301   .     A
N217   O219    1.301   .     A
N217   O218    1.300   .     A
N220   O221    1.300   .     A
N220   O222    1.301   .     A
O223   Zn235   1.993   .     S
O223   C227    1.277   .     A
O224   C228    1.277   .     A
O224   Zn236   1.993   .     S
O225   Zn235   1.990   .     S
O225   C228    1.279   .     A
O226   Zn236   1.990   .     S
O226   C227    1.279   .     A
C227   C262    1.413   .     S
C228   C261    1.413   .     S
O229   C233    1.285   .     A
O229   Zn235   2.020   .     S
O230   C234    1.285   .     A
O230   Zn236   2.020   .     S
O231   C234    1.287   .     A
O231   Zn235   2.019   .     S
O232   Zn236   2.019   .     S
O232   C233    1.287   .     A
C233   C240    1.440   .     S
C234   C239    1.440   .     S
Zn235  N271    2.006   .     S
Zn236  N272    2.006   .     S
C237   H253    1.086   .     S
C237   C247    1.375   .     A
C237   C239    1.389   .     A
C238   H254    1.086   .     S
C238   C240    1.389   .     A
C238   C248    1.375   .     A
C239   C241    1.410   .     A
C240   C242    1.410   .     A
C241   N273    1.436   .     S
C241   C243    1.410   .     A
C242   N276    1.436   .     S
C242   C244    1.410   .     A
C243   C249    1.421   .     A
C243   C245    1.426   .     A
C244   C250    1.421   .     A
C244   C246    1.426   .     A
C245   C247    1.407   .     A
C245   C912    1.400   .     S
C246   C248    1.407   .     A
C246   C911    1.400   1_554 S
C247   C252    1.393   .     A
C248   C251    1.393   .     A
C249   N279    1.434   .     S
C249   C917    1.388   .     S
C250   N282    1.433   .     S
C250   C918    1.388   1_554 S
C251   H255    1.085   .     S
C251   C915    1.388   1_554 S
C252   H256    1.085   .     S
C252   C916    1.388   .     S
C257   C262    1.404   .     A
C257   N285    1.438   .     S
C257   C407    1.382   1_455 S
C258   N288    1.438   .     S
C258   C261    1.404   .     A
C258   C334    1.382   .     S
C259   N291    1.434   .     S
C259   C261    1.403   .     A
C259   C331    1.382   .     S
C260   C262    1.403   .     A
C260   N294    1.434   .     S
C260   C406    1.382   1_455 S
C263   H267    1.082   .     S
C263   N272    1.366   .     A
C264   N271    1.366   .     A
C264   H268    1.082   .     S
C264   C487    1.415   .     S
C265   N272    1.366   .     A
C265   H269    1.082   .     S
C266   N271    1.366   .     A
C266   H270    1.082   .     S
C266   C485    1.415   .     S
N273   O274    1.301   .     A
N273   O275    1.302   .     A
N276   O278    1.301   .     A
N276   O277    1.302   .     A
N279   O280    1.301   .     A
N279   O281    1.301   .     A
N282   O284    1.301   .     A
N282   O283    1.301   .     A
N285   O287    1.301   .     A
N285   O286    1.301   .     A
N288   O290    1.301   .     A
N288   O289    1.301   .     A
N291   O293    1.301   .     A
N291   O292    1.300   .     A
N294   O295    1.300   .     A
N294   O296    1.301   .     A
O297   Zn309   1.993   .     S
O297   C301    1.277   .     A
O298   C302    1.277   .     A
O298   Zn310   1.993   .     S
O299   Zn309   1.990   .     S
O299   C302    1.279   .     A
O300   Zn310   1.990   .     S
O300   C301    1.279   .     A
C301   C336    1.413   .     S
C302   C335    1.413   .     S
O303   C307    1.285   .     A
O303   Zn309   2.020   .     S
O304   C308    1.285   .     A
O304   Zn310   2.020   .     S
O305   C308    1.287   .     A
O305   Zn309   2.019   .     S
O306   Zn310   2.019   .     S
O306   C307    1.287   .     A
C307   C314    1.440   .     S
C308   C313    1.440   .     S
Zn309  N345    2.006   .     S
Zn310  N346    2.006   .     S
C311   H327    1.086   .     S
C311   C321    1.375   .     A
C311   C313    1.389   .     A
C312   H328    1.086   .     S
C312   C314    1.389   .     A
C312   C322    1.375   .     A
C313   C315    1.410   .     A
C314   C316    1.410   .     A
C315   N347    1.436   .     S
C315   C317    1.410   .     A
C316   N350    1.436   .     S
C316   C318    1.410   .     A
C317   C323    1.421   .     A
C317   C319    1.426   .     A
C318   C324    1.421   .     A
C318   C320    1.426   .     A
C319   C321    1.407   .     A
C319   C986    1.400   .     S
C320   C322    1.407   .     A
C320   C985    1.400   1_554 S
C321   C326    1.393   .     A
C322   C325    1.393   .     A
C323   N353    1.434   .     S
C323   C991    1.388   .     S
C324   N356    1.433   .     S
C324   C992    1.388   1_554 S
C325   H329    1.085   .     S
C325   C989    1.388   1_554 S
C326   H330    1.085   .     S
C326   C990    1.388   .     S
C331   C336    1.404   .     A
C331   N359    1.438   .     S
C332   N362    1.438   .     S
C332   C335    1.404   .     A
C332   C408    1.382   .     S
C333   N365    1.434   .     S
C333   C335    1.403   .     A
C333   C405    1.382   .     S
C334   C336    1.403   .     A
C334   N368    1.434   .     S
C337   H341    1.082   .     S
C337   N346    1.366   .     A
C338   N345    1.366   .     A
C338   H342    1.082   .     S
C338   C561    1.415   .     S
C339   N346    1.366   .     A
C339   H343    1.082   .     S
C340   N345    1.366   .     A
C340   H344    1.082   .     S
C340   C559    1.415   .     S
N347   O348    1.301   .     A
N347   O349    1.302   .     A
N350   O352    1.301   .     A
N350   O351    1.302   .     A
N353   O354    1.301   .     A
N353   O355    1.301   .     A
N356   O358    1.301   .     A
N356   O357    1.301   .     A
N359   O361    1.301   .     A
N359   O360    1.301   .     A
N362   O364    1.301   .     A
N362   O363    1.301   .     A
N365   O367    1.301   .     A
N365   O366    1.300   .     A
N368   O369    1.300   .     A
N368   O370    1.301   .     A
O371   Zn383   1.993   .     S
O371   C375    1.277   .     A
O372   C376    1.277   .     A
O372   Zn384   1.993   .     S
O373   Zn383   1.990   .     S
O373   C376    1.279   .     A
O374   Zn384   1.990   .     S
O374   C375    1.279   .     A
C375   C410    1.413   .     S
C376   C409    1.413   .     S
O377   C381    1.285   .     A
O377   Zn383   2.020   .     S
O378   C382    1.285   .     A
O378   Zn384   2.020   .     S
O379   C382    1.287   .     A
O379   Zn383   2.019   .     S
O380   Zn384   2.019   .     S
O380   C381    1.287   .     A
C381   C388    1.440   .     S
C382   C387    1.440   .     S
Zn383  N419    2.006   .     S
Zn384  N420    2.006   .     S
C385   H401    1.086   .     S
C385   C395    1.375   .     A
C385   C387    1.389   .     A
C386   H402    1.086   .     S
C386   C388    1.389   .     A
C386   C396    1.375   .     A
C387   C389    1.410   .     A
C388   C390    1.410   .     A
C389   N421    1.436   .     S
C389   C391    1.410   .     A
C390   N424    1.436   .     S
C390   C392    1.410   .     A
C391   C397    1.421   .     A
C391   C393    1.426   .     A
C392   C398    1.421   .     A
C392   C394    1.426   .     A
C393   C395    1.407   .     A
C393   C1060   1.400   .     S
C394   C396    1.407   .     A
C394   C1059   1.400   1_554 S
C395   C400    1.393   .     A
C396   C399    1.393   .     A
C397   N427    1.434   .     S
C397   C1065   1.388   .     S
C398   N430    1.433   .     S
C398   C1066   1.388   1_554 S
C399   H403    1.085   .     S
C399   C1063   1.388   1_554 S
C400   H404    1.085   .     S
C400   C1064   1.388   .     S
C405   C410    1.404   .     A
C405   N433    1.438   .     S
C406   N436    1.438   .     S
C406   C409    1.404   .     A
C406   C260    1.382   1_655 S
C407   N439    1.434   .     S
C407   C409    1.403   .     A
C407   C257    1.382   1_655 S
C408   C410    1.403   .     A
C408   N442    1.434   .     S
C411   H415    1.082   .     S
C411   N420    1.366   .     A
C412   N419    1.366   .     A
C412   H416    1.082   .     S
C412   C635    1.415   .     S
C413   N420    1.366   .     A
C413   H417    1.082   .     S
C414   N419    1.366   .     A
C414   H418    1.082   .     S
C414   C633    1.415   .     S
N421   O422    1.301   .     A
N421   O423    1.302   .     A
N424   O426    1.301   .     A
N424   O425    1.302   .     A
N427   O428    1.301   .     A
N427   O429    1.301   .     A
N430   O432    1.301   .     A
N430   O431    1.301   .     A
N433   O435    1.301   .     A
N433   O434    1.301   .     A
N436   O438    1.301   .     A
N436   O437    1.301   .     A
N439   O441    1.301   .     A
N439   O440    1.300   .     A
N442   O443    1.300   .     A
N442   O444    1.301   .     A
O445   Zn457   1.993   .     S
O445   C449    1.277   .     A
O446   C450    1.277   .     A
O446   Zn458   1.993   .     S
O447   Zn457   1.990   .     S
O447   C450    1.279   .     A
O448   Zn458   1.990   .     S
O448   C449    1.279   .     A
C449   C484    1.413   .     S
C450   C483    1.413   .     S
O451   C455    1.285   .     A
O451   Zn457   2.020   .     S
O452   C456    1.285   .     A
O452   Zn458   2.020   .     S
O453   C456    1.287   .     A
O453   Zn457   2.019   .     S
O454   Zn458   2.019   .     S
O454   C455    1.287   .     A
C455   C462    1.440   .     S
C456   C461    1.440   .     S
Zn457  N493    2.006   .     S
Zn458  N494    2.006   .     S
C459   H475    1.086   .     S
C459   C469    1.375   .     A
C459   C461    1.389   .     A
C460   H476    1.086   .     S
C460   C462    1.389   .     A
C460   C470    1.375   .     A
C461   C463    1.410   .     A
C462   C464    1.410   .     A
C463   N495    1.436   .     S
C463   C465    1.410   .     A
C464   N498    1.436   .     S
C464   C466    1.410   .     A
C465   C471    1.421   .     A
C465   C467    1.426   .     A
C466   C472    1.421   .     A
C466   C468    1.426   .     A
C467   C469    1.407   .     A
C467   C1134   1.400   .     S
C468   C470    1.407   .     A
C468   C1133   1.400   1_554 S
C469   C474    1.393   .     A
C470   C473    1.393   .     A
C471   N501    1.434   .     S
C471   C1139   1.388   .     S
C472   N504    1.433   .     S
C472   C1140   1.388   1_554 S
C473   H477    1.085   .     S
C473   C1137   1.388   1_554 S
C474   H478    1.085   .     S
C474   C1138   1.388   .     S
C479   C484    1.404   .     A
C479   N507    1.438   .     S
C479   C629    1.382   1_455 S
C480   N510    1.438   .     S
C480   C483    1.404   .     A
C480   C556    1.382   .     S
C481   N513    1.434   .     S
C481   C483    1.403   .     A
C481   C553    1.382   .     S
C482   C484    1.403   .     A
C482   N516    1.434   .     S
C482   C628    1.382   1_455 S
C485   H489    1.082   .     S
C485   N494    1.366   .     A
C486   N493    1.366   .     A
C486   H490    1.082   .     S
C486   C43     1.415   1_565 S
C487   N494    1.366   .     A
C487   H491    1.082   .     S
C488   N493    1.366   .     A
C488   H492    1.082   .     S
C488   C41     1.415   1_565 S
N495   O496    1.301   .     A
N495   O497    1.302   .     A
N498   O500    1.301   .     A
N498   O499    1.302   .     A
N501   O502    1.301   .     A
N501   O503    1.301   .     A
N504   O506    1.301   .     A
N504   O505    1.301   .     A
N507   O509    1.301   .     A
N507   O508    1.301   .     A
N510   O512    1.301   .     A
N510   O511    1.301   .     A
N513   O515    1.301   .     A
N513   O514    1.300   .     A
N516   O517    1.300   .     A
N516   O518    1.301   .     A
O519   Zn531   1.993   .     S
O519   C523    1.277   .     A
O520   C524    1.277   .     A
O520   Zn532   1.993   .     S
O521   Zn531   1.990   .     S
O521   C524    1.279   .     A
O522   Zn532   1.990   .     S
O522   C523    1.279   .     A
C523   C558    1.413   .     S
C524   C557    1.413   .     S
O525   C529    1.285   .     A
O525   Zn531   2.020   .     S
O526   C530    1.285   .     A
O526   Zn532   2.020   .     S
O527   C530    1.287   .     A
O527   Zn531   2.019   .     S
O528   Zn532   2.019   .     S
O528   C529    1.287   .     A
C529   C536    1.440   .     S
C530   C535    1.440   .     S
Zn531  N567    2.006   .     S
Zn532  N568    2.006   .     S
C533   H549    1.086   .     S
C533   C543    1.375   .     A
C533   C535    1.389   .     A
C534   H550    1.086   .     S
C534   C536    1.389   .     A
C534   C544    1.375   .     A
C535   C537    1.410   .     A
C536   C538    1.410   .     A
C537   N569    1.436   .     S
C537   C539    1.410   .     A
C538   N572    1.436   .     S
C538   C540    1.410   .     A
C539   C545    1.421   .     A
C539   C541    1.426   .     A
C540   C546    1.421   .     A
C540   C542    1.426   .     A
C541   C543    1.407   .     A
C541   C1208   1.400   .     S
C542   C544    1.407   .     A
C542   C1207   1.400   1_554 S
C543   C548    1.393   .     A
C544   C547    1.393   .     A
C545   N575    1.434   .     S
C545   C1213   1.388   .     S
C546   N578    1.433   .     S
C546   C1214   1.388   1_554 S
C547   H551    1.085   .     S
C547   C1211   1.388   1_554 S
C548   H552    1.085   .     S
C548   C1212   1.388   .     S
C553   C558    1.404   .     A
C553   N581    1.438   .     S
C554   N584    1.438   .     S
C554   C557    1.404   .     A
C554   C630    1.382   .     S
C555   N587    1.434   .     S
C555   C557    1.403   .     A
C555   C627    1.382   .     S
C556   C558    1.403   .     A
C556   N590    1.434   .     S
C559   H563    1.082   .     S
C559   N568    1.366   .     A
C560   N567    1.366   .     A
C560   H564    1.082   .     S
C560   C117    1.415   1_565 S
C561   N568    1.366   .     A
C561   H565    1.082   .     S
C562   N567    1.366   .     A
C562   H566    1.082   .     S
C562   C115    1.415   1_565 S
N569   O570    1.301   .     A
N569   O571    1.302   .     A
N572   O574    1.301   .     A
N572   O573    1.302   .     A
N575   O576    1.301   .     A
N575   O577    1.301   .     A
N578   O580    1.301   .     A
N578   O579    1.301   .     A
N581   O583    1.301   .     A
N581   O582    1.301   .     A
N584   O586    1.301   .     A
N584   O585    1.301   .     A
N587   O589    1.301   .     A
N587   O588    1.300   .     A
N590   O591    1.300   .     A
N590   O592    1.301   .     A
O593   Zn605   1.993   .     S
O593   C597    1.277   .     A
O594   C598    1.277   .     A
O594   Zn606   1.993   .     S
O595   Zn605   1.990   .     S
O595   C598    1.279   .     A
O596   Zn606   1.990   .     S
O596   C597    1.279   .     A
C597   C632    1.413   .     S
C598   C631    1.413   .     S
O599   C603    1.285   .     A
O599   Zn605   2.020   .     S
O600   C604    1.285   .     A
O600   Zn606   2.020   .     S
O601   C604    1.287   .     A
O601   Zn605   2.019   .     S
O602   Zn606   2.019   .     S
O602   C603    1.287   .     A
C603   C610    1.440   .     S
C604   C609    1.440   .     S
Zn605  N641    2.006   .     S
Zn606  N642    2.006   .     S
C607   H623    1.086   .     S
C607   C617    1.375   .     A
C607   C609    1.389   .     A
C608   H624    1.086   .     S
C608   C610    1.389   .     A
C608   C618    1.375   .     A
C609   C611    1.410   .     A
C610   C612    1.410   .     A
C611   N643    1.436   .     S
C611   C613    1.410   .     A
C612   N646    1.436   .     S
C612   C614    1.410   .     A
C613   C619    1.421   .     A
C613   C615    1.426   .     A
C614   C620    1.421   .     A
C614   C616    1.426   .     A
C615   C617    1.407   .     A
C615   C1282   1.400   .     S
C616   C618    1.407   .     A
C616   C1281   1.400   1_554 S
C617   C622    1.393   .     A
C618   C621    1.393   .     A
C619   N649    1.434   .     S
C619   C1287   1.388   .     S
C620   N652    1.433   .     S
C620   C1288   1.388   1_554 S
C621   H625    1.085   .     S
C621   C1285   1.388   1_554 S
C622   H626    1.085   .     S
C622   C1286   1.388   .     S
C627   C632    1.404   .     A
C627   N655    1.438   .     S
C628   N658    1.438   .     S
C628   C631    1.404   .     A
C628   C482    1.382   1_655 S
C629   N661    1.434   .     S
C629   C631    1.403   .     A
C629   C479    1.382   1_655 S
C630   C632    1.403   .     A
C630   N664    1.434   .     S
C633   H637    1.082   .     S
C633   N642    1.366   .     A
C634   N641    1.366   .     A
C634   H638    1.082   .     S
C634   C191    1.415   1_565 S
C635   N642    1.366   .     A
C635   H639    1.082   .     S
C636   N641    1.366   .     A
C636   H640    1.082   .     S
C636   C189    1.415   1_565 S
N643   O644    1.301   .     A
N643   O645    1.302   .     A
N646   O648    1.301   .     A
N646   O647    1.302   .     A
N649   O650    1.301   .     A
N649   O651    1.301   .     A
N652   O654    1.301   .     A
N652   O653    1.301   .     A
N655   O657    1.301   .     A
N655   O656    1.301   .     A
N658   O660    1.301   .     A
N658   O659    1.301   .     A
N661   O663    1.301   .     A
N661   O662    1.300   .     A
N664   O665    1.300   .     A
N664   O666    1.301   .     A
O667   Zn679   1.993   .     S
O667   C671    1.277   .     A
O668   C672    1.277   .     A
O668   Zn680   1.993   .     S
O669   Zn679   1.990   .     S
O669   C672    1.279   .     A
O670   Zn680   1.990   .     S
O670   C671    1.279   .     A
C671   C706    1.413   .     S
C672   C705    1.413   .     S
O673   C677    1.285   .     A
O673   Zn679   2.020   .     S
O674   C678    1.285   .     A
O674   Zn680   2.020   .     S
O675   C678    1.287   .     A
O675   Zn679   2.019   .     S
O676   Zn680   2.019   .     S
O676   C677    1.287   .     A
C677   C684    1.440   .     S
C678   C683    1.440   .     S
Zn679  N715    2.006   .     S
Zn680  N716    2.006   .     S
C681   H697    1.086   .     S
C681   C691    1.375   .     A
C681   C683    1.389   .     A
C682   H698    1.086   .     S
C682   C684    1.389   .     A
C682   C692    1.375   .     A
C683   C685    1.410   .     A
C684   C686    1.410   .     A
C685   N717    1.436   .     S
C685   C687    1.410   .     A
C686   N720    1.436   .     S
C686   C688    1.410   .     A
C687   C693    1.421   .     A
C687   C689    1.426   .     A
C688   C694    1.421   .     A
C688   C690    1.426   .     A
C689   C691    1.407   .     A
C689   C24     1.400   1_556 S
C690   C692    1.407   .     A
C691   C696    1.393   .     A
C692   C695    1.393   .     A
C693   N723    1.434   .     S
C693   C29     1.388   1_556 S
C694   N726    1.433   .     S
C695   H699    1.085   .     S
C696   H700    1.085   .     S
C696   C28     1.388   1_556 S
C701   C706    1.404   .     A
C701   N729    1.438   .     S
C701   C851    1.382   1_455 S
C702   N732    1.438   .     S
C702   C705    1.404   .     A
C702   C778    1.382   .     S
C703   N735    1.434   .     S
C703   C705    1.403   .     A
C703   C775    1.382   .     S
C704   C706    1.403   .     A
C704   N738    1.434   .     S
C704   C850    1.382   1_455 S
C707   H711    1.082   .     S
C707   N716    1.366   .     A
C707   C1154   1.415   1_545 S
C708   N715    1.366   .     A
C708   H712    1.082   .     S
C708   C931    1.415   .     S
C709   N716    1.366   .     A
C709   H713    1.082   .     S
C709   C1152   1.415   1_545 S
C710   N715    1.366   .     A
C710   H714    1.082   .     S
C710   C929    1.415   .     S
N717   O718    1.301   .     A
N717   O719    1.302   .     A
N720   O722    1.301   .     A
N720   O721    1.302   .     A
N723   O724    1.301   .     A
N723   O725    1.301   .     A
N726   O728    1.301   .     A
N726   O727    1.301   .     A
N729   O731    1.301   .     A
N729   O730    1.301   .     A
N732   O734    1.301   .     A
N732   O733    1.301   .     A
N735   O737    1.301   .     A
N735   O736    1.300   .     A
N738   O739    1.300   .     A
N738   O740    1.301   .     A
O741   Zn753   1.993   .     S
O741   C745    1.277   .     A
O742   C746    1.277   .     A
O742   Zn754   1.993   .     S
O743   Zn753   1.990   .     S
O743   C746    1.279   .     A
O744   Zn754   1.990   .     S
O744   C745    1.279   .     A
C745   C780    1.413   .     S
C746   C779    1.413   .     S
O747   C751    1.285   .     A
O747   Zn753   2.020   .     S
O748   C752    1.285   .     A
O748   Zn754   2.020   .     S
O749   C752    1.287   .     A
O749   Zn753   2.019   .     S
O750   Zn754   2.019   .     S
O750   C751    1.287   .     A
C751   C758    1.440   .     S
C752   C757    1.440   .     S
Zn753  N789    2.006   .     S
Zn754  N790    2.006   .     S
C755   H771    1.086   .     S
C755   C765    1.375   .     A
C755   C757    1.389   .     A
C756   H772    1.086   .     S
C756   C758    1.389   .     A
C756   C766    1.375   .     A
C757   C759    1.410   .     A
C758   C760    1.410   .     A
C759   N791    1.436   .     S
C759   C761    1.410   .     A
C760   N794    1.436   .     S
C760   C762    1.410   .     A
C761   C767    1.421   .     A
C761   C763    1.426   .     A
C762   C768    1.421   .     A
C762   C764    1.426   .     A
C763   C765    1.407   .     A
C763   C98     1.400   1_556 S
C764   C766    1.407   .     A
C765   C770    1.393   .     A
C766   C769    1.393   .     A
C767   N797    1.434   .     S
C767   C103    1.388   1_556 S
C768   N800    1.433   .     S
C769   H773    1.085   .     S
C770   H774    1.085   .     S
C770   C102    1.388   1_556 S
C775   C780    1.404   .     A
C775   N803    1.438   .     S
C776   N806    1.438   .     S
C776   C779    1.404   .     A
C776   C852    1.382   .     S
C777   N809    1.434   .     S
C777   C779    1.403   .     A
C777   C849    1.382   .     S
C778   C780    1.403   .     A
C778   N812    1.434   .     S
C781   H785    1.082   .     S
C781   N790    1.366   .     A
C781   C1228   1.415   1_545 S
C782   N789    1.366   .     A
C782   H786    1.082   .     S
C782   C1005   1.415   .     S
C783   N790    1.366   .     A
C783   H787    1.082   .     S
C783   C1226   1.415   1_545 S
C784   N789    1.366   .     A
C784   H788    1.082   .     S
C784   C1003   1.415   .     S
N791   O792    1.301   .     A
N791   O793    1.302   .     A
N794   O796    1.301   .     A
N794   O795    1.302   .     A
N797   O798    1.301   .     A
N797   O799    1.301   .     A
N800   O802    1.301   .     A
N800   O801    1.301   .     A
N803   O805    1.301   .     A
N803   O804    1.301   .     A
N806   O808    1.301   .     A
N806   O807    1.301   .     A
N809   O811    1.301   .     A
N809   O810    1.300   .     A
N812   O813    1.300   .     A
N812   O814    1.301   .     A
O815   Zn827   1.993   .     S
O815   C819    1.277   .     A
O816   C820    1.277   .     A
O816   Zn828   1.993   .     S
O817   Zn827   1.990   .     S
O817   C820    1.279   .     A
O818   Zn828   1.990   .     S
O818   C819    1.279   .     A
C819   C854    1.413   .     S
C820   C853    1.413   .     S
O821   C825    1.285   .     A
O821   Zn827   2.020   .     S
O822   C826    1.285   .     A
O822   Zn828   2.020   .     S
O823   C826    1.287   .     A
O823   Zn827   2.019   .     S
O824   Zn828   2.019   .     S
O824   C825    1.287   .     A
C825   C832    1.440   .     S
C826   C831    1.440   .     S
Zn827  N863    2.006   .     S
Zn828  N864    2.006   .     S
C829   H845    1.086   .     S
C829   C839    1.375   .     A
C829   C831    1.389   .     A
C830   H846    1.086   .     S
C830   C832    1.389   .     A
C830   C840    1.375   .     A
C831   C833    1.410   .     A
C832   C834    1.410   .     A
C833   N865    1.436   .     S
C833   C835    1.410   .     A
C834   N868    1.436   .     S
C834   C836    1.410   .     A
C835   C841    1.421   .     A
C835   C837    1.426   .     A
C836   C842    1.421   .     A
C836   C838    1.426   .     A
C837   C839    1.407   .     A
C837   C172    1.400   1_556 S
C838   C840    1.407   .     A
C839   C844    1.393   .     A
C840   C843    1.393   .     A
C841   N871    1.434   .     S
C841   C177    1.388   1_556 S
C842   N874    1.433   .     S
C843   H847    1.085   .     S
C844   H848    1.085   .     S
C844   C176    1.388   1_556 S
C849   C854    1.404   .     A
C849   N877    1.438   .     S
C850   N880    1.438   .     S
C850   C853    1.404   .     A
C850   C704    1.382   1_655 S
C851   N883    1.434   .     S
C851   C853    1.403   .     A
C851   C701    1.382   1_655 S
C852   C854    1.403   .     A
C852   N886    1.434   .     S
C855   H859    1.082   .     S
C855   N864    1.366   .     A
C855   C1302   1.415   1_545 S
C856   N863    1.366   .     A
C856   H860    1.082   .     S
C856   C1079   1.415   .     S
C857   N864    1.366   .     A
C857   H861    1.082   .     S
C857   C1300   1.415   1_545 S
C858   N863    1.366   .     A
C858   H862    1.082   .     S
C858   C1077   1.415   .     S
N865   O866    1.301   .     A
N865   O867    1.302   .     A
N868   O870    1.301   .     A
N868   O869    1.302   .     A
N871   O872    1.301   .     A
N871   O873    1.301   .     A
N874   O876    1.301   .     A
N874   O875    1.301   .     A
N877   O879    1.301   .     A
N877   O878    1.301   .     A
N880   O882    1.301   .     A
N880   O881    1.301   .     A
N883   O885    1.301   .     A
N883   O884    1.300   .     A
N886   O887    1.300   .     A
N886   O888    1.301   .     A
O889   Zn901   1.993   .     S
O889   C893    1.277   .     A
O890   C894    1.277   .     A
O890   Zn902   1.993   .     S
O891   Zn901   1.990   .     S
O891   C894    1.279   .     A
O892   Zn902   1.990   .     S
O892   C893    1.279   .     A
C893   C928    1.413   .     S
C894   C927    1.413   .     S
O895   C899    1.285   .     A
O895   Zn901   2.020   .     S
O896   C900    1.285   .     A
O896   Zn902   2.020   .     S
O897   C900    1.287   .     A
O897   Zn901   2.019   .     S
O898   Zn902   2.019   .     S
O898   C899    1.287   .     A
C899   C906    1.440   .     S
C900   C905    1.440   .     S
Zn901  N937    2.006   .     S
Zn902  N938    2.006   .     S
C903   H919    1.086   .     S
C903   C913    1.375   .     A
C903   C905    1.389   .     A
C904   H920    1.086   .     S
C904   C906    1.389   .     A
C904   C914    1.375   .     A
C905   C907    1.410   .     A
C906   C908    1.410   .     A
C907   N939    1.436   .     S
C907   C909    1.410   .     A
C908   N942    1.436   .     S
C908   C910    1.410   .     A
C909   C915    1.421   .     A
C909   C911    1.426   .     A
C910   C916    1.421   .     A
C910   C912    1.426   .     A
C911   C913    1.407   .     A
C911   C246    1.400   1_556 S
C912   C914    1.407   .     A
C913   C918    1.393   .     A
C914   C917    1.393   .     A
C915   N945    1.434   .     S
C915   C251    1.388   1_556 S
C916   N948    1.433   .     S
C917   H921    1.085   .     S
C918   H922    1.085   .     S
C918   C250    1.388   1_556 S
C923   C928    1.404   .     A
C923   N951    1.438   .     S
C923   C1073   1.382   1_455 S
C924   N954    1.438   .     S
C924   C927    1.404   .     A
C924   C1000   1.382   .     S
C925   N957    1.434   .     S
C925   C927    1.403   .     A
C925   C997    1.382   .     S
C926   C928    1.403   .     A
C926   N960    1.434   .     S
C926   C1072   1.382   1_455 S
C929   H933    1.082   .     S
C929   N938    1.366   .     A
C930   N937    1.366   .     A
C930   H934    1.082   .     S
C930   C1153   1.415   .     S
C931   N938    1.366   .     A
C931   H935    1.082   .     S
C932   N937    1.366   .     A
C932   H936    1.082   .     S
C932   C1151   1.415   .     S
N939   O940    1.301   .     A
N939   O941    1.302   .     A
N942   O944    1.301   .     A
N942   O943    1.302   .     A
N945   O946    1.301   .     A
N945   O947    1.301   .     A
N948   O950    1.301   .     A
N948   O949    1.301   .     A
N951   O953    1.301   .     A
N951   O952    1.301   .     A
N954   O956    1.301   .     A
N954   O955    1.301   .     A
N957   O959    1.301   .     A
N957   O958    1.300   .     A
N960   O961    1.300   .     A
N960   O962    1.301   .     A
O963   Zn975   1.993   .     S
O963   C967    1.277   .     A
O964   C968    1.277   .     A
O964   Zn976   1.993   .     S
O965   Zn975   1.990   .     S
O965   C968    1.279   .     A
O966   Zn976   1.990   .     S
O966   C967    1.279   .     A
C967   C1002   1.413   .     S
C968   C1001   1.413   .     S
O969   C973    1.285   .     A
O969   Zn975   2.020   .     S
O970   C974    1.285   .     A
O970   Zn976   2.020   .     S
O971   C974    1.287   .     A
O971   Zn975   2.019   .     S
O972   Zn976   2.019   .     S
O972   C973    1.287   .     A
C973   C980    1.440   .     S
C974   C979    1.440   .     S
Zn975  N1011   2.006   .     S
Zn976  N1012   2.006   .     S
C977   H993    1.086   .     S
C977   C987    1.375   .     A
C977   C979    1.389   .     A
C978   H994    1.086   .     S
C978   C980    1.389   .     A
C978   C988    1.375   .     A
C979   C981    1.410   .     A
C980   C982    1.410   .     A
C981   N1013   1.436   .     S
C981   C983    1.410   .     A
C982   N1016   1.436   .     S
C982   C984    1.410   .     A
C983   C989    1.421   .     A
C983   C985    1.426   .     A
C984   C990    1.421   .     A
C984   C986    1.426   .     A
C985   C987    1.407   .     A
C985   C320    1.400   1_556 S
C986   C988    1.407   .     A
C987   C992    1.393   .     A
C988   C991    1.393   .     A
C989   N1019   1.434   .     S
C989   C325    1.388   1_556 S
C990   N1022   1.433   .     S
C991   H995    1.085   .     S
C992   H996    1.085   .     S
C992   C324    1.388   1_556 S
C997   C1002   1.404   .     A
C997   N1025   1.438   .     S
C998   N1028   1.438   .     S
C998   C1001   1.404   .     A
C998   C1074   1.382   .     S
C999   N1031   1.434   .     S
C999   C1001   1.403   .     A
C999   C1071   1.382   .     S
C1000  C1002   1.403   .     A
C1000  N1034   1.434   .     S
C1003  H1007   1.082   .     S
C1003  N1012   1.366   .     A
C1004  N1011   1.366   .     A
C1004  H1008   1.082   .     S
C1004  C1227   1.415   .     S
C1005  N1012   1.366   .     A
C1005  H1009   1.082   .     S
C1006  N1011   1.366   .     A
C1006  H1010   1.082   .     S
C1006  C1225   1.415   .     S
N1013  O1014   1.301   .     A
N1013  O1015   1.302   .     A
N1016  O1018   1.301   .     A
N1016  O1017   1.302   .     A
N1019  O1020   1.301   .     A
N1019  O1021   1.301   .     A
N1022  O1024   1.301   .     A
N1022  O1023   1.301   .     A
N1025  O1027   1.301   .     A
N1025  O1026   1.301   .     A
N1028  O1030   1.301   .     A
N1028  O1029   1.301   .     A
N1031  O1033   1.301   .     A
N1031  O1032   1.300   .     A
N1034  O1035   1.300   .     A
N1034  O1036   1.301   .     A
O1037  Zn1049  1.993   .     S
O1037  C1041   1.277   .     A
O1038  C1042   1.277   .     A
O1038  Zn1050  1.993   .     S
O1039  Zn1049  1.990   .     S
O1039  C1042   1.279   .     A
O1040  Zn1050  1.990   .     S
O1040  C1041   1.279   .     A
C1041  C1076   1.413   .     S
C1042  C1075   1.413   .     S
O1043  C1047   1.285   .     A
O1043  Zn1049  2.020   .     S
O1044  C1048   1.285   .     A
O1044  Zn1050  2.020   .     S
O1045  C1048   1.287   .     A
O1045  Zn1049  2.019   .     S
O1046  Zn1050  2.019   .     S
O1046  C1047   1.287   .     A
C1047  C1054   1.440   .     S
C1048  C1053   1.440   .     S
Zn1049 N1085   2.006   .     S
Zn1050 N1086   2.006   .     S
C1051  H1067   1.086   .     S
C1051  C1061   1.375   .     A
C1051  C1053   1.389   .     A
C1052  H1068   1.086   .     S
C1052  C1054   1.389   .     A
C1052  C1062   1.375   .     A
C1053  C1055   1.410   .     A
C1054  C1056   1.410   .     A
C1055  N1087   1.436   .     S
C1055  C1057   1.410   .     A
C1056  N1090   1.436   .     S
C1056  C1058   1.410   .     A
C1057  C1063   1.421   .     A
C1057  C1059   1.426   .     A
C1058  C1064   1.421   .     A
C1058  C1060   1.426   .     A
C1059  C1061   1.407   .     A
C1059  C394    1.400   1_556 S
C1060  C1062   1.407   .     A
C1061  C1066   1.393   .     A
C1062  C1065   1.393   .     A
C1063  N1093   1.434   .     S
C1063  C399    1.388   1_556 S
C1064  N1096   1.433   .     S
C1065  H1069   1.085   .     S
C1066  H1070   1.085   .     S
C1066  C398    1.388   1_556 S
C1071  C1076   1.404   .     A
C1071  N1099   1.438   .     S
C1072  N1102   1.438   .     S
C1072  C1075   1.404   .     A
C1072  C926    1.382   1_655 S
C1073  N1105   1.434   .     S
C1073  C1075   1.403   .     A
C1073  C923    1.382   1_655 S
C1074  C1076   1.403   .     A
C1074  N1108   1.434   .     S
C1077  H1081   1.082   .     S
C1077  N1086   1.366   .     A
C1078  N1085   1.366   .     A
C1078  H1082   1.082   .     S
C1078  C1301   1.415   .     S
C1079  N1086   1.366   .     A
C1079  H1083   1.082   .     S
C1080  N1085   1.366   .     A
C1080  H1084   1.082   .     S
C1080  C1299   1.415   .     S
N1087  O1088   1.301   .     A
N1087  O1089   1.302   .     A
N1090  O1092   1.301   .     A
N1090  O1091   1.302   .     A
N1093  O1094   1.301   .     A
N1093  O1095   1.301   .     A
N1096  O1098   1.301   .     A
N1096  O1097   1.301   .     A
N1099  O1101   1.301   .     A
N1099  O1100   1.301   .     A
N1102  O1104   1.301   .     A
N1102  O1103   1.301   .     A
N1105  O1107   1.301   .     A
N1105  O1106   1.300   .     A
N1108  O1109   1.300   .     A
N1108  O1110   1.301   .     A
O1111  Zn1123  1.993   .     S
O1111  C1115   1.277   .     A
O1112  C1116   1.277   .     A
O1112  Zn1124  1.993   .     S
O1113  Zn1123  1.990   .     S
O1113  C1116   1.279   .     A
O1114  Zn1124  1.990   .     S
O1114  C1115   1.279   .     A
C1115  C1150   1.413   .     S
C1116  C1149   1.413   .     S
O1117  C1121   1.285   .     A
O1117  Zn1123  2.020   .     S
O1118  C1122   1.285   .     A
O1118  Zn1124  2.020   .     S
O1119  C1122   1.287   .     A
O1119  Zn1123  2.019   .     S
O1120  Zn1124  2.019   .     S
O1120  C1121   1.287   .     A
C1121  C1128   1.440   .     S
C1122  C1127   1.440   .     S
Zn1123 N1159   2.006   .     S
Zn1124 N1160   2.006   .     S
C1125  H1141   1.086   .     S
C1125  C1135   1.375   .     A
C1125  C1127   1.389   .     A
C1126  H1142   1.086   .     S
C1126  C1128   1.389   .     A
C1126  C1136   1.375   .     A
C1127  C1129   1.410   .     A
C1128  C1130   1.410   .     A
C1129  N1161   1.436   .     S
C1129  C1131   1.410   .     A
C1130  N1164   1.436   .     S
C1130  C1132   1.410   .     A
C1131  C1137   1.421   .     A
C1131  C1133   1.426   .     A
C1132  C1138   1.421   .     A
C1132  C1134   1.426   .     A
C1133  C1135   1.407   .     A
C1133  C468    1.400   1_556 S
C1134  C1136   1.407   .     A
C1135  C1140   1.393   .     A
C1136  C1139   1.393   .     A
C1137  N1167   1.434   .     S
C1137  C473    1.388   1_556 S
C1138  N1170   1.433   .     S
C1139  H1143   1.085   .     S
C1140  H1144   1.085   .     S
C1140  C472    1.388   1_556 S
C1145  C1150   1.404   .     A
C1145  N1173   1.438   .     S
C1145  C1295   1.382   1_455 S
C1146  N1176   1.438   .     S
C1146  C1149   1.404   .     A
C1146  C1222   1.382   .     S
C1147  N1179   1.434   .     S
C1147  C1149   1.403   .     A
C1147  C1219   1.382   .     S
C1148  C1150   1.403   .     A
C1148  N1182   1.434   .     S
C1148  C1294   1.382   1_455 S
C1151  H1155   1.082   .     S
C1151  N1160   1.366   .     A
C1152  N1159   1.366   .     A
C1152  H1156   1.082   .     S
C1152  C709    1.415   1_565 S
C1153  N1160   1.366   .     A
C1153  H1157   1.082   .     S
C1154  N1159   1.366   .     A
C1154  H1158   1.082   .     S
C1154  C707    1.415   1_565 S
N1161  O1162   1.301   .     A
N1161  O1163   1.302   .     A
N1164  O1166   1.301   .     A
N1164  O1165   1.302   .     A
N1167  O1168   1.301   .     A
N1167  O1169   1.301   .     A
N1170  O1172   1.301   .     A
N1170  O1171   1.301   .     A
N1173  O1175   1.301   .     A
N1173  O1174   1.301   .     A
N1176  O1178   1.301   .     A
N1176  O1177   1.301   .     A
N1179  O1181   1.301   .     A
N1179  O1180   1.300   .     A
N1182  O1183   1.300   .     A
N1182  O1184   1.301   .     A
O1185  Zn1197  1.993   .     S
O1185  C1189   1.277   .     A
O1186  C1190   1.277   .     A
O1186  Zn1198  1.993   .     S
O1187  Zn1197  1.990   .     S
O1187  C1190   1.279   .     A
O1188  Zn1198  1.990   .     S
O1188  C1189   1.279   .     A
C1189  C1224   1.413   .     S
C1190  C1223   1.413   .     S
O1191  C1195   1.285   .     A
O1191  Zn1197  2.020   .     S
O1192  C1196   1.285   .     A
O1192  Zn1198  2.020   .     S
O1193  C1196   1.287   .     A
O1193  Zn1197  2.019   .     S
O1194  Zn1198  2.019   .     S
O1194  C1195   1.287   .     A
C1195  C1202   1.440   .     S
C1196  C1201   1.440   .     S
Zn1197 N1233   2.006   .     S
Zn1198 N1234   2.006   .     S
C1199  H1215   1.086   .     S
C1199  C1209   1.375   .     A
C1199  C1201   1.389   .     A
C1200  H1216   1.086   .     S
C1200  C1202   1.389   .     A
C1200  C1210   1.375   .     A
C1201  C1203   1.410   .     A
C1202  C1204   1.410   .     A
C1203  N1235   1.436   .     S
C1203  C1205   1.410   .     A
C1204  N1238   1.436   .     S
C1204  C1206   1.410   .     A
C1205  C1211   1.421   .     A
C1205  C1207   1.426   .     A
C1206  C1212   1.421   .     A
C1206  C1208   1.426   .     A
C1207  C1209   1.407   .     A
C1207  C542    1.400   1_556 S
C1208  C1210   1.407   .     A
C1209  C1214   1.393   .     A
C1210  C1213   1.393   .     A
C1211  N1241   1.434   .     S
C1211  C547    1.388   1_556 S
C1212  N1244   1.433   .     S
C1213  H1217   1.085   .     S
C1214  H1218   1.085   .     S
C1214  C546    1.388   1_556 S
C1219  C1224   1.404   .     A
C1219  N1247   1.438   .     S
C1220  N1250   1.438   .     S
C1220  C1223   1.404   .     A
C1220  C1296   1.382   .     S
C1221  N1253   1.434   .     S
C1221  C1223   1.403   .     A
C1221  C1293   1.382   .     S
C1222  C1224   1.403   .     A
C1222  N1256   1.434   .     S
C1225  H1229   1.082   .     S
C1225  N1234   1.366   .     A
C1226  N1233   1.366   .     A
C1226  H1230   1.082   .     S
C1226  C783    1.415   1_565 S
C1227  N1234   1.366   .     A
C1227  H1231   1.082   .     S
C1228  N1233   1.366   .     A
C1228  H1232   1.082   .     S
C1228  C781    1.415   1_565 S
N1235  O1236   1.301   .     A
N1235  O1237   1.302   .     A
N1238  O1240   1.301   .     A
N1238  O1239   1.302   .     A
N1241  O1242   1.301   .     A
N1241  O1243   1.301   .     A
N1244  O1246   1.301   .     A
N1244  O1245   1.301   .     A
N1247  O1249   1.301   .     A
N1247  O1248   1.301   .     A
N1250  O1252   1.301   .     A
N1250  O1251   1.301   .     A
N1253  O1255   1.301   .     A
N1253  O1254   1.300   .     A
N1256  O1257   1.300   .     A
N1256  O1258   1.301   .     A
O1259  Zn1271  1.993   .     S
O1259  C1263   1.277   .     A
O1260  C1264   1.277   .     A
O1260  Zn1272  1.993   .     S
O1261  Zn1271  1.990   .     S
O1261  C1264   1.279   .     A
O1262  Zn1272  1.990   .     S
O1262  C1263   1.279   .     A
C1263  C1298   1.413   .     S
C1264  C1297   1.413   .     S
O1265  C1269   1.285   .     A
O1265  Zn1271  2.020   .     S
O1266  C1270   1.285   .     A
O1266  Zn1272  2.020   .     S
O1267  C1270   1.287   .     A
O1267  Zn1271  2.019   .     S
O1268  Zn1272  2.019   .     S
O1268  C1269   1.287   .     A
C1269  C1276   1.440   .     S
C1270  C1275   1.440   .     S
Zn1271 N1307   2.006   .     S
Zn1272 N1308   2.006   .     S
C1273  H1289   1.086   .     S
C1273  C1283   1.375   .     A
C1273  C1275   1.389   .     A
C1274  H1290   1.086   .     S
C1274  C1276   1.389   .     A
C1274  C1284   1.375   .     A
C1275  C1277   1.410   .     A
C1276  C1278   1.410   .     A
C1277  N1309   1.436   .     S
C1277  C1279   1.410   .     A
C1278  N1312   1.436   .     S
C1278  C1280   1.410   .     A
C1279  C1285   1.421   .     A
C1279  C1281   1.426   .     A
C1280  C1286   1.421   .     A
C1280  C1282   1.426   .     A
C1281  C1283   1.407   .     A
C1281  C616    1.400   1_556 S
C1282  C1284   1.407   .     A
C1283  C1288   1.393   .     A
C1284  C1287   1.393   .     A
C1285  N1315   1.434   .     S
C1285  C621    1.388   1_556 S
C1286  N1318   1.433   .     S
C1287  H1291   1.085   .     S
C1288  H1292   1.085   .     S
C1288  C620    1.388   1_556 S
C1293  C1298   1.404   .     A
C1293  N1321   1.438   .     S
C1294  N1324   1.438   .     S
C1294  C1297   1.404   .     A
C1294  C1148   1.382   1_655 S
C1295  N1327   1.434   .     S
C1295  C1297   1.403   .     A
C1295  C1145   1.382   1_655 S
C1296  C1298   1.403   .     A
C1296  N1330   1.434   .     S
C1299  H1303   1.082   .     S
C1299  N1308   1.366   .     A
C1300  N1307   1.366   .     A
C1300  H1304   1.082   .     S
C1300  C857    1.415   1_565 S
C1301  N1308   1.366   .     A
C1301  H1305   1.082   .     S
C1302  N1307   1.366   .     A
C1302  H1306   1.082   .     S
C1302  C855    1.415   1_565 S
N1309  O1310   1.301   .     A
N1309  O1311   1.302   .     A
N1312  O1314   1.301   .     A
N1312  O1313   1.302   .     A
N1315  O1316   1.301   .     A
N1315  O1317   1.301   .     A
N1318  O1320   1.301   .     A
N1318  O1319   1.301   .     A
N1321  O1323   1.301   .     A
N1321  O1322   1.301   .     A
N1324  O1326   1.301   .     A
N1324  O1325   1.301   .     A
N1327  O1329   1.301   .     A
N1327  O1328   1.300   .     A
N1330  O1331   1.300   .     A
N1330  O1332   1.301   .     A
