data_str_m2_o1_o1_pcu_sym.25
_audit_creation_date              2020-01-03
_audit_creation_method            'Materials Studio'
_symmetry_space_group_name_H-M    'P1'
_symmetry_Int_Tables_number       1
_symmetry_cell_setting            triclinic
loop_
_symmetry_equiv_pos_as_xyz
  x,y,z
_cell_length_a                    32.3410
_cell_length_b                    28.7316
_cell_length_c                    29.2029
_cell_angle_alpha                 90.5518
_cell_angle_beta                  91.0011
_cell_angle_gamma                 90.0125
loop_
_atom_site_label
_atom_site_type_symbol
_atom_site_fract_x
_atom_site_fract_y
_atom_site_fract_z
_atom_site_U_iso_or_equiv
_atom_site_adp_type
_atom_site_occupancy
C1     C     0.05845   0.19002   0.16657   0.00000  Uiso   1.00
C2     C     0.49080   0.28956   0.31009   0.00000  Uiso   1.00
C3     C     0.00111   0.29083   0.02456   0.00000  Uiso   1.00
C4     C     0.01273   0.21184   0.30946   0.00000  Uiso   1.00
C5     C     0.25510   0.45866   0.02397   0.00000  Uiso   1.00
C6     C     0.25209   0.04087   0.30933   0.00000  Uiso   1.00
C7     C     0.24713   0.04083   0.02480   0.00000  Uiso   1.00
C8     C     0.25011   0.45844   0.30787   0.00000  Uiso   1.00
C9     C     0.36862   0.16961   0.14802   0.00000  Uiso   1.00
C10    C     0.10380   0.36875   0.20880   0.00000  Uiso   1.00
C11    C     0.12140   0.34459   0.13092   0.00000  Uiso   1.00
C12    C     0.43820   0.30625   0.16587   0.00000  Uiso   1.00
C13    C     0.41346   0.11342   0.18834   0.00000  Uiso   1.00
C14    C     0.13069   0.17031   0.18392   0.00000  Uiso   1.00
C15    C     0.39367   0.36448   0.12418   0.00000  Uiso   1.00
C16    C     0.37571   0.34095   0.20132   0.00000  Uiso   1.00
C17    C     0.08559   0.11183   0.14635   0.00000  Uiso   1.00
C18    C     0.14132   0.38739   0.12478   0.00000  Uiso   1.00
C19    C     0.38120   0.08052   0.18721   0.00000  Uiso   1.00
C20    C     0.33585   0.13765   0.14896   0.00000  Uiso   1.00
C21    C     0.12728   0.40949   0.20402   0.00000  Uiso   1.00
C22    C     0.35513   0.38350   0.20783   0.00000  Uiso   1.00
C23    C     0.44109   0.19039   0.16644   0.00000  Uiso   1.00
C24    C     0.11871   0.07997   0.14594   0.00000  Uiso   1.00
C25    C     0.16195   0.13697   0.18776   0.00000  Uiso   1.00
C26    C     0.37138   0.40594   0.12946   0.00000  Uiso   1.00
C27    C     0.09733   0.33882   0.17014   0.00000  Uiso   1.00
C28    C     0.40751   0.15672   0.16645   0.00000  Uiso   1.00
C29    C     0.40079   0.33579   0.16292   0.00000  Uiso   1.00
C30    C     0.09193   0.15657   0.16605   0.00000  Uiso   1.00
C31    C     0.34246   0.09323   0.16820   0.00000  Uiso   1.00
C32    C     0.15031   0.41523   0.16394   0.00000  Uiso   1.00
C33    C     0.15685   0.09293   0.16651   0.00000  Uiso   1.00
C34    C     0.06120   0.30728   0.16754   0.00000  Uiso   1.00
C35    C     0.34797   0.41236   0.16925   0.00000  Uiso   1.00
C36    C     0.49714   0.16186   0.04406   0.00000  Uiso   1.00
C37    C     0.46076   0.13459   0.02199   0.00000  Uiso   1.00
C38    C     0.41883   0.15102   0.03874   0.00000  Uiso   1.00
C39    C     0.46398   0.32990   0.29354   0.00000  Uiso   1.00
C40    C     0.48713   0.36919   0.26917   0.00000  Uiso   1.00
C41    C     0.45859   0.40832   0.25347   0.00000  Uiso   1.00
C42    C     0.02831   0.33181   0.03957   0.00000  Uiso   1.00
C43    C     0.00593   0.37134   0.06494   0.00000  Uiso   1.00
C44    C     0.03485   0.41131   0.07818   0.00000  Uiso   1.00
C45    C     0.31140   0.44312   0.16733   0.00000  Uiso   1.00
C46    C     0.05347   0.18720   0.29936   0.00000  Uiso   1.00
C47    C     0.04952   0.13648   0.28159   0.00000  Uiso   1.00
C48    C     0.09075   0.11086   0.28591   0.00000  Uiso   1.00
C49    C     0.27571   0.41511   0.04499   0.00000  Uiso   1.00
C50    C     0.24948   0.38319   0.07538   0.00000  Uiso   1.00
C51    C     0.26423   0.33259   0.07368   0.00000  Uiso   1.00
C52    C     0.26411   0.08635   0.28698   0.00000  Uiso   1.00
C53    C     0.31049   0.09684   0.29442   0.00000  Uiso   1.00
C54    C     0.32158   0.14495   0.27655   0.00000  Uiso   1.00
C55    C     0.23900   0.08708   0.04866   0.00000  Uiso   1.00
C56    C     0.19113   0.05986   0.16666   0.00000  Uiso   1.00
C57    C     0.19389   0.10286   0.04069   0.00000  Uiso   1.00
C58    C     0.18646   0.15160   0.06005   0.00000  Uiso   1.00
C59    C     0.24847   0.41156   0.28165   0.00000  Uiso   1.00
C60    C     0.21044   0.38172   0.29171   0.00000  Uiso   1.00
C61    C     0.20674   0.34041   0.25846   0.00000  Uiso   1.00
C62    C     0.36198   0.21768   0.13042   0.00000  Uiso   1.00
C63    C     0.09049   0.35604   0.25548   0.00000  Uiso   1.00
C64    C     0.13010   0.30388   0.10034   0.00000  Uiso   1.00
C65    C     0.45299   0.10377   0.21358   0.00000  Uiso   1.00
C66    C     0.13818   0.21943   0.19905   0.00000  Uiso   1.00
C67    C     0.18815   0.44396   0.16590   0.00000  Uiso   1.00
C68    C     0.40367   0.34882   0.07701   0.00000  Uiso   1.00
C69    C     0.36665   0.29965   0.23007   0.00000  Uiso   1.00
C70    C     0.04440   0.09926   0.12610   0.00000  Uiso   1.00
C71    C     0.14265   0.40788   0.07787   0.00000  Uiso   1.00
C72    C     0.38837   0.03183   0.20289   0.00000  Uiso   1.00
C73    C     0.29495   0.15094   0.12921   0.00000  Uiso   1.00
C74    C     0.12531   0.44753   0.23931   0.00000  Uiso   1.00
C75    C     0.35184   0.40288   0.25540   0.00000  Uiso   1.00
C76    C     0.11288   0.03152   0.12847   0.00000  Uiso   1.00
C77    C     0.19437   0.14418   0.22314   0.00000  Uiso   1.00
C78    C     0.30913   0.05930   0.16707   0.00000  Uiso   1.00
C79    C     0.37565   0.44419   0.09550   0.00000  Uiso   1.00
C80    C     0.00161   0.20955   0.02339   0.00000  Uiso   1.00
Cu81   Cu    0.00000   0.25000   0.21355   0.00000  Uiso   1.00
Cu82   Cu    0.00000   0.25000   0.11978   0.00000  Uiso   1.00
Cu83   Cu    0.25000  -0.00000   0.21355   0.00000  Uiso   1.00
Cu84   Cu    0.25000  -0.00000   0.11978   0.00000  Uiso   1.00
H85    H     0.41543   0.14141   0.07502   0.00000  Uiso   1.00
H86    H     0.47744   0.43821   0.24199   0.00000  Uiso   1.00
H87    H     0.00942   0.38574   0.29317   0.00000  Uiso   1.00
H88    H     0.00386   0.35581   0.23926   0.00000  Uiso   1.00
H89    H     0.43622   0.31716   0.27546   0.00000  Uiso   1.00
H90    H     0.44902   0.34604   0.32339   0.00000  Uiso   1.00
H91    H     0.05708   0.40007   0.10500   0.00000  Uiso   1.00
H92    H     0.05162   0.42389   0.04783   0.00000  Uiso   1.00
H93    H     0.01657   0.44065   0.09236   0.00000  Uiso   1.00
H94    H     0.48172   0.38636   0.04250   0.00000  Uiso   1.00
H95    H     0.49169   0.35856   0.09642   0.00000  Uiso   1.00
H96    H     0.41544   0.18926   0.03481   0.00000  Uiso   1.00
H97    H     0.05640   0.31974   0.05723   0.00000  Uiso   1.00
H98    H     0.04300   0.34684   0.00926   0.00000  Uiso   1.00
H99    H     0.11568   0.13130   0.27013   0.00000  Uiso   1.00
H100   H     0.09886   0.10532   0.32258   0.00000  Uiso   1.00
H101   H     0.08850   0.07645   0.26839   0.00000  Uiso   1.00
H102   H     0.02657   0.11643   0.30073   0.00000  Uiso   1.00
H103   H     0.03916   0.13510   0.24553   0.00000  Uiso   1.00
H104   H     0.07328   0.20872   0.27763   0.00000  Uiso   1.00
H105   H     0.07237   0.18651   0.33161   0.00000  Uiso   1.00
H106   H     0.26088   0.31807   0.03843   0.00000  Uiso   1.00
H107   H     0.39386   0.13338   0.01862   0.00000  Uiso   1.00
H108   H     0.29717   0.33043   0.08495   0.00000  Uiso   1.00
H109   H     0.24540   0.31119   0.09697   0.00000  Uiso   1.00
H110   H     0.25114   0.39343   0.11173   0.00000  Uiso   1.00
H111   H     0.21684   0.38443   0.06458   0.00000  Uiso   1.00
H112   H     0.28932   0.39240   0.01919   0.00000  Uiso   1.00
H113   H     0.30554   0.42448   0.06008   0.00000  Uiso   1.00
H114   H     0.31028   0.14909   0.24076   0.00000  Uiso   1.00
H115   H     0.30734   0.17237   0.29821   0.00000  Uiso   1.00
H116   H     0.35567   0.14961   0.27750   0.00000  Uiso   1.00
H117   H     0.31895   0.09561   0.33141   0.00000  Uiso   1.00
H118   H     0.46085   0.13785   0.31751   0.00000  Uiso   1.00
H119   H     0.32959   0.07011   0.27719   0.00000  Uiso   1.00
H120   H     0.25532   0.08696   0.25085   0.00000  Uiso   1.00
H121   H     0.24625   0.11607   0.30028   0.00000  Uiso   1.00
H122   H     0.19380   0.15281   0.09725   0.00000  Uiso   1.00
H123   H     0.20602   0.17734   0.04233   0.00000  Uiso   1.00
H124   H     0.15347   0.16124   0.05480   0.00000  Uiso   1.00
H125   H     0.18592   0.10301   0.00358   0.00000  Uiso   1.00
H126   H     0.17233   0.07812   0.05677   0.00000  Uiso   1.00
H127   H     0.24651   0.08585   0.08476   0.00000  Uiso   1.00
H128   H     0.26078   0.11444   0.03803   0.00000  Uiso   1.00
H129   H     0.46428   0.09707   0.03016   0.00000  Uiso   1.00
H130   H     0.20230   0.35260   0.22276   0.00000  Uiso   1.00
H131   H     0.23507   0.31860   0.26048   0.00000  Uiso   1.00
H132   H     0.17989   0.31856   0.26757   0.00000  Uiso   1.00
H133   H     0.21272   0.36734   0.32635   0.00000  Uiso   1.00
H134   H     0.18214   0.40312   0.28960   0.00000  Uiso   1.00
H135   H     0.24939   0.41531   0.24526   0.00000  Uiso   1.00
H136   H     0.27665   0.39058   0.28573   0.00000  Uiso   1.00
H137   H     0.38528   0.23422   0.11010   0.00000  Uiso   1.00
H138   H     0.07659   0.38171   0.27761   0.00000  Uiso   1.00
H139   H     0.11371   0.27129   0.10413   0.00000  Uiso   1.00
H140   H     0.02609   0.14205   0.03953   0.00000  Uiso   1.00
H141   H     0.48127   0.12017   0.20330   0.00000  Uiso   1.00
H142   H     0.11491   0.23876   0.21731   0.00000  Uiso   1.00
H143   H     0.41435   0.37317   0.05203   0.00000  Uiso   1.00
H144   H     0.38528   0.26840   0.22769   0.00000  Uiso   1.00
H145   H     0.01670   0.11526   0.13903   0.00000  Uiso   1.00
H146   H     0.15235   0.44342   0.07283   0.00000  Uiso   1.00
H147   H     0.36492   0.01342   0.22151   0.00000  Uiso   1.00
H148   H     0.29303   0.17176   0.09844   0.00000  Uiso   1.00
H149   H     0.11951   0.44024   0.27491   0.00000  Uiso   1.00
H150   H     0.34506   0.43929   0.26127   0.00000  Uiso   1.00
H151   H     0.49374   0.16282   0.08094   0.00000  Uiso   1.00
H152   H     0.13501   0.01629   0.10538   0.00000  Uiso   1.00
H153   H     0.19250   0.12369   0.25379   0.00000  Uiso   1.00
H154   H     0.38097   0.43705   0.05964   0.00000  Uiso   1.00
H155   H     0.43927   0.39672   0.22406   0.00000  Uiso   1.00
H156   H     0.43882   0.42041   0.28193   0.00000  Uiso   1.00
N157   N     0.00000   0.25000   0.28402   0.00000  Uiso   1.00
N158   N     0.00000   0.25000   0.04931   0.00000  Uiso   1.00
N159   N     0.25000  -0.00000   0.28402   0.00000  Uiso   1.00
N160   N     0.25000  -0.00000   0.04931   0.00000  Uiso   1.00
O161   O     0.04508   0.20491   0.20625   0.00000  Uiso   1.00
O162   O     0.20491   0.04509   0.12709   0.00000  Uiso   1.00
O163   O     0.20491   0.04509   0.20625   0.00000  Uiso   1.00
O164   O     0.29508   0.45491   0.12709   0.00000  Uiso   1.00
O165   O     0.20491   0.45491   0.12709   0.00000  Uiso   1.00
O166   O     0.29508   0.04509   0.20625   0.00000  Uiso   1.00
O167   O     0.29508   0.04509   0.12709   0.00000  Uiso   1.00
O168   O     0.20491   0.45491   0.20625   0.00000  Uiso   1.00
O169   O     0.33091   0.23975   0.13968   0.00000  Uiso   1.00
O170   O     0.09756   0.31737   0.27073   0.00000  Uiso   1.00
O171   O     0.15792   0.30496   0.07264   0.00000  Uiso   1.00
O172   O     0.45491   0.29509   0.12709   0.00000  Uiso   1.00
O173   O     0.45400   0.07921   0.24747   0.00000  Uiso   1.00
O174   O     0.17006   0.23951   0.18932   0.00000  Uiso   1.00
O175   O     0.39720   0.30875   0.06462   0.00000  Uiso   1.00
O176   O     0.33629   0.29863   0.25433   0.00000  Uiso   1.00
O177   O     0.04098   0.07241   0.09359   0.00000  Uiso   1.00
O178   O     0.13029   0.38640   0.04403   0.00000  Uiso   1.00
O179   O     0.42021   0.01120   0.19363   0.00000  Uiso   1.00
O180   O     0.26307   0.14008   0.14798   0.00000  Uiso   1.00
O181   O     0.12887   0.48825   0.22851   0.00000  Uiso   1.00
O182   O     0.36004   0.37960   0.28912   0.00000  Uiso   1.00
O183   O     0.45491   0.29509   0.20625   0.00000  Uiso   1.00
O184   O     0.08394   0.00779   0.14098   0.00000  Uiso   1.00
O185   O     0.22122   0.17369   0.21962   0.00000  Uiso   1.00
O186   O     0.37383   0.48491   0.10758   0.00000  Uiso   1.00
O187   O     0.04508   0.20491   0.12709   0.00000  Uiso   1.00
O188   O     0.45491   0.20491   0.12709   0.00000  Uiso   1.00
O189   O     0.04508   0.29509   0.20625   0.00000  Uiso   1.00
O190   O     0.04508   0.29509   0.12709   0.00000  Uiso   1.00
O191   O     0.45491   0.20491   0.20625   0.00000  Uiso   1.00
O192   O     0.29508   0.45491   0.20625   0.00000  Uiso   1.00
C193   C     0.55845   0.19002   0.16657   0.00000  Uiso   1.00
C194   C     0.99080   0.28956   0.31009   0.00000  Uiso   1.00
C195   C     0.50111   0.29083   0.02456   0.00000  Uiso   1.00
C196   C     0.51273   0.21184   0.30946   0.00000  Uiso   1.00
C197   C     0.75510   0.45866   0.02397   0.00000  Uiso   1.00
C198   C     0.75209   0.04087   0.30933   0.00000  Uiso   1.00
C199   C     0.74713   0.04083   0.02480   0.00000  Uiso   1.00
C200   C     0.75011   0.45844   0.30787   0.00000  Uiso   1.00
C201   C     0.86862   0.16961   0.14802   0.00000  Uiso   1.00
C202   C     0.60380   0.36875   0.20880   0.00000  Uiso   1.00
C203   C     0.62140   0.34459   0.13092   0.00000  Uiso   1.00
C204   C     0.93820   0.30625   0.16587   0.00000  Uiso   1.00
C205   C     0.91346   0.11342   0.18834   0.00000  Uiso   1.00
C206   C     0.63069   0.17031   0.18392   0.00000  Uiso   1.00
C207   C     0.89367   0.36448   0.12418   0.00000  Uiso   1.00
C208   C     0.87571   0.34095   0.20132   0.00000  Uiso   1.00
C209   C     0.58559   0.11183   0.14635   0.00000  Uiso   1.00
C210   C     0.64132   0.38739   0.12478   0.00000  Uiso   1.00
C211   C     0.88120   0.08052   0.18721   0.00000  Uiso   1.00
C212   C     0.83585   0.13765   0.14896   0.00000  Uiso   1.00
C213   C     0.62728   0.40949   0.20402   0.00000  Uiso   1.00
C214   C     0.85513   0.38350   0.20783   0.00000  Uiso   1.00
C215   C     0.94109   0.19039   0.16644   0.00000  Uiso   1.00
C216   C     0.61871   0.07997   0.14594   0.00000  Uiso   1.00
C217   C     0.66195   0.13697   0.18776   0.00000  Uiso   1.00
C218   C     0.87138   0.40594   0.12946   0.00000  Uiso   1.00
C219   C     0.59733   0.33882   0.17014   0.00000  Uiso   1.00
C220   C     0.90751   0.15672   0.16645   0.00000  Uiso   1.00
C221   C     0.90079   0.33579   0.16292   0.00000  Uiso   1.00
C222   C     0.59193   0.15657   0.16605   0.00000  Uiso   1.00
C223   C     0.84246   0.09323   0.16820   0.00000  Uiso   1.00
C224   C     0.65031   0.41523   0.16394   0.00000  Uiso   1.00
C225   C     0.65685   0.09293   0.16651   0.00000  Uiso   1.00
C226   C     0.56120   0.30728   0.16754   0.00000  Uiso   1.00
C227   C     0.84797   0.41236   0.16925   0.00000  Uiso   1.00
C228   C     0.99714   0.16186   0.04406   0.00000  Uiso   1.00
C229   C     0.96076   0.13459   0.02199   0.00000  Uiso   1.00
C230   C     0.91883   0.15102   0.03874   0.00000  Uiso   1.00
C231   C     0.96398   0.32990   0.29354   0.00000  Uiso   1.00
C232   C     0.98713   0.36919   0.26917   0.00000  Uiso   1.00
C233   C     0.95859   0.40832   0.25347   0.00000  Uiso   1.00
C234   C     0.52831   0.33181   0.03957   0.00000  Uiso   1.00
C235   C     0.50593   0.37134   0.06494   0.00000  Uiso   1.00
C236   C     0.53485   0.41131   0.07818   0.00000  Uiso   1.00
C237   C     0.81140   0.44312   0.16733   0.00000  Uiso   1.00
C238   C     0.55347   0.18720   0.29936   0.00000  Uiso   1.00
C239   C     0.54952   0.13648   0.28159   0.00000  Uiso   1.00
C240   C     0.59075   0.11086   0.28591   0.00000  Uiso   1.00
C241   C     0.77571   0.41511   0.04499   0.00000  Uiso   1.00
C242   C     0.74948   0.38319   0.07538   0.00000  Uiso   1.00
C243   C     0.76423   0.33259   0.07368   0.00000  Uiso   1.00
C244   C     0.76411   0.08635   0.28698   0.00000  Uiso   1.00
C245   C     0.81049   0.09684   0.29442   0.00000  Uiso   1.00
C246   C     0.82158   0.14495   0.27655   0.00000  Uiso   1.00
C247   C     0.73900   0.08708   0.04866   0.00000  Uiso   1.00
C248   C     0.69113   0.05986   0.16666   0.00000  Uiso   1.00
C249   C     0.69389   0.10286   0.04069   0.00000  Uiso   1.00
C250   C     0.68646   0.15160   0.06005   0.00000  Uiso   1.00
C251   C     0.74847   0.41156   0.28165   0.00000  Uiso   1.00
C252   C     0.71044   0.38172   0.29171   0.00000  Uiso   1.00
C253   C     0.70674   0.34041   0.25846   0.00000  Uiso   1.00
C254   C     0.86198   0.21768   0.13042   0.00000  Uiso   1.00
C255   C     0.59049   0.35604   0.25548   0.00000  Uiso   1.00
C256   C     0.63010   0.30388   0.10034   0.00000  Uiso   1.00
C257   C     0.95299   0.10377   0.21358   0.00000  Uiso   1.00
C258   C     0.63818   0.21943   0.19905   0.00000  Uiso   1.00
C259   C     0.68815   0.44396   0.16590   0.00000  Uiso   1.00
C260   C     0.90367   0.34882   0.07701   0.00000  Uiso   1.00
C261   C     0.86665   0.29965   0.23007   0.00000  Uiso   1.00
C262   C     0.54440   0.09926   0.12610   0.00000  Uiso   1.00
C263   C     0.64265   0.40788   0.07787   0.00000  Uiso   1.00
C264   C     0.88837   0.03183   0.20289   0.00000  Uiso   1.00
C265   C     0.79495   0.15094   0.12921   0.00000  Uiso   1.00
C266   C     0.62531   0.44753   0.23931   0.00000  Uiso   1.00
C267   C     0.85184   0.40288   0.25540   0.00000  Uiso   1.00
C268   C     0.61288   0.03152   0.12847   0.00000  Uiso   1.00
C269   C     0.69437   0.14418   0.22314   0.00000  Uiso   1.00
C270   C     0.80913   0.05930   0.16707   0.00000  Uiso   1.00
C271   C     0.87565   0.44419   0.09550   0.00000  Uiso   1.00
C272   C     0.50161   0.20955   0.02339   0.00000  Uiso   1.00
Cu273  Cu    0.50000   0.25000   0.21355   0.00000  Uiso   1.00
Cu274  Cu    0.50000   0.25000   0.11978   0.00000  Uiso   1.00
Cu275  Cu    0.75000  -0.00000   0.21355   0.00000  Uiso   1.00
Cu276  Cu    0.75000  -0.00000   0.11978   0.00000  Uiso   1.00
H277   H     0.91543   0.14141   0.07502   0.00000  Uiso   1.00
H278   H     0.97744   0.43821   0.24199   0.00000  Uiso   1.00
H279   H     0.50942   0.38574   0.29317   0.00000  Uiso   1.00
H280   H     0.50386   0.35581   0.23926   0.00000  Uiso   1.00
H281   H     0.93622   0.31716   0.27546   0.00000  Uiso   1.00
H282   H     0.94902   0.34604   0.32339   0.00000  Uiso   1.00
H283   H     0.55708   0.40007   0.10500   0.00000  Uiso   1.00
H284   H     0.55162   0.42389   0.04783   0.00000  Uiso   1.00
H285   H     0.51657   0.44065   0.09236   0.00000  Uiso   1.00
H286   H     0.98172   0.38636   0.04250   0.00000  Uiso   1.00
H287   H     0.99169   0.35856   0.09642   0.00000  Uiso   1.00
H288   H     0.91544   0.18926   0.03481   0.00000  Uiso   1.00
H289   H     0.55640   0.31974   0.05723   0.00000  Uiso   1.00
H290   H     0.54300   0.34684   0.00926   0.00000  Uiso   1.00
H291   H     0.61568   0.13130   0.27013   0.00000  Uiso   1.00
H292   H     0.59886   0.10532   0.32258   0.00000  Uiso   1.00
H293   H     0.58850   0.07645   0.26839   0.00000  Uiso   1.00
H294   H     0.52657   0.11643   0.30073   0.00000  Uiso   1.00
H295   H     0.53916   0.13510   0.24553   0.00000  Uiso   1.00
H296   H     0.57328   0.20872   0.27763   0.00000  Uiso   1.00
H297   H     0.57237   0.18651   0.33161   0.00000  Uiso   1.00
H298   H     0.76088   0.31807   0.03843   0.00000  Uiso   1.00
H299   H     0.89386   0.13338   0.01862   0.00000  Uiso   1.00
H300   H     0.79717   0.33043   0.08495   0.00000  Uiso   1.00
H301   H     0.74540   0.31119   0.09697   0.00000  Uiso   1.00
H302   H     0.75114   0.39343   0.11173   0.00000  Uiso   1.00
H303   H     0.71684   0.38443   0.06458   0.00000  Uiso   1.00
H304   H     0.78932   0.39240   0.01919   0.00000  Uiso   1.00
H305   H     0.80554   0.42448   0.06008   0.00000  Uiso   1.00
H306   H     0.81028   0.14909   0.24076   0.00000  Uiso   1.00
H307   H     0.80734   0.17237   0.29821   0.00000  Uiso   1.00
H308   H     0.85567   0.14961   0.27750   0.00000  Uiso   1.00
H309   H     0.81895   0.09561   0.33141   0.00000  Uiso   1.00
H310   H     0.96085   0.13785   0.31751   0.00000  Uiso   1.00
H311   H     0.82959   0.07011   0.27719   0.00000  Uiso   1.00
H312   H     0.75532   0.08696   0.25085   0.00000  Uiso   1.00
H313   H     0.74625   0.11607   0.30028   0.00000  Uiso   1.00
H314   H     0.69380   0.15281   0.09725   0.00000  Uiso   1.00
H315   H     0.70602   0.17734   0.04233   0.00000  Uiso   1.00
H316   H     0.65347   0.16124   0.05480   0.00000  Uiso   1.00
H317   H     0.68592   0.10301   0.00358   0.00000  Uiso   1.00
H318   H     0.67233   0.07812   0.05677   0.00000  Uiso   1.00
H319   H     0.74651   0.08585   0.08476   0.00000  Uiso   1.00
H320   H     0.76078   0.11444   0.03803   0.00000  Uiso   1.00
H321   H     0.96428   0.09707   0.03016   0.00000  Uiso   1.00
H322   H     0.70230   0.35260   0.22276   0.00000  Uiso   1.00
H323   H     0.73507   0.31860   0.26048   0.00000  Uiso   1.00
H324   H     0.67989   0.31856   0.26757   0.00000  Uiso   1.00
H325   H     0.71272   0.36734   0.32635   0.00000  Uiso   1.00
H326   H     0.68214   0.40312   0.28960   0.00000  Uiso   1.00
H327   H     0.74939   0.41531   0.24526   0.00000  Uiso   1.00
H328   H     0.77665   0.39058   0.28573   0.00000  Uiso   1.00
H329   H     0.88528   0.23422   0.11010   0.00000  Uiso   1.00
H330   H     0.57659   0.38171   0.27761   0.00000  Uiso   1.00
H331   H     0.61371   0.27129   0.10413   0.00000  Uiso   1.00
H332   H     0.52609   0.14205   0.03953   0.00000  Uiso   1.00
H333   H     0.98127   0.12017   0.20330   0.00000  Uiso   1.00
H334   H     0.61491   0.23876   0.21731   0.00000  Uiso   1.00
H335   H     0.91435   0.37317   0.05203   0.00000  Uiso   1.00
H336   H     0.88528   0.26840   0.22769   0.00000  Uiso   1.00
H337   H     0.51670   0.11526   0.13903   0.00000  Uiso   1.00
H338   H     0.65235   0.44342   0.07283   0.00000  Uiso   1.00
H339   H     0.86492   0.01342   0.22151   0.00000  Uiso   1.00
H340   H     0.79303   0.17176   0.09844   0.00000  Uiso   1.00
H341   H     0.61951   0.44024   0.27491   0.00000  Uiso   1.00
H342   H     0.84506   0.43929   0.26127   0.00000  Uiso   1.00
H343   H     0.99374   0.16282   0.08094   0.00000  Uiso   1.00
H344   H     0.63501   0.01629   0.10538   0.00000  Uiso   1.00
H345   H     0.69250   0.12369   0.25379   0.00000  Uiso   1.00
H346   H     0.88097   0.43705   0.05964   0.00000  Uiso   1.00
H347   H     0.93927   0.39672   0.22406   0.00000  Uiso   1.00
H348   H     0.93882   0.42041   0.28193   0.00000  Uiso   1.00
N349   N     0.50000   0.25000   0.28402   0.00000  Uiso   1.00
N350   N     0.50000   0.25000   0.04931   0.00000  Uiso   1.00
N351   N     0.75000  -0.00000   0.28402   0.00000  Uiso   1.00
N352   N     0.75000  -0.00000   0.04931   0.00000  Uiso   1.00
O353   O     0.54508   0.20491   0.20625   0.00000  Uiso   1.00
O354   O     0.70491   0.04509   0.12709   0.00000  Uiso   1.00
O355   O     0.70491   0.04509   0.20625   0.00000  Uiso   1.00
O356   O     0.79508   0.45491   0.12709   0.00000  Uiso   1.00
O357   O     0.70491   0.45491   0.12709   0.00000  Uiso   1.00
O358   O     0.79508   0.04509   0.20625   0.00000  Uiso   1.00
O359   O     0.79508   0.04509   0.12709   0.00000  Uiso   1.00
O360   O     0.70491   0.45491   0.20625   0.00000  Uiso   1.00
O361   O     0.83091   0.23975   0.13968   0.00000  Uiso   1.00
O362   O     0.59756   0.31737   0.27073   0.00000  Uiso   1.00
O363   O     0.65792   0.30496   0.07264   0.00000  Uiso   1.00
O364   O     0.95491   0.29509   0.12709   0.00000  Uiso   1.00
O365   O     0.95400   0.07921   0.24747   0.00000  Uiso   1.00
O366   O     0.67006   0.23951   0.18932   0.00000  Uiso   1.00
O367   O     0.89720   0.30875   0.06462   0.00000  Uiso   1.00
O368   O     0.83629   0.29863   0.25433   0.00000  Uiso   1.00
O369   O     0.54098   0.07241   0.09359   0.00000  Uiso   1.00
O370   O     0.63029   0.38640   0.04403   0.00000  Uiso   1.00
O371   O     0.92021   0.01120   0.19363   0.00000  Uiso   1.00
O372   O     0.76307   0.14008   0.14798   0.00000  Uiso   1.00
O373   O     0.62887   0.48825   0.22851   0.00000  Uiso   1.00
O374   O     0.86004   0.37960   0.28912   0.00000  Uiso   1.00
O375   O     0.95491   0.29509   0.20625   0.00000  Uiso   1.00
O376   O     0.58394   0.00779   0.14098   0.00000  Uiso   1.00
O377   O     0.72122   0.17369   0.21962   0.00000  Uiso   1.00
O378   O     0.87383   0.48491   0.10758   0.00000  Uiso   1.00
O379   O     0.54508   0.20491   0.12709   0.00000  Uiso   1.00
O380   O     0.95491   0.20491   0.12709   0.00000  Uiso   1.00
O381   O     0.54508   0.29509   0.20625   0.00000  Uiso   1.00
O382   O     0.54508   0.29509   0.12709   0.00000  Uiso   1.00
O383   O     0.95491   0.20491   0.20625   0.00000  Uiso   1.00
O384   O     0.79508   0.45491   0.20625   0.00000  Uiso   1.00
C385   C     0.05845   0.69002   0.16657   0.00000  Uiso   1.00
C386   C     0.49080   0.78956   0.31009   0.00000  Uiso   1.00
C387   C     0.00111   0.79083   0.02456   0.00000  Uiso   1.00
C388   C     0.01273   0.71184   0.30946   0.00000  Uiso   1.00
C389   C     0.25510   0.95866   0.02397   0.00000  Uiso   1.00
C390   C     0.25209   0.54087   0.30933   0.00000  Uiso   1.00
C391   C     0.24713   0.54083   0.02480   0.00000  Uiso   1.00
C392   C     0.25011   0.95844   0.30787   0.00000  Uiso   1.00
C393   C     0.36862   0.66961   0.14802   0.00000  Uiso   1.00
C394   C     0.10380   0.86875   0.20880   0.00000  Uiso   1.00
C395   C     0.12140   0.84459   0.13092   0.00000  Uiso   1.00
C396   C     0.43820   0.80625   0.16587   0.00000  Uiso   1.00
C397   C     0.41346   0.61342   0.18834   0.00000  Uiso   1.00
C398   C     0.13069   0.67031   0.18392   0.00000  Uiso   1.00
C399   C     0.39367   0.86448   0.12418   0.00000  Uiso   1.00
C400   C     0.37571   0.84095   0.20132   0.00000  Uiso   1.00
C401   C     0.08559   0.61183   0.14635   0.00000  Uiso   1.00
C402   C     0.14132   0.88739   0.12478   0.00000  Uiso   1.00
C403   C     0.38120   0.58052   0.18721   0.00000  Uiso   1.00
C404   C     0.33585   0.63765   0.14896   0.00000  Uiso   1.00
C405   C     0.12728   0.90949   0.20402   0.00000  Uiso   1.00
C406   C     0.35513   0.88350   0.20783   0.00000  Uiso   1.00
C407   C     0.44109   0.69039   0.16644   0.00000  Uiso   1.00
C408   C     0.11871   0.57997   0.14594   0.00000  Uiso   1.00
C409   C     0.16195   0.63697   0.18776   0.00000  Uiso   1.00
C410   C     0.37138   0.90594   0.12946   0.00000  Uiso   1.00
C411   C     0.09733   0.83882   0.17014   0.00000  Uiso   1.00
C412   C     0.40751   0.65672   0.16645   0.00000  Uiso   1.00
C413   C     0.40079   0.83579   0.16292   0.00000  Uiso   1.00
C414   C     0.09193   0.65657   0.16605   0.00000  Uiso   1.00
C415   C     0.34246   0.59323   0.16820   0.00000  Uiso   1.00
C416   C     0.15031   0.91523   0.16394   0.00000  Uiso   1.00
C417   C     0.15685   0.59293   0.16651   0.00000  Uiso   1.00
C418   C     0.06120   0.80728   0.16754   0.00000  Uiso   1.00
C419   C     0.34797   0.91236   0.16925   0.00000  Uiso   1.00
C420   C     0.49714   0.66186   0.04406   0.00000  Uiso   1.00
C421   C     0.46076   0.63459   0.02199   0.00000  Uiso   1.00
C422   C     0.41883   0.65102   0.03874   0.00000  Uiso   1.00
C423   C     0.46398   0.82990   0.29354   0.00000  Uiso   1.00
C424   C     0.48713   0.86919   0.26917   0.00000  Uiso   1.00
C425   C     0.45859   0.90832   0.25347   0.00000  Uiso   1.00
C426   C     0.02831   0.83181   0.03957   0.00000  Uiso   1.00
C427   C     0.00593   0.87134   0.06494   0.00000  Uiso   1.00
C428   C     0.03485   0.91131   0.07818   0.00000  Uiso   1.00
C429   C     0.31140   0.94312   0.16733   0.00000  Uiso   1.00
C430   C     0.05347   0.68720   0.29936   0.00000  Uiso   1.00
C431   C     0.04952   0.63648   0.28159   0.00000  Uiso   1.00
C432   C     0.09075   0.61086   0.28591   0.00000  Uiso   1.00
C433   C     0.27571   0.91511   0.04499   0.00000  Uiso   1.00
C434   C     0.24948   0.88319   0.07538   0.00000  Uiso   1.00
C435   C     0.26423   0.83259   0.07368   0.00000  Uiso   1.00
C436   C     0.26411   0.58635   0.28698   0.00000  Uiso   1.00
C437   C     0.31049   0.59684   0.29442   0.00000  Uiso   1.00
C438   C     0.32158   0.64495   0.27655   0.00000  Uiso   1.00
C439   C     0.23900   0.58708   0.04866   0.00000  Uiso   1.00
C440   C     0.19113   0.55986   0.16666   0.00000  Uiso   1.00
C441   C     0.19389   0.60286   0.04069   0.00000  Uiso   1.00
C442   C     0.18646   0.65160   0.06005   0.00000  Uiso   1.00
C443   C     0.24847   0.91156   0.28165   0.00000  Uiso   1.00
C444   C     0.21044   0.88172   0.29171   0.00000  Uiso   1.00
C445   C     0.20674   0.84041   0.25846   0.00000  Uiso   1.00
C446   C     0.36198   0.71768   0.13042   0.00000  Uiso   1.00
C447   C     0.09049   0.85604   0.25548   0.00000  Uiso   1.00
C448   C     0.13010   0.80388   0.10034   0.00000  Uiso   1.00
C449   C     0.45299   0.60377   0.21358   0.00000  Uiso   1.00
C450   C     0.13818   0.71943   0.19905   0.00000  Uiso   1.00
C451   C     0.18815   0.94396   0.16590   0.00000  Uiso   1.00
C452   C     0.40367   0.84882   0.07701   0.00000  Uiso   1.00
C453   C     0.36665   0.79965   0.23007   0.00000  Uiso   1.00
C454   C     0.04440   0.59926   0.12610   0.00000  Uiso   1.00
C455   C     0.14265   0.90788   0.07787   0.00000  Uiso   1.00
C456   C     0.38837   0.53183   0.20289   0.00000  Uiso   1.00
C457   C     0.29495   0.65094   0.12921   0.00000  Uiso   1.00
C458   C     0.12531   0.94753   0.23931   0.00000  Uiso   1.00
C459   C     0.35184   0.90288   0.25540   0.00000  Uiso   1.00
C460   C     0.11288   0.53152   0.12847   0.00000  Uiso   1.00
C461   C     0.19437   0.64418   0.22314   0.00000  Uiso   1.00
C462   C     0.30913   0.55930   0.16707   0.00000  Uiso   1.00
C463   C     0.37565   0.94419   0.09550   0.00000  Uiso   1.00
C464   C     0.00161   0.70955   0.02339   0.00000  Uiso   1.00
Cu465  Cu    0.00000   0.75000   0.21355   0.00000  Uiso   1.00
Cu466  Cu    0.00000   0.75000   0.11978   0.00000  Uiso   1.00
Cu467  Cu    0.25000   0.50000   0.21355   0.00000  Uiso   1.00
Cu468  Cu    0.25000   0.50000   0.11978   0.00000  Uiso   1.00
H469   H     0.41543   0.64141   0.07502   0.00000  Uiso   1.00
H470   H     0.47744   0.93821   0.24199   0.00000  Uiso   1.00
H471   H     0.00942   0.88574   0.29317   0.00000  Uiso   1.00
H472   H     0.00386   0.85581   0.23926   0.00000  Uiso   1.00
H473   H     0.43622   0.81716   0.27546   0.00000  Uiso   1.00
H474   H     0.44902   0.84604   0.32339   0.00000  Uiso   1.00
H475   H     0.05708   0.90007   0.10500   0.00000  Uiso   1.00
H476   H     0.05162   0.92389   0.04783   0.00000  Uiso   1.00
H477   H     0.01657   0.94065   0.09236   0.00000  Uiso   1.00
H478   H     0.48172   0.88636   0.04250   0.00000  Uiso   1.00
H479   H     0.49169   0.85856   0.09642   0.00000  Uiso   1.00
H480   H     0.41544   0.68926   0.03481   0.00000  Uiso   1.00
H481   H     0.05640   0.81974   0.05723   0.00000  Uiso   1.00
H482   H     0.04300   0.84684   0.00926   0.00000  Uiso   1.00
H483   H     0.11568   0.63130   0.27013   0.00000  Uiso   1.00
H484   H     0.09886   0.60532   0.32258   0.00000  Uiso   1.00
H485   H     0.08850   0.57645   0.26839   0.00000  Uiso   1.00
H486   H     0.02657   0.61643   0.30073   0.00000  Uiso   1.00
H487   H     0.03916   0.63510   0.24553   0.00000  Uiso   1.00
H488   H     0.07328   0.70872   0.27763   0.00000  Uiso   1.00
H489   H     0.07237   0.68651   0.33161   0.00000  Uiso   1.00
H490   H     0.26088   0.81807   0.03843   0.00000  Uiso   1.00
H491   H     0.39386   0.63338   0.01862   0.00000  Uiso   1.00
H492   H     0.29717   0.83043   0.08495   0.00000  Uiso   1.00
H493   H     0.24540   0.81119   0.09697   0.00000  Uiso   1.00
H494   H     0.25114   0.89343   0.11173   0.00000  Uiso   1.00
H495   H     0.21684   0.88443   0.06458   0.00000  Uiso   1.00
H496   H     0.28932   0.89240   0.01919   0.00000  Uiso   1.00
H497   H     0.30554   0.92448   0.06008   0.00000  Uiso   1.00
H498   H     0.31028   0.64909   0.24076   0.00000  Uiso   1.00
H499   H     0.30734   0.67237   0.29821   0.00000  Uiso   1.00
H500   H     0.35567   0.64961   0.27750   0.00000  Uiso   1.00
H501   H     0.31895   0.59561   0.33141   0.00000  Uiso   1.00
H502   H     0.46085   0.63785   0.31751   0.00000  Uiso   1.00
H503   H     0.32959   0.57011   0.27719   0.00000  Uiso   1.00
H504   H     0.25532   0.58696   0.25085   0.00000  Uiso   1.00
H505   H     0.24625   0.61607   0.30028   0.00000  Uiso   1.00
H506   H     0.19380   0.65281   0.09725   0.00000  Uiso   1.00
H507   H     0.20602   0.67734   0.04233   0.00000  Uiso   1.00
H508   H     0.15347   0.66124   0.05480   0.00000  Uiso   1.00
H509   H     0.18592   0.60301   0.00358   0.00000  Uiso   1.00
H510   H     0.17233   0.57812   0.05677   0.00000  Uiso   1.00
H511   H     0.24651   0.58585   0.08476   0.00000  Uiso   1.00
H512   H     0.26078   0.61444   0.03803   0.00000  Uiso   1.00
H513   H     0.46428   0.59707   0.03016   0.00000  Uiso   1.00
H514   H     0.20230   0.85260   0.22276   0.00000  Uiso   1.00
H515   H     0.23507   0.81860   0.26048   0.00000  Uiso   1.00
H516   H     0.17989   0.81856   0.26757   0.00000  Uiso   1.00
H517   H     0.21272   0.86734   0.32635   0.00000  Uiso   1.00
H518   H     0.18214   0.90312   0.28960   0.00000  Uiso   1.00
H519   H     0.24939   0.91531   0.24526   0.00000  Uiso   1.00
H520   H     0.27665   0.89058   0.28573   0.00000  Uiso   1.00
H521   H     0.38528   0.73422   0.11010   0.00000  Uiso   1.00
H522   H     0.07659   0.88171   0.27761   0.00000  Uiso   1.00
H523   H     0.11371   0.77129   0.10413   0.00000  Uiso   1.00
H524   H     0.02609   0.64205   0.03953   0.00000  Uiso   1.00
H525   H     0.48127   0.62017   0.20330   0.00000  Uiso   1.00
H526   H     0.11491   0.73876   0.21731   0.00000  Uiso   1.00
H527   H     0.41435   0.87317   0.05203   0.00000  Uiso   1.00
H528   H     0.38528   0.76840   0.22769   0.00000  Uiso   1.00
H529   H     0.01670   0.61526   0.13903   0.00000  Uiso   1.00
H530   H     0.15235   0.94342   0.07283   0.00000  Uiso   1.00
H531   H     0.36492   0.51342   0.22151   0.00000  Uiso   1.00
H532   H     0.29303   0.67176   0.09844   0.00000  Uiso   1.00
H533   H     0.11951   0.94024   0.27491   0.00000  Uiso   1.00
H534   H     0.34506   0.93929   0.26127   0.00000  Uiso   1.00
H535   H     0.49374   0.66282   0.08094   0.00000  Uiso   1.00
H536   H     0.13501   0.51629   0.10538   0.00000  Uiso   1.00
H537   H     0.19250   0.62369   0.25379   0.00000  Uiso   1.00
H538   H     0.38097   0.93705   0.05964   0.00000  Uiso   1.00
H539   H     0.43927   0.89672   0.22406   0.00000  Uiso   1.00
H540   H     0.43882   0.92041   0.28193   0.00000  Uiso   1.00
N541   N     0.00000   0.75000   0.28402   0.00000  Uiso   1.00
N542   N     0.00000   0.75000   0.04931   0.00000  Uiso   1.00
N543   N     0.25000   0.50000   0.28402   0.00000  Uiso   1.00
N544   N     0.25000   0.50000   0.04931   0.00000  Uiso   1.00
O545   O     0.04508   0.70491   0.20625   0.00000  Uiso   1.00
O546   O     0.20491   0.54509   0.12709   0.00000  Uiso   1.00
O547   O     0.20491   0.54509   0.20625   0.00000  Uiso   1.00
O548   O     0.29508   0.95491   0.12709   0.00000  Uiso   1.00
O549   O     0.20491   0.95491   0.12709   0.00000  Uiso   1.00
O550   O     0.29508   0.54509   0.20625   0.00000  Uiso   1.00
O551   O     0.29508   0.54509   0.12709   0.00000  Uiso   1.00
O552   O     0.20491   0.95491   0.20625   0.00000  Uiso   1.00
O553   O     0.33091   0.73975   0.13968   0.00000  Uiso   1.00
O554   O     0.09756   0.81737   0.27073   0.00000  Uiso   1.00
O555   O     0.15792   0.80496   0.07264   0.00000  Uiso   1.00
O556   O     0.45491   0.79509   0.12709   0.00000  Uiso   1.00
O557   O     0.45400   0.57921   0.24747   0.00000  Uiso   1.00
O558   O     0.17006   0.73951   0.18932   0.00000  Uiso   1.00
O559   O     0.39720   0.80875   0.06462   0.00000  Uiso   1.00
O560   O     0.33629   0.79863   0.25433   0.00000  Uiso   1.00
O561   O     0.04098   0.57241   0.09359   0.00000  Uiso   1.00
O562   O     0.13029   0.88640   0.04403   0.00000  Uiso   1.00
O563   O     0.42021   0.51120   0.19363   0.00000  Uiso   1.00
O564   O     0.26307   0.64008   0.14798   0.00000  Uiso   1.00
O565   O     0.12887   0.98825   0.22851   0.00000  Uiso   1.00
O566   O     0.36004   0.87960   0.28912   0.00000  Uiso   1.00
O567   O     0.45491   0.79509   0.20625   0.00000  Uiso   1.00
O568   O     0.08394   0.50779   0.14098   0.00000  Uiso   1.00
O569   O     0.22122   0.67369   0.21962   0.00000  Uiso   1.00
O570   O     0.37383   0.98491   0.10758   0.00000  Uiso   1.00
O571   O     0.04508   0.70491   0.12709   0.00000  Uiso   1.00
O572   O     0.45491   0.70491   0.12709   0.00000  Uiso   1.00
O573   O     0.04508   0.79509   0.20625   0.00000  Uiso   1.00
O574   O     0.04508   0.79509   0.12709   0.00000  Uiso   1.00
O575   O     0.45491   0.70491   0.20625   0.00000  Uiso   1.00
O576   O     0.29508   0.95491   0.20625   0.00000  Uiso   1.00
C577   C     0.55845   0.69002   0.16657   0.00000  Uiso   1.00
C578   C     0.99080   0.78956   0.31009   0.00000  Uiso   1.00
C579   C     0.50111   0.79083   0.02456   0.00000  Uiso   1.00
C580   C     0.51273   0.71184   0.30946   0.00000  Uiso   1.00
C581   C     0.75510   0.95866   0.02397   0.00000  Uiso   1.00
C582   C     0.75209   0.54087   0.30933   0.00000  Uiso   1.00
C583   C     0.74713   0.54083   0.02480   0.00000  Uiso   1.00
C584   C     0.75011   0.95844   0.30787   0.00000  Uiso   1.00
C585   C     0.86862   0.66961   0.14802   0.00000  Uiso   1.00
C586   C     0.60380   0.86875   0.20880   0.00000  Uiso   1.00
C587   C     0.62140   0.84459   0.13092   0.00000  Uiso   1.00
C588   C     0.93820   0.80625   0.16587   0.00000  Uiso   1.00
C589   C     0.91346   0.61342   0.18834   0.00000  Uiso   1.00
C590   C     0.63069   0.67031   0.18392   0.00000  Uiso   1.00
C591   C     0.89367   0.86448   0.12418   0.00000  Uiso   1.00
C592   C     0.87571   0.84095   0.20132   0.00000  Uiso   1.00
C593   C     0.58559   0.61183   0.14635   0.00000  Uiso   1.00
C594   C     0.64132   0.88739   0.12478   0.00000  Uiso   1.00
C595   C     0.88120   0.58052   0.18721   0.00000  Uiso   1.00
C596   C     0.83585   0.63765   0.14896   0.00000  Uiso   1.00
C597   C     0.62728   0.90949   0.20402   0.00000  Uiso   1.00
C598   C     0.85513   0.88350   0.20783   0.00000  Uiso   1.00
C599   C     0.94109   0.69039   0.16644   0.00000  Uiso   1.00
C600   C     0.61871   0.57997   0.14594   0.00000  Uiso   1.00
C601   C     0.66195   0.63697   0.18776   0.00000  Uiso   1.00
C602   C     0.87138   0.90594   0.12946   0.00000  Uiso   1.00
C603   C     0.59733   0.83882   0.17014   0.00000  Uiso   1.00
C604   C     0.90751   0.65672   0.16645   0.00000  Uiso   1.00
C605   C     0.90079   0.83579   0.16292   0.00000  Uiso   1.00
C606   C     0.59193   0.65657   0.16605   0.00000  Uiso   1.00
C607   C     0.84246   0.59323   0.16820   0.00000  Uiso   1.00
C608   C     0.65031   0.91523   0.16394   0.00000  Uiso   1.00
C609   C     0.65685   0.59293   0.16651   0.00000  Uiso   1.00
C610   C     0.56120   0.80728   0.16754   0.00000  Uiso   1.00
C611   C     0.84797   0.91236   0.16925   0.00000  Uiso   1.00
C612   C     0.99714   0.66186   0.04406   0.00000  Uiso   1.00
C613   C     0.96076   0.63459   0.02199   0.00000  Uiso   1.00
C614   C     0.91883   0.65102   0.03874   0.00000  Uiso   1.00
C615   C     0.96398   0.82990   0.29354   0.00000  Uiso   1.00
C616   C     0.98713   0.86919   0.26917   0.00000  Uiso   1.00
C617   C     0.95859   0.90832   0.25347   0.00000  Uiso   1.00
C618   C     0.52831   0.83181   0.03957   0.00000  Uiso   1.00
C619   C     0.50593   0.87134   0.06494   0.00000  Uiso   1.00
C620   C     0.53485   0.91131   0.07818   0.00000  Uiso   1.00
C621   C     0.81140   0.94312   0.16733   0.00000  Uiso   1.00
C622   C     0.55347   0.68720   0.29936   0.00000  Uiso   1.00
C623   C     0.54952   0.63648   0.28159   0.00000  Uiso   1.00
C624   C     0.59075   0.61086   0.28591   0.00000  Uiso   1.00
C625   C     0.77571   0.91511   0.04499   0.00000  Uiso   1.00
C626   C     0.74948   0.88319   0.07538   0.00000  Uiso   1.00
C627   C     0.76423   0.83259   0.07368   0.00000  Uiso   1.00
C628   C     0.76411   0.58635   0.28698   0.00000  Uiso   1.00
C629   C     0.81049   0.59684   0.29442   0.00000  Uiso   1.00
C630   C     0.82158   0.64495   0.27655   0.00000  Uiso   1.00
C631   C     0.73900   0.58708   0.04866   0.00000  Uiso   1.00
C632   C     0.69113   0.55986   0.16666   0.00000  Uiso   1.00
C633   C     0.69389   0.60286   0.04069   0.00000  Uiso   1.00
C634   C     0.68646   0.65160   0.06005   0.00000  Uiso   1.00
C635   C     0.74847   0.91156   0.28165   0.00000  Uiso   1.00
C636   C     0.71044   0.88172   0.29171   0.00000  Uiso   1.00
C637   C     0.70674   0.84041   0.25846   0.00000  Uiso   1.00
C638   C     0.86198   0.71768   0.13042   0.00000  Uiso   1.00
C639   C     0.59049   0.85604   0.25548   0.00000  Uiso   1.00
C640   C     0.63010   0.80388   0.10034   0.00000  Uiso   1.00
C641   C     0.95299   0.60377   0.21358   0.00000  Uiso   1.00
C642   C     0.63818   0.71943   0.19905   0.00000  Uiso   1.00
C643   C     0.68815   0.94396   0.16590   0.00000  Uiso   1.00
C644   C     0.90367   0.84882   0.07701   0.00000  Uiso   1.00
C645   C     0.86665   0.79965   0.23007   0.00000  Uiso   1.00
C646   C     0.54440   0.59926   0.12610   0.00000  Uiso   1.00
C647   C     0.64265   0.90788   0.07787   0.00000  Uiso   1.00
C648   C     0.88837   0.53183   0.20289   0.00000  Uiso   1.00
C649   C     0.79495   0.65094   0.12921   0.00000  Uiso   1.00
C650   C     0.62531   0.94753   0.23931   0.00000  Uiso   1.00
C651   C     0.85184   0.90288   0.25540   0.00000  Uiso   1.00
C652   C     0.61288   0.53152   0.12847   0.00000  Uiso   1.00
C653   C     0.69437   0.64418   0.22314   0.00000  Uiso   1.00
C654   C     0.80913   0.55930   0.16707   0.00000  Uiso   1.00
C655   C     0.87565   0.94419   0.09550   0.00000  Uiso   1.00
C656   C     0.50161   0.70955   0.02339   0.00000  Uiso   1.00
Cu657  Cu    0.50000   0.75000   0.21355   0.00000  Uiso   1.00
Cu658  Cu    0.50000   0.75000   0.11978   0.00000  Uiso   1.00
Cu659  Cu    0.75000   0.50000   0.21355   0.00000  Uiso   1.00
Cu660  Cu    0.75000   0.50000   0.11978   0.00000  Uiso   1.00
H661   H     0.91543   0.64141   0.07502   0.00000  Uiso   1.00
H662   H     0.97744   0.93821   0.24199   0.00000  Uiso   1.00
H663   H     0.50942   0.88574   0.29317   0.00000  Uiso   1.00
H664   H     0.50386   0.85581   0.23926   0.00000  Uiso   1.00
H665   H     0.93622   0.81716   0.27546   0.00000  Uiso   1.00
H666   H     0.94902   0.84604   0.32339   0.00000  Uiso   1.00
H667   H     0.55708   0.90007   0.10500   0.00000  Uiso   1.00
H668   H     0.55162   0.92389   0.04783   0.00000  Uiso   1.00
H669   H     0.51657   0.94065   0.09236   0.00000  Uiso   1.00
H670   H     0.98172   0.88636   0.04250   0.00000  Uiso   1.00
H671   H     0.99169   0.85856   0.09642   0.00000  Uiso   1.00
H672   H     0.91544   0.68926   0.03481   0.00000  Uiso   1.00
H673   H     0.55640   0.81974   0.05723   0.00000  Uiso   1.00
H674   H     0.54300   0.84684   0.00926   0.00000  Uiso   1.00
H675   H     0.61568   0.63130   0.27013   0.00000  Uiso   1.00
H676   H     0.59886   0.60532   0.32258   0.00000  Uiso   1.00
H677   H     0.58850   0.57645   0.26839   0.00000  Uiso   1.00
H678   H     0.52657   0.61643   0.30073   0.00000  Uiso   1.00
H679   H     0.53916   0.63510   0.24553   0.00000  Uiso   1.00
H680   H     0.57328   0.70872   0.27763   0.00000  Uiso   1.00
H681   H     0.57237   0.68651   0.33161   0.00000  Uiso   1.00
H682   H     0.76088   0.81807   0.03843   0.00000  Uiso   1.00
H683   H     0.89386   0.63338   0.01862   0.00000  Uiso   1.00
H684   H     0.79717   0.83043   0.08495   0.00000  Uiso   1.00
H685   H     0.74540   0.81119   0.09697   0.00000  Uiso   1.00
H686   H     0.75114   0.89343   0.11173   0.00000  Uiso   1.00
H687   H     0.71684   0.88443   0.06458   0.00000  Uiso   1.00
H688   H     0.78932   0.89240   0.01919   0.00000  Uiso   1.00
H689   H     0.80554   0.92448   0.06008   0.00000  Uiso   1.00
H690   H     0.81028   0.64909   0.24076   0.00000  Uiso   1.00
H691   H     0.80734   0.67237   0.29821   0.00000  Uiso   1.00
H692   H     0.85567   0.64961   0.27750   0.00000  Uiso   1.00
H693   H     0.81895   0.59561   0.33141   0.00000  Uiso   1.00
H694   H     0.96085   0.63785   0.31751   0.00000  Uiso   1.00
H695   H     0.82959   0.57011   0.27719   0.00000  Uiso   1.00
H696   H     0.75532   0.58696   0.25085   0.00000  Uiso   1.00
H697   H     0.74625   0.61607   0.30028   0.00000  Uiso   1.00
H698   H     0.69380   0.65281   0.09725   0.00000  Uiso   1.00
H699   H     0.70602   0.67734   0.04233   0.00000  Uiso   1.00
H700   H     0.65347   0.66124   0.05480   0.00000  Uiso   1.00
H701   H     0.68592   0.60301   0.00358   0.00000  Uiso   1.00
H702   H     0.67233   0.57812   0.05677   0.00000  Uiso   1.00
H703   H     0.74651   0.58585   0.08476   0.00000  Uiso   1.00
H704   H     0.76078   0.61444   0.03803   0.00000  Uiso   1.00
H705   H     0.96428   0.59707   0.03016   0.00000  Uiso   1.00
H706   H     0.70230   0.85260   0.22276   0.00000  Uiso   1.00
H707   H     0.73507   0.81860   0.26048   0.00000  Uiso   1.00
H708   H     0.67989   0.81856   0.26757   0.00000  Uiso   1.00
H709   H     0.71272   0.86734   0.32635   0.00000  Uiso   1.00
H710   H     0.68214   0.90312   0.28960   0.00000  Uiso   1.00
H711   H     0.74939   0.91531   0.24526   0.00000  Uiso   1.00
H712   H     0.77665   0.89058   0.28573   0.00000  Uiso   1.00
H713   H     0.88528   0.73422   0.11010   0.00000  Uiso   1.00
H714   H     0.57659   0.88171   0.27761   0.00000  Uiso   1.00
H715   H     0.61371   0.77129   0.10413   0.00000  Uiso   1.00
H716   H     0.52609   0.64205   0.03953   0.00000  Uiso   1.00
H717   H     0.98127   0.62017   0.20330   0.00000  Uiso   1.00
H718   H     0.61491   0.73876   0.21731   0.00000  Uiso   1.00
H719   H     0.91435   0.87317   0.05203   0.00000  Uiso   1.00
H720   H     0.88528   0.76840   0.22769   0.00000  Uiso   1.00
H721   H     0.51670   0.61526   0.13903   0.00000  Uiso   1.00
H722   H     0.65235   0.94342   0.07283   0.00000  Uiso   1.00
H723   H     0.86492   0.51342   0.22151   0.00000  Uiso   1.00
H724   H     0.79303   0.67176   0.09844   0.00000  Uiso   1.00
H725   H     0.61951   0.94024   0.27491   0.00000  Uiso   1.00
H726   H     0.84506   0.93929   0.26127   0.00000  Uiso   1.00
H727   H     0.99374   0.66282   0.08094   0.00000  Uiso   1.00
H728   H     0.63501   0.51629   0.10538   0.00000  Uiso   1.00
H729   H     0.69250   0.62369   0.25379   0.00000  Uiso   1.00
H730   H     0.88097   0.93705   0.05964   0.00000  Uiso   1.00
H731   H     0.93927   0.89672   0.22406   0.00000  Uiso   1.00
H732   H     0.93882   0.92041   0.28193   0.00000  Uiso   1.00
N733   N     0.50000   0.75000   0.28402   0.00000  Uiso   1.00
N734   N     0.50000   0.75000   0.04931   0.00000  Uiso   1.00
N735   N     0.75000   0.50000   0.28402   0.00000  Uiso   1.00
N736   N     0.75000   0.50000   0.04931   0.00000  Uiso   1.00
O737   O     0.54508   0.70491   0.20625   0.00000  Uiso   1.00
O738   O     0.70491   0.54509   0.12709   0.00000  Uiso   1.00
O739   O     0.70491   0.54509   0.20625   0.00000  Uiso   1.00
O740   O     0.79508   0.95491   0.12709   0.00000  Uiso   1.00
O741   O     0.70491   0.95491   0.12709   0.00000  Uiso   1.00
O742   O     0.79508   0.54509   0.20625   0.00000  Uiso   1.00
O743   O     0.79508   0.54509   0.12709   0.00000  Uiso   1.00
O744   O     0.70491   0.95491   0.20625   0.00000  Uiso   1.00
O745   O     0.83091   0.73975   0.13968   0.00000  Uiso   1.00
O746   O     0.59756   0.81737   0.27073   0.00000  Uiso   1.00
O747   O     0.65792   0.80496   0.07264   0.00000  Uiso   1.00
O748   O     0.95491   0.79509   0.12709   0.00000  Uiso   1.00
O749   O     0.95400   0.57921   0.24747   0.00000  Uiso   1.00
O750   O     0.67006   0.73951   0.18932   0.00000  Uiso   1.00
O751   O     0.89720   0.80875   0.06462   0.00000  Uiso   1.00
O752   O     0.83629   0.79863   0.25433   0.00000  Uiso   1.00
O753   O     0.54098   0.57241   0.09359   0.00000  Uiso   1.00
O754   O     0.63029   0.88640   0.04403   0.00000  Uiso   1.00
O755   O     0.92021   0.51120   0.19363   0.00000  Uiso   1.00
O756   O     0.76307   0.64008   0.14798   0.00000  Uiso   1.00
O757   O     0.62887   0.98825   0.22851   0.00000  Uiso   1.00
O758   O     0.86004   0.87960   0.28912   0.00000  Uiso   1.00
O759   O     0.95491   0.79509   0.20625   0.00000  Uiso   1.00
O760   O     0.58394   0.50779   0.14098   0.00000  Uiso   1.00
O761   O     0.72122   0.67369   0.21962   0.00000  Uiso   1.00
O762   O     0.87383   0.98491   0.10758   0.00000  Uiso   1.00
O763   O     0.54508   0.70491   0.12709   0.00000  Uiso   1.00
O764   O     0.95491   0.70491   0.12709   0.00000  Uiso   1.00
O765   O     0.54508   0.79509   0.20625   0.00000  Uiso   1.00
O766   O     0.54508   0.79509   0.12709   0.00000  Uiso   1.00
O767   O     0.95491   0.70491   0.20625   0.00000  Uiso   1.00
O768   O     0.79508   0.95491   0.20625   0.00000  Uiso   1.00
C769   C     0.05845   0.19002   0.49990   0.00000  Uiso   1.00
C770   C     0.49080   0.28956   0.64342   0.00000  Uiso   1.00
C771   C     0.00111   0.29083   0.35789   0.00000  Uiso   1.00
C772   C     0.01273   0.21184   0.64280   0.00000  Uiso   1.00
C773   C     0.25510   0.45866   0.35731   0.00000  Uiso   1.00
C774   C     0.25209   0.04087   0.64267   0.00000  Uiso   1.00
C775   C     0.24713   0.04083   0.35813   0.00000  Uiso   1.00
C776   C     0.25011   0.45844   0.64121   0.00000  Uiso   1.00
C777   C     0.36862   0.16961   0.48136   0.00000  Uiso   1.00
C778   C     0.10380   0.36875   0.54214   0.00000  Uiso   1.00
C779   C     0.12140   0.34459   0.46426   0.00000  Uiso   1.00
C780   C     0.43820   0.30625   0.49920   0.00000  Uiso   1.00
C781   C     0.41346   0.11342   0.52167   0.00000  Uiso   1.00
C782   C     0.13069   0.17031   0.51725   0.00000  Uiso   1.00
C783   C     0.39367   0.36448   0.45751   0.00000  Uiso   1.00
C784   C     0.37571   0.34095   0.53465   0.00000  Uiso   1.00
C785   C     0.08559   0.11183   0.47969   0.00000  Uiso   1.00
C786   C     0.14132   0.38739   0.45811   0.00000  Uiso   1.00
C787   C     0.38120   0.08052   0.52054   0.00000  Uiso   1.00
C788   C     0.33585   0.13765   0.48229   0.00000  Uiso   1.00
C789   C     0.12728   0.40949   0.53736   0.00000  Uiso   1.00
C790   C     0.35513   0.38350   0.54116   0.00000  Uiso   1.00
C791   C     0.44109   0.19039   0.49978   0.00000  Uiso   1.00
C792   C     0.11871   0.07997   0.47927   0.00000  Uiso   1.00
C793   C     0.16195   0.13697   0.52110   0.00000  Uiso   1.00
C794   C     0.37138   0.40594   0.46279   0.00000  Uiso   1.00
C795   C     0.09733   0.33882   0.50347   0.00000  Uiso   1.00
C796   C     0.40751   0.15672   0.49978   0.00000  Uiso   1.00
C797   C     0.40079   0.33579   0.49625   0.00000  Uiso   1.00
C798   C     0.09193   0.15657   0.49938   0.00000  Uiso   1.00
C799   C     0.34246   0.09323   0.50154   0.00000  Uiso   1.00
C800   C     0.15031   0.41523   0.49727   0.00000  Uiso   1.00
C801   C     0.15685   0.09293   0.49984   0.00000  Uiso   1.00
C802   C     0.06120   0.30728   0.50087   0.00000  Uiso   1.00
C803   C     0.34797   0.41236   0.50258   0.00000  Uiso   1.00
C804   C     0.49714   0.16186   0.37740   0.00000  Uiso   1.00
C805   C     0.46076   0.13459   0.35532   0.00000  Uiso   1.00
C806   C     0.41883   0.15102   0.37207   0.00000  Uiso   1.00
C807   C     0.46398   0.32990   0.62687   0.00000  Uiso   1.00
C808   C     0.48713   0.36919   0.60250   0.00000  Uiso   1.00
C809   C     0.45859   0.40832   0.58680   0.00000  Uiso   1.00
C810   C     0.02831   0.33181   0.37290   0.00000  Uiso   1.00
C811   C     0.00593   0.37134   0.39828   0.00000  Uiso   1.00
C812   C     0.03485   0.41131   0.41152   0.00000  Uiso   1.00
C813   C     0.31140   0.44312   0.50067   0.00000  Uiso   1.00
C814   C     0.05347   0.18720   0.63269   0.00000  Uiso   1.00
C815   C     0.04952   0.13648   0.61492   0.00000  Uiso   1.00
C816   C     0.09075   0.11086   0.61924   0.00000  Uiso   1.00
C817   C     0.27571   0.41511   0.37832   0.00000  Uiso   1.00
C818   C     0.24948   0.38319   0.40872   0.00000  Uiso   1.00
C819   C     0.26423   0.33259   0.40702   0.00000  Uiso   1.00
C820   C     0.26411   0.08635   0.62031   0.00000  Uiso   1.00
C821   C     0.31049   0.09684   0.62776   0.00000  Uiso   1.00
C822   C     0.32158   0.14495   0.60988   0.00000  Uiso   1.00
C823   C     0.23900   0.08708   0.38199   0.00000  Uiso   1.00
C824   C     0.19113   0.05986   0.49999   0.00000  Uiso   1.00
C825   C     0.19389   0.10286   0.37403   0.00000  Uiso   1.00
C826   C     0.18646   0.15160   0.39338   0.00000  Uiso   1.00
C827   C     0.24847   0.41156   0.61499   0.00000  Uiso   1.00
C828   C     0.21044   0.38172   0.62505   0.00000  Uiso   1.00
C829   C     0.20674   0.34041   0.59180   0.00000  Uiso   1.00
C830   C     0.36198   0.21768   0.46375   0.00000  Uiso   1.00
C831   C     0.09049   0.35604   0.58881   0.00000  Uiso   1.00
C832   C     0.13010   0.30388   0.43367   0.00000  Uiso   1.00
C833   C     0.45299   0.10377   0.54692   0.00000  Uiso   1.00
C834   C     0.13818   0.21943   0.53238   0.00000  Uiso   1.00
C835   C     0.18815   0.44396   0.49924   0.00000  Uiso   1.00
C836   C     0.40367   0.34882   0.41034   0.00000  Uiso   1.00
C837   C     0.36665   0.29965   0.56341   0.00000  Uiso   1.00
C838   C     0.04440   0.09926   0.45943   0.00000  Uiso   1.00
C839   C     0.14265   0.40788   0.41120   0.00000  Uiso   1.00
C840   C     0.38837   0.03183   0.53622   0.00000  Uiso   1.00
C841   C     0.29495   0.15094   0.46255   0.00000  Uiso   1.00
C842   C     0.12531   0.44753   0.57264   0.00000  Uiso   1.00
C843   C     0.35184   0.40288   0.58874   0.00000  Uiso   1.00
C844   C     0.11288   0.03152   0.46180   0.00000  Uiso   1.00
C845   C     0.19437   0.14418   0.55647   0.00000  Uiso   1.00
C846   C     0.30913   0.05930   0.50041   0.00000  Uiso   1.00
C847   C     0.37565   0.44419   0.42883   0.00000  Uiso   1.00
C848   C     0.00161   0.20955   0.35673   0.00000  Uiso   1.00
Cu849  Cu    0.00000   0.25000   0.54689   0.00000  Uiso   1.00
Cu850  Cu    0.00000   0.25000   0.45311   0.00000  Uiso   1.00
Cu851  Cu    0.25000  -0.00000   0.54689   0.00000  Uiso   1.00
Cu852  Cu    0.25000  -0.00000   0.45311   0.00000  Uiso   1.00
H853   H     0.41543   0.14141   0.40835   0.00000  Uiso   1.00
H854   H     0.47744   0.43821   0.57533   0.00000  Uiso   1.00
H855   H     0.00942   0.38574   0.62650   0.00000  Uiso   1.00
H856   H     0.00386   0.35581   0.57259   0.00000  Uiso   1.00
H857   H     0.43622   0.31716   0.60879   0.00000  Uiso   1.00
H858   H     0.44902   0.34604   0.65672   0.00000  Uiso   1.00
H859   H     0.05708   0.40007   0.43833   0.00000  Uiso   1.00
H860   H     0.05162   0.42389   0.38116   0.00000  Uiso   1.00
H861   H     0.01657   0.44065   0.42569   0.00000  Uiso   1.00
H862   H     0.48172   0.38636   0.37583   0.00000  Uiso   1.00
H863   H     0.49169   0.35856   0.42976   0.00000  Uiso   1.00
H864   H     0.41544   0.18926   0.36814   0.00000  Uiso   1.00
H865   H     0.05640   0.31974   0.39057   0.00000  Uiso   1.00
H866   H     0.04300   0.34684   0.34259   0.00000  Uiso   1.00
H867   H     0.11568   0.13130   0.60346   0.00000  Uiso   1.00
H868   H     0.09886   0.10532   0.65592   0.00000  Uiso   1.00
H869   H     0.08850   0.07645   0.60173   0.00000  Uiso   1.00
H870   H     0.02657   0.11643   0.63406   0.00000  Uiso   1.00
H871   H     0.03916   0.13510   0.57886   0.00000  Uiso   1.00
H872   H     0.07328   0.20872   0.61096   0.00000  Uiso   1.00
H873   H     0.07237   0.18651   0.66495   0.00000  Uiso   1.00
H874   H     0.26088   0.31807   0.37176   0.00000  Uiso   1.00
H875   H     0.39386   0.13338   0.35195   0.00000  Uiso   1.00
H876   H     0.29717   0.33043   0.41828   0.00000  Uiso   1.00
H877   H     0.24540   0.31119   0.43031   0.00000  Uiso   1.00
H878   H     0.25114   0.39343   0.44506   0.00000  Uiso   1.00
H879   H     0.21684   0.38443   0.39792   0.00000  Uiso   1.00
H880   H     0.28932   0.39240   0.35252   0.00000  Uiso   1.00
H881   H     0.30554   0.42448   0.39341   0.00000  Uiso   1.00
H882   H     0.31028   0.14909   0.57409   0.00000  Uiso   1.00
H883   H     0.30734   0.17237   0.63154   0.00000  Uiso   1.00
H884   H     0.35567   0.14961   0.61083   0.00000  Uiso   1.00
H885   H     0.31895   0.09561   0.66475   0.00000  Uiso   1.00
H886   H     0.46085   0.13785   0.65084   0.00000  Uiso   1.00
H887   H     0.32959   0.07011   0.61052   0.00000  Uiso   1.00
H888   H     0.25532   0.08696   0.58419   0.00000  Uiso   1.00
H889   H     0.24625   0.11607   0.63361   0.00000  Uiso   1.00
H890   H     0.19380   0.15281   0.43059   0.00000  Uiso   1.00
H891   H     0.20602   0.17734   0.37566   0.00000  Uiso   1.00
H892   H     0.15347   0.16124   0.38814   0.00000  Uiso   1.00
H893   H     0.18592   0.10301   0.33692   0.00000  Uiso   1.00
H894   H     0.17233   0.07812   0.39011   0.00000  Uiso   1.00
H895   H     0.24651   0.08585   0.41810   0.00000  Uiso   1.00
H896   H     0.26078   0.11444   0.37136   0.00000  Uiso   1.00
H897   H     0.46428   0.09707   0.36349   0.00000  Uiso   1.00
H898   H     0.20230   0.35260   0.55610   0.00000  Uiso   1.00
H899   H     0.23507   0.31860   0.59382   0.00000  Uiso   1.00
H900   H     0.17989   0.31856   0.60090   0.00000  Uiso   1.00
H901   H     0.21272   0.36734   0.65968   0.00000  Uiso   1.00
H902   H     0.18214   0.40312   0.62293   0.00000  Uiso   1.00
H903   H     0.24939   0.41531   0.57860   0.00000  Uiso   1.00
H904   H     0.27665   0.39058   0.61907   0.00000  Uiso   1.00
H905   H     0.38528   0.23422   0.44343   0.00000  Uiso   1.00
H906   H     0.07659   0.38171   0.61095   0.00000  Uiso   1.00
H907   H     0.11371   0.27129   0.43747   0.00000  Uiso   1.00
H908   H     0.02609   0.14205   0.37286   0.00000  Uiso   1.00
H909   H     0.48127   0.12017   0.53664   0.00000  Uiso   1.00
H910   H     0.11491   0.23876   0.55064   0.00000  Uiso   1.00
H911   H     0.41435   0.37317   0.38536   0.00000  Uiso   1.00
H912   H     0.38528   0.26840   0.56102   0.00000  Uiso   1.00
H913   H     0.01670   0.11526   0.47237   0.00000  Uiso   1.00
H914   H     0.15235   0.44342   0.40616   0.00000  Uiso   1.00
H915   H     0.36492   0.01342   0.55484   0.00000  Uiso   1.00
H916   H     0.29303   0.17176   0.43177   0.00000  Uiso   1.00
H917   H     0.11951   0.44024   0.60824   0.00000  Uiso   1.00
H918   H     0.34506   0.43929   0.59460   0.00000  Uiso   1.00
H919   H     0.49374   0.16282   0.41427   0.00000  Uiso   1.00
H920   H     0.13501   0.01629   0.43871   0.00000  Uiso   1.00
H921   H     0.19250   0.12369   0.58712   0.00000  Uiso   1.00
H922   H     0.38097   0.43705   0.39298   0.00000  Uiso   1.00
H923   H     0.43927   0.39672   0.55739   0.00000  Uiso   1.00
H924   H     0.43882   0.42041   0.61526   0.00000  Uiso   1.00
N925   N     0.00000   0.25000   0.61736   0.00000  Uiso   1.00
N926   N     0.00000   0.25000   0.38264   0.00000  Uiso   1.00
N927   N     0.25000  -0.00000   0.61736   0.00000  Uiso   1.00
N928   N     0.25000  -0.00000   0.38264   0.00000  Uiso   1.00
O929   O     0.04508   0.20491   0.53958   0.00000  Uiso   1.00
O930   O     0.20491   0.04509   0.46042   0.00000  Uiso   1.00
O931   O     0.20491   0.04509   0.53958   0.00000  Uiso   1.00
O932   O     0.29508   0.45491   0.46042   0.00000  Uiso   1.00
O933   O     0.20491   0.45491   0.46042   0.00000  Uiso   1.00
O934   O     0.29508   0.04509   0.53958   0.00000  Uiso   1.00
O935   O     0.29508   0.04509   0.46042   0.00000  Uiso   1.00
O936   O     0.20491   0.45491   0.53958   0.00000  Uiso   1.00
O937   O     0.33091   0.23975   0.47301   0.00000  Uiso   1.00
O938   O     0.09756   0.31737   0.60407   0.00000  Uiso   1.00
O939   O     0.15792   0.30496   0.40597   0.00000  Uiso   1.00
O940   O     0.45491   0.29509   0.46042   0.00000  Uiso   1.00
O941   O     0.45400   0.07921   0.58080   0.00000  Uiso   1.00
O942   O     0.17006   0.23951   0.52265   0.00000  Uiso   1.00
O943   O     0.39720   0.30875   0.39796   0.00000  Uiso   1.00
O944   O     0.33629   0.29863   0.58766   0.00000  Uiso   1.00
O945   O     0.04098   0.07241   0.42693   0.00000  Uiso   1.00
O946   O     0.13029   0.38640   0.37737   0.00000  Uiso   1.00
O947   O     0.42021   0.01120   0.52696   0.00000  Uiso   1.00
O948   O     0.26307   0.14008   0.48131   0.00000  Uiso   1.00
O949   O     0.12887   0.48825   0.56184   0.00000  Uiso   1.00
O950   O     0.36004   0.37960   0.62245   0.00000  Uiso   1.00
O951   O     0.45491   0.29509   0.53958   0.00000  Uiso   1.00
O952   O     0.08394   0.00779   0.47432   0.00000  Uiso   1.00
O953   O     0.22122   0.17369   0.55295   0.00000  Uiso   1.00
O954   O     0.37383   0.48491   0.44092   0.00000  Uiso   1.00
O955   O     0.04508   0.20491   0.46042   0.00000  Uiso   1.00
O956   O     0.45491   0.20491   0.46042   0.00000  Uiso   1.00
O957   O     0.04508   0.29509   0.53958   0.00000  Uiso   1.00
O958   O     0.04508   0.29509   0.46042   0.00000  Uiso   1.00
O959   O     0.45491   0.20491   0.53958   0.00000  Uiso   1.00
O960   O     0.29508   0.45491   0.53958   0.00000  Uiso   1.00
C961   C     0.55845   0.19002   0.49990   0.00000  Uiso   1.00
C962   C     0.99080   0.28956   0.64342   0.00000  Uiso   1.00
C963   C     0.50111   0.29083   0.35789   0.00000  Uiso   1.00
C964   C     0.51273   0.21184   0.64280   0.00000  Uiso   1.00
C965   C     0.75510   0.45866   0.35731   0.00000  Uiso   1.00
C966   C     0.75209   0.04087   0.64267   0.00000  Uiso   1.00
C967   C     0.74713   0.04083   0.35813   0.00000  Uiso   1.00
C968   C     0.75011   0.45844   0.64121   0.00000  Uiso   1.00
C969   C     0.86862   0.16961   0.48136   0.00000  Uiso   1.00
C970   C     0.60380   0.36875   0.54214   0.00000  Uiso   1.00
C971   C     0.62140   0.34459   0.46426   0.00000  Uiso   1.00
C972   C     0.93820   0.30625   0.49920   0.00000  Uiso   1.00
C973   C     0.91346   0.11342   0.52167   0.00000  Uiso   1.00
C974   C     0.63069   0.17031   0.51725   0.00000  Uiso   1.00
C975   C     0.89367   0.36448   0.45751   0.00000  Uiso   1.00
C976   C     0.87571   0.34095   0.53465   0.00000  Uiso   1.00
C977   C     0.58559   0.11183   0.47969   0.00000  Uiso   1.00
C978   C     0.64132   0.38739   0.45811   0.00000  Uiso   1.00
C979   C     0.88120   0.08052   0.52054   0.00000  Uiso   1.00
C980   C     0.83585   0.13765   0.48229   0.00000  Uiso   1.00
C981   C     0.62728   0.40949   0.53736   0.00000  Uiso   1.00
C982   C     0.85513   0.38350   0.54116   0.00000  Uiso   1.00
C983   C     0.94109   0.19039   0.49978   0.00000  Uiso   1.00
C984   C     0.61871   0.07997   0.47927   0.00000  Uiso   1.00
C985   C     0.66195   0.13697   0.52110   0.00000  Uiso   1.00
C986   C     0.87138   0.40594   0.46279   0.00000  Uiso   1.00
C987   C     0.59733   0.33882   0.50347   0.00000  Uiso   1.00
C988   C     0.90751   0.15672   0.49978   0.00000  Uiso   1.00
C989   C     0.90079   0.33579   0.49625   0.00000  Uiso   1.00
C990   C     0.59193   0.15657   0.49938   0.00000  Uiso   1.00
C991   C     0.84246   0.09323   0.50154   0.00000  Uiso   1.00
C992   C     0.65031   0.41523   0.49727   0.00000  Uiso   1.00
C993   C     0.65685   0.09293   0.49984   0.00000  Uiso   1.00
C994   C     0.56120   0.30728   0.50087   0.00000  Uiso   1.00
C995   C     0.84797   0.41236   0.50258   0.00000  Uiso   1.00
C996   C     0.99714   0.16186   0.37740   0.00000  Uiso   1.00
C997   C     0.96076   0.13459   0.35532   0.00000  Uiso   1.00
C998   C     0.91883   0.15102   0.37207   0.00000  Uiso   1.00
C999   C     0.96398   0.32990   0.62687   0.00000  Uiso   1.00
C1000  C     0.98713   0.36919   0.60250   0.00000  Uiso   1.00
C1001  C     0.95859   0.40832   0.58680   0.00000  Uiso   1.00
C1002  C     0.52831   0.33181   0.37290   0.00000  Uiso   1.00
C1003  C     0.50593   0.37134   0.39828   0.00000  Uiso   1.00
C1004  C     0.53485   0.41131   0.41152   0.00000  Uiso   1.00
C1005  C     0.81140   0.44312   0.50067   0.00000  Uiso   1.00
C1006  C     0.55347   0.18720   0.63269   0.00000  Uiso   1.00
C1007  C     0.54952   0.13648   0.61492   0.00000  Uiso   1.00
C1008  C     0.59075   0.11086   0.61924   0.00000  Uiso   1.00
C1009  C     0.77571   0.41511   0.37832   0.00000  Uiso   1.00
C1010  C     0.74948   0.38319   0.40872   0.00000  Uiso   1.00
C1011  C     0.76423   0.33259   0.40702   0.00000  Uiso   1.00
C1012  C     0.76411   0.08635   0.62031   0.00000  Uiso   1.00
C1013  C     0.81049   0.09684   0.62776   0.00000  Uiso   1.00
C1014  C     0.82158   0.14495   0.60988   0.00000  Uiso   1.00
C1015  C     0.73900   0.08708   0.38199   0.00000  Uiso   1.00
C1016  C     0.69113   0.05986   0.49999   0.00000  Uiso   1.00
C1017  C     0.69389   0.10286   0.37403   0.00000  Uiso   1.00
C1018  C     0.68646   0.15160   0.39338   0.00000  Uiso   1.00
C1019  C     0.74847   0.41156   0.61499   0.00000  Uiso   1.00
C1020  C     0.71044   0.38172   0.62505   0.00000  Uiso   1.00
C1021  C     0.70674   0.34041   0.59180   0.00000  Uiso   1.00
C1022  C     0.86198   0.21768   0.46375   0.00000  Uiso   1.00
C1023  C     0.59049   0.35604   0.58881   0.00000  Uiso   1.00
C1024  C     0.63010   0.30388   0.43367   0.00000  Uiso   1.00
C1025  C     0.95299   0.10377   0.54692   0.00000  Uiso   1.00
C1026  C     0.63818   0.21943   0.53238   0.00000  Uiso   1.00
C1027  C     0.68815   0.44396   0.49924   0.00000  Uiso   1.00
C1028  C     0.90367   0.34882   0.41034   0.00000  Uiso   1.00
C1029  C     0.86665   0.29965   0.56341   0.00000  Uiso   1.00
C1030  C     0.54440   0.09926   0.45943   0.00000  Uiso   1.00
C1031  C     0.64265   0.40788   0.41120   0.00000  Uiso   1.00
C1032  C     0.88837   0.03183   0.53622   0.00000  Uiso   1.00
C1033  C     0.79495   0.15094   0.46255   0.00000  Uiso   1.00
C1034  C     0.62531   0.44753   0.57264   0.00000  Uiso   1.00
C1035  C     0.85184   0.40288   0.58874   0.00000  Uiso   1.00
C1036  C     0.61288   0.03152   0.46180   0.00000  Uiso   1.00
C1037  C     0.69437   0.14418   0.55647   0.00000  Uiso   1.00
C1038  C     0.80913   0.05930   0.50041   0.00000  Uiso   1.00
C1039  C     0.87565   0.44419   0.42883   0.00000  Uiso   1.00
C1040  C     0.50161   0.20955   0.35673   0.00000  Uiso   1.00
Cu1041 Cu    0.50000   0.25000   0.54689   0.00000  Uiso   1.00
Cu1042 Cu    0.50000   0.25000   0.45311   0.00000  Uiso   1.00
Cu1043 Cu    0.75000  -0.00000   0.54689   0.00000  Uiso   1.00
Cu1044 Cu    0.75000  -0.00000   0.45311   0.00000  Uiso   1.00
H1045  H     0.91543   0.14141   0.40835   0.00000  Uiso   1.00
H1046  H     0.97744   0.43821   0.57533   0.00000  Uiso   1.00
H1047  H     0.50942   0.38574   0.62650   0.00000  Uiso   1.00
H1048  H     0.50386   0.35581   0.57259   0.00000  Uiso   1.00
H1049  H     0.93622   0.31716   0.60879   0.00000  Uiso   1.00
H1050  H     0.94902   0.34604   0.65672   0.00000  Uiso   1.00
H1051  H     0.55708   0.40007   0.43833   0.00000  Uiso   1.00
H1052  H     0.55162   0.42389   0.38116   0.00000  Uiso   1.00
H1053  H     0.51657   0.44065   0.42569   0.00000  Uiso   1.00
H1054  H     0.98172   0.38636   0.37583   0.00000  Uiso   1.00
H1055  H     0.99169   0.35856   0.42976   0.00000  Uiso   1.00
H1056  H     0.91544   0.18926   0.36814   0.00000  Uiso   1.00
H1057  H     0.55640   0.31974   0.39057   0.00000  Uiso   1.00
H1058  H     0.54300   0.34684   0.34259   0.00000  Uiso   1.00
H1059  H     0.61568   0.13130   0.60346   0.00000  Uiso   1.00
H1060  H     0.59886   0.10532   0.65592   0.00000  Uiso   1.00
H1061  H     0.58850   0.07645   0.60173   0.00000  Uiso   1.00
H1062  H     0.52657   0.11643   0.63406   0.00000  Uiso   1.00
H1063  H     0.53916   0.13510   0.57886   0.00000  Uiso   1.00
H1064  H     0.57328   0.20872   0.61096   0.00000  Uiso   1.00
H1065  H     0.57237   0.18651   0.66495   0.00000  Uiso   1.00
H1066  H     0.76088   0.31807   0.37176   0.00000  Uiso   1.00
H1067  H     0.89386   0.13338   0.35195   0.00000  Uiso   1.00
H1068  H     0.79717   0.33043   0.41828   0.00000  Uiso   1.00
H1069  H     0.74540   0.31119   0.43031   0.00000  Uiso   1.00
H1070  H     0.75114   0.39343   0.44506   0.00000  Uiso   1.00
H1071  H     0.71684   0.38443   0.39792   0.00000  Uiso   1.00
H1072  H     0.78932   0.39240   0.35252   0.00000  Uiso   1.00
H1073  H     0.80554   0.42448   0.39341   0.00000  Uiso   1.00
H1074  H     0.81028   0.14909   0.57409   0.00000  Uiso   1.00
H1075  H     0.80734   0.17237   0.63154   0.00000  Uiso   1.00
H1076  H     0.85567   0.14961   0.61083   0.00000  Uiso   1.00
H1077  H     0.81895   0.09561   0.66475   0.00000  Uiso   1.00
H1078  H     0.96085   0.13785   0.65084   0.00000  Uiso   1.00
H1079  H     0.82959   0.07011   0.61052   0.00000  Uiso   1.00
H1080  H     0.75532   0.08696   0.58419   0.00000  Uiso   1.00
H1081  H     0.74625   0.11607   0.63361   0.00000  Uiso   1.00
H1082  H     0.69380   0.15281   0.43059   0.00000  Uiso   1.00
H1083  H     0.70602   0.17734   0.37566   0.00000  Uiso   1.00
H1084  H     0.65347   0.16124   0.38814   0.00000  Uiso   1.00
H1085  H     0.68592   0.10301   0.33692   0.00000  Uiso   1.00
H1086  H     0.67233   0.07812   0.39011   0.00000  Uiso   1.00
H1087  H     0.74651   0.08585   0.41810   0.00000  Uiso   1.00
H1088  H     0.76078   0.11444   0.37136   0.00000  Uiso   1.00
H1089  H     0.96428   0.09707   0.36349   0.00000  Uiso   1.00
H1090  H     0.70230   0.35260   0.55610   0.00000  Uiso   1.00
H1091  H     0.73507   0.31860   0.59382   0.00000  Uiso   1.00
H1092  H     0.67989   0.31856   0.60090   0.00000  Uiso   1.00
H1093  H     0.71272   0.36734   0.65968   0.00000  Uiso   1.00
H1094  H     0.68214   0.40312   0.62293   0.00000  Uiso   1.00
H1095  H     0.74939   0.41531   0.57860   0.00000  Uiso   1.00
H1096  H     0.77665   0.39058   0.61907   0.00000  Uiso   1.00
H1097  H     0.88528   0.23422   0.44343   0.00000  Uiso   1.00
H1098  H     0.57659   0.38171   0.61095   0.00000  Uiso   1.00
H1099  H     0.61371   0.27129   0.43747   0.00000  Uiso   1.00
H1100  H     0.52609   0.14205   0.37286   0.00000  Uiso   1.00
H1101  H     0.98127   0.12017   0.53664   0.00000  Uiso   1.00
H1102  H     0.61491   0.23876   0.55064   0.00000  Uiso   1.00
H1103  H     0.91435   0.37317   0.38536   0.00000  Uiso   1.00
H1104  H     0.88528   0.26840   0.56102   0.00000  Uiso   1.00
H1105  H     0.51670   0.11526   0.47237   0.00000  Uiso   1.00
H1106  H     0.65235   0.44342   0.40616   0.00000  Uiso   1.00
H1107  H     0.86492   0.01342   0.55484   0.00000  Uiso   1.00
H1108  H     0.79303   0.17176   0.43177   0.00000  Uiso   1.00
H1109  H     0.61951   0.44024   0.60824   0.00000  Uiso   1.00
H1110  H     0.84506   0.43929   0.59460   0.00000  Uiso   1.00
H1111  H     0.99374   0.16282   0.41427   0.00000  Uiso   1.00
H1112  H     0.63501   0.01629   0.43871   0.00000  Uiso   1.00
H1113  H     0.69250   0.12369   0.58712   0.00000  Uiso   1.00
H1114  H     0.88097   0.43705   0.39298   0.00000  Uiso   1.00
H1115  H     0.93927   0.39672   0.55739   0.00000  Uiso   1.00
H1116  H     0.93882   0.42041   0.61526   0.00000  Uiso   1.00
N1117  N     0.50000   0.25000   0.61736   0.00000  Uiso   1.00
N1118  N     0.50000   0.25000   0.38264   0.00000  Uiso   1.00
N1119  N     0.75000  -0.00000   0.61736   0.00000  Uiso   1.00
N1120  N     0.75000  -0.00000   0.38264   0.00000  Uiso   1.00
O1121  O     0.54508   0.20491   0.53958   0.00000  Uiso   1.00
O1122  O     0.70491   0.04509   0.46042   0.00000  Uiso   1.00
O1123  O     0.70491   0.04509   0.53958   0.00000  Uiso   1.00
O1124  O     0.79508   0.45491   0.46042   0.00000  Uiso   1.00
O1125  O     0.70491   0.45491   0.46042   0.00000  Uiso   1.00
O1126  O     0.79508   0.04509   0.53958   0.00000  Uiso   1.00
O1127  O     0.79508   0.04509   0.46042   0.00000  Uiso   1.00
O1128  O     0.70491   0.45491   0.53958   0.00000  Uiso   1.00
O1129  O     0.83091   0.23975   0.47301   0.00000  Uiso   1.00
O1130  O     0.59756   0.31737   0.60407   0.00000  Uiso   1.00
O1131  O     0.65792   0.30496   0.40597   0.00000  Uiso   1.00
O1132  O     0.95491   0.29509   0.46042   0.00000  Uiso   1.00
O1133  O     0.95400   0.07921   0.58080   0.00000  Uiso   1.00
O1134  O     0.67006   0.23951   0.52265   0.00000  Uiso   1.00
O1135  O     0.89720   0.30875   0.39796   0.00000  Uiso   1.00
O1136  O     0.83629   0.29863   0.58766   0.00000  Uiso   1.00
O1137  O     0.54098   0.07241   0.42693   0.00000  Uiso   1.00
O1138  O     0.63029   0.38640   0.37737   0.00000  Uiso   1.00
O1139  O     0.92021   0.01120   0.52696   0.00000  Uiso   1.00
O1140  O     0.76307   0.14008   0.48131   0.00000  Uiso   1.00
O1141  O     0.62887   0.48825   0.56184   0.00000  Uiso   1.00
O1142  O     0.86004   0.37960   0.62245   0.00000  Uiso   1.00
O1143  O     0.95491   0.29509   0.53958   0.00000  Uiso   1.00
O1144  O     0.58394   0.00779   0.47432   0.00000  Uiso   1.00
O1145  O     0.72122   0.17369   0.55295   0.00000  Uiso   1.00
O1146  O     0.87383   0.48491   0.44092   0.00000  Uiso   1.00
O1147  O     0.54508   0.20491   0.46042   0.00000  Uiso   1.00
O1148  O     0.95491   0.20491   0.46042   0.00000  Uiso   1.00
O1149  O     0.54508   0.29509   0.53958   0.00000  Uiso   1.00
O1150  O     0.54508   0.29509   0.46042   0.00000  Uiso   1.00
O1151  O     0.95491   0.20491   0.53958   0.00000  Uiso   1.00
O1152  O     0.79508   0.45491   0.53958   0.00000  Uiso   1.00
C1153  C     0.05845   0.69002   0.49990   0.00000  Uiso   1.00
C1154  C     0.49080   0.78956   0.64342   0.00000  Uiso   1.00
C1155  C     0.00111   0.79083   0.35789   0.00000  Uiso   1.00
C1156  C     0.01273   0.71184   0.64280   0.00000  Uiso   1.00
C1157  C     0.25510   0.95866   0.35731   0.00000  Uiso   1.00
C1158  C     0.25209   0.54087   0.64267   0.00000  Uiso   1.00
C1159  C     0.24713   0.54083   0.35813   0.00000  Uiso   1.00
C1160  C     0.25011   0.95844   0.64121   0.00000  Uiso   1.00
C1161  C     0.36862   0.66961   0.48136   0.00000  Uiso   1.00
C1162  C     0.10380   0.86875   0.54214   0.00000  Uiso   1.00
C1163  C     0.12140   0.84459   0.46426   0.00000  Uiso   1.00
C1164  C     0.43820   0.80625   0.49920   0.00000  Uiso   1.00
C1165  C     0.41346   0.61342   0.52167   0.00000  Uiso   1.00
C1166  C     0.13069   0.67031   0.51725   0.00000  Uiso   1.00
C1167  C     0.39367   0.86448   0.45751   0.00000  Uiso   1.00
C1168  C     0.37571   0.84095   0.53465   0.00000  Uiso   1.00
C1169  C     0.08559   0.61183   0.47969   0.00000  Uiso   1.00
C1170  C     0.14132   0.88739   0.45811   0.00000  Uiso   1.00
C1171  C     0.38120   0.58052   0.52054   0.00000  Uiso   1.00
C1172  C     0.33585   0.63765   0.48229   0.00000  Uiso   1.00
C1173  C     0.12728   0.90949   0.53736   0.00000  Uiso   1.00
C1174  C     0.35513   0.88350   0.54116   0.00000  Uiso   1.00
C1175  C     0.44109   0.69039   0.49978   0.00000  Uiso   1.00
C1176  C     0.11871   0.57997   0.47927   0.00000  Uiso   1.00
C1177  C     0.16195   0.63697   0.52110   0.00000  Uiso   1.00
C1178  C     0.37138   0.90594   0.46279   0.00000  Uiso   1.00
C1179  C     0.09733   0.83882   0.50347   0.00000  Uiso   1.00
C1180  C     0.40751   0.65672   0.49978   0.00000  Uiso   1.00
C1181  C     0.40079   0.83579   0.49625   0.00000  Uiso   1.00
C1182  C     0.09193   0.65657   0.49938   0.00000  Uiso   1.00
C1183  C     0.34246   0.59323   0.50154   0.00000  Uiso   1.00
C1184  C     0.15031   0.91523   0.49727   0.00000  Uiso   1.00
C1185  C     0.15685   0.59293   0.49984   0.00000  Uiso   1.00
C1186  C     0.06120   0.80728   0.50087   0.00000  Uiso   1.00
C1187  C     0.34797   0.91236   0.50258   0.00000  Uiso   1.00
C1188  C     0.49714   0.66186   0.37740   0.00000  Uiso   1.00
C1189  C     0.46076   0.63459   0.35532   0.00000  Uiso   1.00
C1190  C     0.41883   0.65102   0.37207   0.00000  Uiso   1.00
C1191  C     0.46398   0.82990   0.62687   0.00000  Uiso   1.00
C1192  C     0.48713   0.86919   0.60250   0.00000  Uiso   1.00
C1193  C     0.45859   0.90832   0.58680   0.00000  Uiso   1.00
C1194  C     0.02831   0.83181   0.37290   0.00000  Uiso   1.00
C1195  C     0.00593   0.87134   0.39828   0.00000  Uiso   1.00
C1196  C     0.03485   0.91131   0.41152   0.00000  Uiso   1.00
C1197  C     0.31140   0.94312   0.50067   0.00000  Uiso   1.00
C1198  C     0.05347   0.68720   0.63269   0.00000  Uiso   1.00
C1199  C     0.04952   0.63648   0.61492   0.00000  Uiso   1.00
C1200  C     0.09075   0.61086   0.61924   0.00000  Uiso   1.00
C1201  C     0.27571   0.91511   0.37832   0.00000  Uiso   1.00
C1202  C     0.24948   0.88319   0.40872   0.00000  Uiso   1.00
C1203  C     0.26423   0.83259   0.40702   0.00000  Uiso   1.00
C1204  C     0.26411   0.58635   0.62031   0.00000  Uiso   1.00
C1205  C     0.31049   0.59684   0.62776   0.00000  Uiso   1.00
C1206  C     0.32158   0.64495   0.60988   0.00000  Uiso   1.00
C1207  C     0.23900   0.58708   0.38199   0.00000  Uiso   1.00
C1208  C     0.19113   0.55986   0.49999   0.00000  Uiso   1.00
C1209  C     0.19389   0.60286   0.37403   0.00000  Uiso   1.00
C1210  C     0.18646   0.65160   0.39338   0.00000  Uiso   1.00
C1211  C     0.24847   0.91156   0.61499   0.00000  Uiso   1.00
C1212  C     0.21044   0.88172   0.62505   0.00000  Uiso   1.00
C1213  C     0.20674   0.84041   0.59180   0.00000  Uiso   1.00
C1214  C     0.36198   0.71768   0.46375   0.00000  Uiso   1.00
C1215  C     0.09049   0.85604   0.58881   0.00000  Uiso   1.00
C1216  C     0.13010   0.80388   0.43367   0.00000  Uiso   1.00
C1217  C     0.45299   0.60377   0.54692   0.00000  Uiso   1.00
C1218  C     0.13818   0.71943   0.53238   0.00000  Uiso   1.00
C1219  C     0.18815   0.94396   0.49924   0.00000  Uiso   1.00
C1220  C     0.40367   0.84882   0.41034   0.00000  Uiso   1.00
C1221  C     0.36665   0.79965   0.56341   0.00000  Uiso   1.00
C1222  C     0.04440   0.59926   0.45943   0.00000  Uiso   1.00
C1223  C     0.14265   0.90788   0.41120   0.00000  Uiso   1.00
C1224  C     0.38837   0.53183   0.53622   0.00000  Uiso   1.00
C1225  C     0.29495   0.65094   0.46255   0.00000  Uiso   1.00
C1226  C     0.12531   0.94753   0.57264   0.00000  Uiso   1.00
C1227  C     0.35184   0.90288   0.58874   0.00000  Uiso   1.00
C1228  C     0.11288   0.53152   0.46180   0.00000  Uiso   1.00
C1229  C     0.19437   0.64418   0.55647   0.00000  Uiso   1.00
C1230  C     0.30913   0.55930   0.50041   0.00000  Uiso   1.00
C1231  C     0.37565   0.94419   0.42883   0.00000  Uiso   1.00
C1232  C     0.00161   0.70955   0.35673   0.00000  Uiso   1.00
Cu1233 Cu    0.00000   0.75000   0.54689   0.00000  Uiso   1.00
Cu1234 Cu    0.00000   0.75000   0.45311   0.00000  Uiso   1.00
Cu1235 Cu    0.25000   0.50000   0.54689   0.00000  Uiso   1.00
Cu1236 Cu    0.25000   0.50000   0.45311   0.00000  Uiso   1.00
H1237  H     0.41543   0.64141   0.40835   0.00000  Uiso   1.00
H1238  H     0.47744   0.93821   0.57533   0.00000  Uiso   1.00
H1239  H     0.00942   0.88574   0.62650   0.00000  Uiso   1.00
H1240  H     0.00386   0.85581   0.57259   0.00000  Uiso   1.00
H1241  H     0.43622   0.81716   0.60879   0.00000  Uiso   1.00
H1242  H     0.44902   0.84604   0.65672   0.00000  Uiso   1.00
H1243  H     0.05708   0.90007   0.43833   0.00000  Uiso   1.00
H1244  H     0.05162   0.92389   0.38116   0.00000  Uiso   1.00
H1245  H     0.01657   0.94065   0.42569   0.00000  Uiso   1.00
H1246  H     0.48172   0.88636   0.37583   0.00000  Uiso   1.00
H1247  H     0.49169   0.85856   0.42976   0.00000  Uiso   1.00
H1248  H     0.41544   0.68926   0.36814   0.00000  Uiso   1.00
H1249  H     0.05640   0.81974   0.39057   0.00000  Uiso   1.00
H1250  H     0.04300   0.84684   0.34259   0.00000  Uiso   1.00
H1251  H     0.11568   0.63130   0.60346   0.00000  Uiso   1.00
H1252  H     0.09886   0.60532   0.65592   0.00000  Uiso   1.00
H1253  H     0.08850   0.57645   0.60173   0.00000  Uiso   1.00
H1254  H     0.02657   0.61643   0.63406   0.00000  Uiso   1.00
H1255  H     0.03916   0.63510   0.57886   0.00000  Uiso   1.00
H1256  H     0.07328   0.70872   0.61096   0.00000  Uiso   1.00
H1257  H     0.07237   0.68651   0.66495   0.00000  Uiso   1.00
H1258  H     0.26088   0.81807   0.37176   0.00000  Uiso   1.00
H1259  H     0.39386   0.63338   0.35195   0.00000  Uiso   1.00
H1260  H     0.29717   0.83043   0.41828   0.00000  Uiso   1.00
H1261  H     0.24540   0.81119   0.43031   0.00000  Uiso   1.00
H1262  H     0.25114   0.89343   0.44506   0.00000  Uiso   1.00
H1263  H     0.21684   0.88443   0.39792   0.00000  Uiso   1.00
H1264  H     0.28932   0.89240   0.35252   0.00000  Uiso   1.00
H1265  H     0.30554   0.92448   0.39341   0.00000  Uiso   1.00
H1266  H     0.31028   0.64909   0.57409   0.00000  Uiso   1.00
H1267  H     0.30734   0.67237   0.63154   0.00000  Uiso   1.00
H1268  H     0.35567   0.64961   0.61083   0.00000  Uiso   1.00
H1269  H     0.31895   0.59561   0.66475   0.00000  Uiso   1.00
H1270  H     0.46085   0.63785   0.65084   0.00000  Uiso   1.00
H1271  H     0.32959   0.57011   0.61052   0.00000  Uiso   1.00
H1272  H     0.25532   0.58696   0.58419   0.00000  Uiso   1.00
H1273  H     0.24625   0.61607   0.63361   0.00000  Uiso   1.00
H1274  H     0.19380   0.65281   0.43059   0.00000  Uiso   1.00
H1275  H     0.20602   0.67734   0.37566   0.00000  Uiso   1.00
H1276  H     0.15347   0.66124   0.38814   0.00000  Uiso   1.00
H1277  H     0.18592   0.60301   0.33692   0.00000  Uiso   1.00
H1278  H     0.17233   0.57812   0.39011   0.00000  Uiso   1.00
H1279  H     0.24651   0.58585   0.41810   0.00000  Uiso   1.00
H1280  H     0.26078   0.61444   0.37136   0.00000  Uiso   1.00
H1281  H     0.46428   0.59707   0.36349   0.00000  Uiso   1.00
H1282  H     0.20230   0.85260   0.55610   0.00000  Uiso   1.00
H1283  H     0.23507   0.81860   0.59382   0.00000  Uiso   1.00
H1284  H     0.17989   0.81856   0.60090   0.00000  Uiso   1.00
H1285  H     0.21272   0.86734   0.65968   0.00000  Uiso   1.00
H1286  H     0.18214   0.90312   0.62293   0.00000  Uiso   1.00
H1287  H     0.24939   0.91531   0.57860   0.00000  Uiso   1.00
H1288  H     0.27665   0.89058   0.61907   0.00000  Uiso   1.00
H1289  H     0.38528   0.73422   0.44343   0.00000  Uiso   1.00
H1290  H     0.07659   0.88171   0.61095   0.00000  Uiso   1.00
H1291  H     0.11371   0.77129   0.43747   0.00000  Uiso   1.00
H1292  H     0.02609   0.64205   0.37286   0.00000  Uiso   1.00
H1293  H     0.48127   0.62017   0.53664   0.00000  Uiso   1.00
H1294  H     0.11491   0.73876   0.55064   0.00000  Uiso   1.00
H1295  H     0.41435   0.87317   0.38536   0.00000  Uiso   1.00
H1296  H     0.38528   0.76840   0.56102   0.00000  Uiso   1.00
H1297  H     0.01670   0.61526   0.47237   0.00000  Uiso   1.00
H1298  H     0.15235   0.94342   0.40616   0.00000  Uiso   1.00
H1299  H     0.36492   0.51342   0.55484   0.00000  Uiso   1.00
H1300  H     0.29303   0.67176   0.43177   0.00000  Uiso   1.00
H1301  H     0.11951   0.94024   0.60824   0.00000  Uiso   1.00
H1302  H     0.34506   0.93929   0.59460   0.00000  Uiso   1.00
H1303  H     0.49374   0.66282   0.41427   0.00000  Uiso   1.00
H1304  H     0.13501   0.51629   0.43871   0.00000  Uiso   1.00
H1305  H     0.19250   0.62369   0.58712   0.00000  Uiso   1.00
H1306  H     0.38097   0.93705   0.39298   0.00000  Uiso   1.00
H1307  H     0.43927   0.89672   0.55739   0.00000  Uiso   1.00
H1308  H     0.43882   0.92041   0.61526   0.00000  Uiso   1.00
N1309  N     0.00000   0.75000   0.61736   0.00000  Uiso   1.00
N1310  N     0.00000   0.75000   0.38264   0.00000  Uiso   1.00
N1311  N     0.25000   0.50000   0.61736   0.00000  Uiso   1.00
N1312  N     0.25000   0.50000   0.38264   0.00000  Uiso   1.00
O1313  O     0.04508   0.70491   0.53958   0.00000  Uiso   1.00
O1314  O     0.20491   0.54509   0.46042   0.00000  Uiso   1.00
O1315  O     0.20491   0.54509   0.53958   0.00000  Uiso   1.00
O1316  O     0.29508   0.95491   0.46042   0.00000  Uiso   1.00
O1317  O     0.20491   0.95491   0.46042   0.00000  Uiso   1.00
O1318  O     0.29508   0.54509   0.53958   0.00000  Uiso   1.00
O1319  O     0.29508   0.54509   0.46042   0.00000  Uiso   1.00
O1320  O     0.20491   0.95491   0.53958   0.00000  Uiso   1.00
O1321  O     0.33091   0.73975   0.47301   0.00000  Uiso   1.00
O1322  O     0.09756   0.81737   0.60407   0.00000  Uiso   1.00
O1323  O     0.15792   0.80496   0.40597   0.00000  Uiso   1.00
O1324  O     0.45491   0.79509   0.46042   0.00000  Uiso   1.00
O1325  O     0.45400   0.57921   0.58080   0.00000  Uiso   1.00
O1326  O     0.17006   0.73951   0.52265   0.00000  Uiso   1.00
O1327  O     0.39720   0.80875   0.39796   0.00000  Uiso   1.00
O1328  O     0.33629   0.79863   0.58766   0.00000  Uiso   1.00
O1329  O     0.04098   0.57241   0.42693   0.00000  Uiso   1.00
O1330  O     0.13029   0.88640   0.37737   0.00000  Uiso   1.00
O1331  O     0.42021   0.51120   0.52696   0.00000  Uiso   1.00
O1332  O     0.26307   0.64008   0.48131   0.00000  Uiso   1.00
O1333  O     0.12887   0.98825   0.56184   0.00000  Uiso   1.00
O1334  O     0.36004   0.87960   0.62245   0.00000  Uiso   1.00
O1335  O     0.45491   0.79509   0.53958   0.00000  Uiso   1.00
O1336  O     0.08394   0.50779   0.47432   0.00000  Uiso   1.00
O1337  O     0.22122   0.67369   0.55295   0.00000  Uiso   1.00
O1338  O     0.37383   0.98491   0.44092   0.00000  Uiso   1.00
O1339  O     0.04508   0.70491   0.46042   0.00000  Uiso   1.00
O1340  O     0.45491   0.70491   0.46042   0.00000  Uiso   1.00
O1341  O     0.04508   0.79509   0.53958   0.00000  Uiso   1.00
O1342  O     0.04508   0.79509   0.46042   0.00000  Uiso   1.00
O1343  O     0.45491   0.70491   0.53958   0.00000  Uiso   1.00
O1344  O     0.29508   0.95491   0.53958   0.00000  Uiso   1.00
C1345  C     0.55845   0.69002   0.49990   0.00000  Uiso   1.00
C1346  C     0.99080   0.78956   0.64342   0.00000  Uiso   1.00
C1347  C     0.50111   0.79083   0.35789   0.00000  Uiso   1.00
C1348  C     0.51273   0.71184   0.64280   0.00000  Uiso   1.00
C1349  C     0.75510   0.95866   0.35731   0.00000  Uiso   1.00
C1350  C     0.75209   0.54087   0.64267   0.00000  Uiso   1.00
C1351  C     0.74713   0.54083   0.35813   0.00000  Uiso   1.00
C1352  C     0.75011   0.95844   0.64121   0.00000  Uiso   1.00
C1353  C     0.86862   0.66961   0.48136   0.00000  Uiso   1.00
C1354  C     0.60380   0.86875   0.54214   0.00000  Uiso   1.00
C1355  C     0.62140   0.84459   0.46426   0.00000  Uiso   1.00
C1356  C     0.93820   0.80625   0.49920   0.00000  Uiso   1.00
C1357  C     0.91346   0.61342   0.52167   0.00000  Uiso   1.00
C1358  C     0.63069   0.67031   0.51725   0.00000  Uiso   1.00
C1359  C     0.89367   0.86448   0.45751   0.00000  Uiso   1.00
C1360  C     0.87571   0.84095   0.53465   0.00000  Uiso   1.00
C1361  C     0.58559   0.61183   0.47969   0.00000  Uiso   1.00
C1362  C     0.64132   0.88739   0.45811   0.00000  Uiso   1.00
C1363  C     0.88120   0.58052   0.52054   0.00000  Uiso   1.00
C1364  C     0.83585   0.63765   0.48229   0.00000  Uiso   1.00
C1365  C     0.62728   0.90949   0.53736   0.00000  Uiso   1.00
C1366  C     0.85513   0.88350   0.54116   0.00000  Uiso   1.00
C1367  C     0.94109   0.69039   0.49978   0.00000  Uiso   1.00
C1368  C     0.61871   0.57997   0.47927   0.00000  Uiso   1.00
C1369  C     0.66195   0.63697   0.52110   0.00000  Uiso   1.00
C1370  C     0.87138   0.90594   0.46279   0.00000  Uiso   1.00
C1371  C     0.59733   0.83882   0.50347   0.00000  Uiso   1.00
C1372  C     0.90751   0.65672   0.49978   0.00000  Uiso   1.00
C1373  C     0.90079   0.83579   0.49625   0.00000  Uiso   1.00
C1374  C     0.59193   0.65657   0.49938   0.00000  Uiso   1.00
C1375  C     0.84246   0.59323   0.50154   0.00000  Uiso   1.00
C1376  C     0.65031   0.91523   0.49727   0.00000  Uiso   1.00
C1377  C     0.65685   0.59293   0.49984   0.00000  Uiso   1.00
C1378  C     0.56120   0.80728   0.50087   0.00000  Uiso   1.00
C1379  C     0.84797   0.91236   0.50258   0.00000  Uiso   1.00
C1380  C     0.99714   0.66186   0.37740   0.00000  Uiso   1.00
C1381  C     0.96076   0.63459   0.35532   0.00000  Uiso   1.00
C1382  C     0.91883   0.65102   0.37207   0.00000  Uiso   1.00
C1383  C     0.96398   0.82990   0.62687   0.00000  Uiso   1.00
C1384  C     0.98713   0.86919   0.60250   0.00000  Uiso   1.00
C1385  C     0.95859   0.90832   0.58680   0.00000  Uiso   1.00
C1386  C     0.52831   0.83181   0.37290   0.00000  Uiso   1.00
C1387  C     0.50593   0.87134   0.39828   0.00000  Uiso   1.00
C1388  C     0.53485   0.91131   0.41152   0.00000  Uiso   1.00
C1389  C     0.81140   0.94312   0.50067   0.00000  Uiso   1.00
C1390  C     0.55347   0.68720   0.63269   0.00000  Uiso   1.00
C1391  C     0.54952   0.63648   0.61492   0.00000  Uiso   1.00
C1392  C     0.59075   0.61086   0.61924   0.00000  Uiso   1.00
C1393  C     0.77571   0.91511   0.37832   0.00000  Uiso   1.00
C1394  C     0.74948   0.88319   0.40872   0.00000  Uiso   1.00
C1395  C     0.76423   0.83259   0.40702   0.00000  Uiso   1.00
C1396  C     0.76411   0.58635   0.62031   0.00000  Uiso   1.00
C1397  C     0.81049   0.59684   0.62776   0.00000  Uiso   1.00
C1398  C     0.82158   0.64495   0.60988   0.00000  Uiso   1.00
C1399  C     0.73900   0.58708   0.38199   0.00000  Uiso   1.00
C1400  C     0.69113   0.55986   0.49999   0.00000  Uiso   1.00
C1401  C     0.69389   0.60286   0.37403   0.00000  Uiso   1.00
C1402  C     0.68646   0.65160   0.39338   0.00000  Uiso   1.00
C1403  C     0.74847   0.91156   0.61499   0.00000  Uiso   1.00
C1404  C     0.71044   0.88172   0.62505   0.00000  Uiso   1.00
C1405  C     0.70674   0.84041   0.59180   0.00000  Uiso   1.00
C1406  C     0.86198   0.71768   0.46375   0.00000  Uiso   1.00
C1407  C     0.59049   0.85604   0.58881   0.00000  Uiso   1.00
C1408  C     0.63010   0.80388   0.43367   0.00000  Uiso   1.00
C1409  C     0.95299   0.60377   0.54692   0.00000  Uiso   1.00
C1410  C     0.63818   0.71943   0.53238   0.00000  Uiso   1.00
C1411  C     0.68815   0.94396   0.49924   0.00000  Uiso   1.00
C1412  C     0.90367   0.84882   0.41034   0.00000  Uiso   1.00
C1413  C     0.86665   0.79965   0.56341   0.00000  Uiso   1.00
C1414  C     0.54440   0.59926   0.45943   0.00000  Uiso   1.00
C1415  C     0.64265   0.90788   0.41120   0.00000  Uiso   1.00
C1416  C     0.88837   0.53183   0.53622   0.00000  Uiso   1.00
C1417  C     0.79495   0.65094   0.46255   0.00000  Uiso   1.00
C1418  C     0.62531   0.94753   0.57264   0.00000  Uiso   1.00
C1419  C     0.85184   0.90288   0.58874   0.00000  Uiso   1.00
C1420  C     0.61288   0.53152   0.46180   0.00000  Uiso   1.00
C1421  C     0.69437   0.64418   0.55647   0.00000  Uiso   1.00
C1422  C     0.80913   0.55930   0.50041   0.00000  Uiso   1.00
C1423  C     0.87565   0.94419   0.42883   0.00000  Uiso   1.00
C1424  C     0.50161   0.70955   0.35673   0.00000  Uiso   1.00
Cu1425 Cu    0.50000   0.75000   0.54689   0.00000  Uiso   1.00
Cu1426 Cu    0.50000   0.75000   0.45311   0.00000  Uiso   1.00
Cu1427 Cu    0.75000   0.50000   0.54689   0.00000  Uiso   1.00
Cu1428 Cu    0.75000   0.50000   0.45311   0.00000  Uiso   1.00
H1429  H     0.91543   0.64141   0.40835   0.00000  Uiso   1.00
H1430  H     0.97744   0.93821   0.57533   0.00000  Uiso   1.00
H1431  H     0.50942   0.88574   0.62650   0.00000  Uiso   1.00
H1432  H     0.50386   0.85581   0.57259   0.00000  Uiso   1.00
H1433  H     0.93622   0.81716   0.60879   0.00000  Uiso   1.00
H1434  H     0.94902   0.84604   0.65672   0.00000  Uiso   1.00
H1435  H     0.55708   0.90007   0.43833   0.00000  Uiso   1.00
H1436  H     0.55162   0.92389   0.38116   0.00000  Uiso   1.00
H1437  H     0.51657   0.94065   0.42569   0.00000  Uiso   1.00
H1438  H     0.98172   0.88636   0.37583   0.00000  Uiso   1.00
H1439  H     0.99169   0.85856   0.42976   0.00000  Uiso   1.00
H1440  H     0.91544   0.68926   0.36814   0.00000  Uiso   1.00
H1441  H     0.55640   0.81974   0.39057   0.00000  Uiso   1.00
H1442  H     0.54300   0.84684   0.34259   0.00000  Uiso   1.00
H1443  H     0.61568   0.63130   0.60346   0.00000  Uiso   1.00
H1444  H     0.59886   0.60532   0.65592   0.00000  Uiso   1.00
H1445  H     0.58850   0.57645   0.60173   0.00000  Uiso   1.00
H1446  H     0.52657   0.61643   0.63406   0.00000  Uiso   1.00
H1447  H     0.53916   0.63510   0.57886   0.00000  Uiso   1.00
H1448  H     0.57328   0.70872   0.61096   0.00000  Uiso   1.00
H1449  H     0.57237   0.68651   0.66495   0.00000  Uiso   1.00
H1450  H     0.76088   0.81807   0.37176   0.00000  Uiso   1.00
H1451  H     0.89386   0.63338   0.35195   0.00000  Uiso   1.00
H1452  H     0.79717   0.83043   0.41828   0.00000  Uiso   1.00
H1453  H     0.74540   0.81119   0.43031   0.00000  Uiso   1.00
H1454  H     0.75114   0.89343   0.44506   0.00000  Uiso   1.00
H1455  H     0.71684   0.88443   0.39792   0.00000  Uiso   1.00
H1456  H     0.78932   0.89240   0.35252   0.00000  Uiso   1.00
H1457  H     0.80554   0.92448   0.39341   0.00000  Uiso   1.00
H1458  H     0.81028   0.64909   0.57409   0.00000  Uiso   1.00
H1459  H     0.80734   0.67237   0.63154   0.00000  Uiso   1.00
H1460  H     0.85567   0.64961   0.61083   0.00000  Uiso   1.00
H1461  H     0.81895   0.59561   0.66475   0.00000  Uiso   1.00
H1462  H     0.96085   0.63785   0.65084   0.00000  Uiso   1.00
H1463  H     0.82959   0.57011   0.61052   0.00000  Uiso   1.00
H1464  H     0.75532   0.58696   0.58419   0.00000  Uiso   1.00
H1465  H     0.74625   0.61607   0.63361   0.00000  Uiso   1.00
H1466  H     0.69380   0.65281   0.43059   0.00000  Uiso   1.00
H1467  H     0.70602   0.67734   0.37566   0.00000  Uiso   1.00
H1468  H     0.65347   0.66124   0.38814   0.00000  Uiso   1.00
H1469  H     0.68592   0.60301   0.33692   0.00000  Uiso   1.00
H1470  H     0.67233   0.57812   0.39011   0.00000  Uiso   1.00
H1471  H     0.74651   0.58585   0.41810   0.00000  Uiso   1.00
H1472  H     0.76078   0.61444   0.37136   0.00000  Uiso   1.00
H1473  H     0.96428   0.59707   0.36349   0.00000  Uiso   1.00
H1474  H     0.70230   0.85260   0.55610   0.00000  Uiso   1.00
H1475  H     0.73507   0.81860   0.59382   0.00000  Uiso   1.00
H1476  H     0.67989   0.81856   0.60090   0.00000  Uiso   1.00
H1477  H     0.71272   0.86734   0.65968   0.00000  Uiso   1.00
H1478  H     0.68214   0.90312   0.62293   0.00000  Uiso   1.00
H1479  H     0.74939   0.91531   0.57860   0.00000  Uiso   1.00
H1480  H     0.77665   0.89058   0.61907   0.00000  Uiso   1.00
H1481  H     0.88528   0.73422   0.44343   0.00000  Uiso   1.00
H1482  H     0.57659   0.88171   0.61095   0.00000  Uiso   1.00
H1483  H     0.61371   0.77129   0.43747   0.00000  Uiso   1.00
H1484  H     0.52609   0.64205   0.37286   0.00000  Uiso   1.00
H1485  H     0.98127   0.62017   0.53664   0.00000  Uiso   1.00
H1486  H     0.61491   0.73876   0.55064   0.00000  Uiso   1.00
H1487  H     0.91435   0.87317   0.38536   0.00000  Uiso   1.00
H1488  H     0.88528   0.76840   0.56102   0.00000  Uiso   1.00
H1489  H     0.51670   0.61526   0.47237   0.00000  Uiso   1.00
H1490  H     0.65235   0.94342   0.40616   0.00000  Uiso   1.00
H1491  H     0.86492   0.51342   0.55484   0.00000  Uiso   1.00
H1492  H     0.79303   0.67176   0.43177   0.00000  Uiso   1.00
H1493  H     0.61951   0.94024   0.60824   0.00000  Uiso   1.00
H1494  H     0.84506   0.93929   0.59460   0.00000  Uiso   1.00
H1495  H     0.99374   0.66282   0.41427   0.00000  Uiso   1.00
H1496  H     0.63501   0.51629   0.43871   0.00000  Uiso   1.00
H1497  H     0.69250   0.62369   0.58712   0.00000  Uiso   1.00
H1498  H     0.88097   0.93705   0.39298   0.00000  Uiso   1.00
H1499  H     0.93927   0.89672   0.55739   0.00000  Uiso   1.00
H1500  H     0.93882   0.92041   0.61526   0.00000  Uiso   1.00
N1501  N     0.50000   0.75000   0.61736   0.00000  Uiso   1.00
N1502  N     0.50000   0.75000   0.38264   0.00000  Uiso   1.00
N1503  N     0.75000   0.50000   0.61736   0.00000  Uiso   1.00
N1504  N     0.75000   0.50000   0.38264   0.00000  Uiso   1.00
O1505  O     0.54508   0.70491   0.53958   0.00000  Uiso   1.00
O1506  O     0.70491   0.54509   0.46042   0.00000  Uiso   1.00
O1507  O     0.70491   0.54509   0.53958   0.00000  Uiso   1.00
O1508  O     0.79508   0.95491   0.46042   0.00000  Uiso   1.00
O1509  O     0.70491   0.95491   0.46042   0.00000  Uiso   1.00
O1510  O     0.79508   0.54509   0.53958   0.00000  Uiso   1.00
O1511  O     0.79508   0.54509   0.46042   0.00000  Uiso   1.00
O1512  O     0.70491   0.95491   0.53958   0.00000  Uiso   1.00
O1513  O     0.83091   0.73975   0.47301   0.00000  Uiso   1.00
O1514  O     0.59756   0.81737   0.60407   0.00000  Uiso   1.00
O1515  O     0.65792   0.80496   0.40597   0.00000  Uiso   1.00
O1516  O     0.95491   0.79509   0.46042   0.00000  Uiso   1.00
O1517  O     0.95400   0.57921   0.58080   0.00000  Uiso   1.00
O1518  O     0.67006   0.73951   0.52265   0.00000  Uiso   1.00
O1519  O     0.89720   0.80875   0.39796   0.00000  Uiso   1.00
O1520  O     0.83629   0.79863   0.58766   0.00000  Uiso   1.00
O1521  O     0.54098   0.57241   0.42693   0.00000  Uiso   1.00
O1522  O     0.63029   0.88640   0.37737   0.00000  Uiso   1.00
O1523  O     0.92021   0.51120   0.52696   0.00000  Uiso   1.00
O1524  O     0.76307   0.64008   0.48131   0.00000  Uiso   1.00
O1525  O     0.62887   0.98825   0.56184   0.00000  Uiso   1.00
O1526  O     0.86004   0.87960   0.62245   0.00000  Uiso   1.00
O1527  O     0.95491   0.79509   0.53958   0.00000  Uiso   1.00
O1528  O     0.58394   0.50779   0.47432   0.00000  Uiso   1.00
O1529  O     0.72122   0.67369   0.55295   0.00000  Uiso   1.00
O1530  O     0.87383   0.98491   0.44092   0.00000  Uiso   1.00
O1531  O     0.54508   0.70491   0.46042   0.00000  Uiso   1.00
O1532  O     0.95491   0.70491   0.46042   0.00000  Uiso   1.00
O1533  O     0.54508   0.79509   0.53958   0.00000  Uiso   1.00
O1534  O     0.54508   0.79509   0.46042   0.00000  Uiso   1.00
O1535  O     0.95491   0.70491   0.53958   0.00000  Uiso   1.00
O1536  O     0.79508   0.95491   0.53958   0.00000  Uiso   1.00
C1537  C     0.05845   0.19002   0.83324   0.00000  Uiso   1.00
C1538  C     0.49080   0.28956   0.97676   0.00000  Uiso   1.00
C1539  C     0.00111   0.29083   0.69123   0.00000  Uiso   1.00
C1540  C     0.01273   0.21184   0.97613   0.00000  Uiso   1.00
C1541  C     0.25510   0.45866   0.69064   0.00000  Uiso   1.00
C1542  C     0.25209   0.04087   0.97600   0.00000  Uiso   1.00
C1543  C     0.24713   0.04083   0.69146   0.00000  Uiso   1.00
C1544  C     0.25011   0.45844   0.97454   0.00000  Uiso   1.00
C1545  C     0.36862   0.16961   0.81469   0.00000  Uiso   1.00
C1546  C     0.10380   0.36875   0.87547   0.00000  Uiso   1.00
C1547  C     0.12140   0.34459   0.79759   0.00000  Uiso   1.00
C1548  C     0.43820   0.30625   0.83254   0.00000  Uiso   1.00
C1549  C     0.41346   0.11342   0.85500   0.00000  Uiso   1.00
C1550  C     0.13069   0.17031   0.85059   0.00000  Uiso   1.00
C1551  C     0.39367   0.36448   0.79084   0.00000  Uiso   1.00
C1552  C     0.37571   0.34095   0.86799   0.00000  Uiso   1.00
C1553  C     0.08559   0.11183   0.81302   0.00000  Uiso   1.00
C1554  C     0.14132   0.38739   0.79144   0.00000  Uiso   1.00
C1555  C     0.38120   0.08052   0.85388   0.00000  Uiso   1.00
C1556  C     0.33585   0.13765   0.81563   0.00000  Uiso   1.00
C1557  C     0.12728   0.40949   0.87069   0.00000  Uiso   1.00
C1558  C     0.35513   0.38350   0.87449   0.00000  Uiso   1.00
C1559  C     0.44109   0.19039   0.83311   0.00000  Uiso   1.00
C1560  C     0.11871   0.07997   0.81260   0.00000  Uiso   1.00
C1561  C     0.16195   0.13697   0.85443   0.00000  Uiso   1.00
C1562  C     0.37138   0.40594   0.79612   0.00000  Uiso   1.00
C1563  C     0.09733   0.33882   0.83680   0.00000  Uiso   1.00
C1564  C     0.40751   0.15672   0.83311   0.00000  Uiso   1.00
C1565  C     0.40079   0.33579   0.82958   0.00000  Uiso   1.00
C1566  C     0.09193   0.15657   0.83271   0.00000  Uiso   1.00
C1567  C     0.34246   0.09323   0.83487   0.00000  Uiso   1.00
C1568  C     0.15031   0.41523   0.83061   0.00000  Uiso   1.00
C1569  C     0.15685   0.09293   0.83317   0.00000  Uiso   1.00
C1570  C     0.06120   0.30728   0.83420   0.00000  Uiso   1.00
C1571  C     0.34797   0.41236   0.83591   0.00000  Uiso   1.00
C1572  C     0.49714   0.16186   0.71073   0.00000  Uiso   1.00
C1573  C     0.46076   0.13459   0.68865   0.00000  Uiso   1.00
C1574  C     0.41883   0.15102   0.70541   0.00000  Uiso   1.00
C1575  C     0.46398   0.32990   0.96020   0.00000  Uiso   1.00
C1576  C     0.48713   0.36919   0.93583   0.00000  Uiso   1.00
C1577  C     0.45859   0.40832   0.92014   0.00000  Uiso   1.00
C1578  C     0.02831   0.33181   0.70624   0.00000  Uiso   1.00
C1579  C     0.00593   0.37134   0.73161   0.00000  Uiso   1.00
C1580  C     0.03485   0.41131   0.74485   0.00000  Uiso   1.00
C1581  C     0.31140   0.44312   0.83400   0.00000  Uiso   1.00
C1582  C     0.05347   0.18720   0.96603   0.00000  Uiso   1.00
C1583  C     0.04952   0.13648   0.94826   0.00000  Uiso   1.00
C1584  C     0.09075   0.11086   0.95258   0.00000  Uiso   1.00
C1585  C     0.27571   0.41511   0.71165   0.00000  Uiso   1.00
C1586  C     0.24948   0.38319   0.74205   0.00000  Uiso   1.00
C1587  C     0.26423   0.33259   0.74035   0.00000  Uiso   1.00
C1588  C     0.26411   0.08635   0.95365   0.00000  Uiso   1.00
C1589  C     0.31049   0.09684   0.96109   0.00000  Uiso   1.00
C1590  C     0.32158   0.14495   0.94321   0.00000  Uiso   1.00
C1591  C     0.23900   0.08708   0.71532   0.00000  Uiso   1.00
C1592  C     0.19113   0.05986   0.83333   0.00000  Uiso   1.00
C1593  C     0.19389   0.10286   0.70736   0.00000  Uiso   1.00
C1594  C     0.18646   0.15160   0.72671   0.00000  Uiso   1.00
C1595  C     0.24847   0.41156   0.94832   0.00000  Uiso   1.00
C1596  C     0.21044   0.38172   0.95838   0.00000  Uiso   1.00
C1597  C     0.20674   0.34041   0.92513   0.00000  Uiso   1.00
C1598  C     0.36198   0.21768   0.79709   0.00000  Uiso   1.00
C1599  C     0.09049   0.35604   0.92214   0.00000  Uiso   1.00
C1600  C     0.13010   0.30388   0.76700   0.00000  Uiso   1.00
C1601  C     0.45299   0.10377   0.88025   0.00000  Uiso   1.00
C1602  C     0.13818   0.21943   0.86571   0.00000  Uiso   1.00
C1603  C     0.18815   0.44396   0.83257   0.00000  Uiso   1.00
C1604  C     0.40367   0.34882   0.74368   0.00000  Uiso   1.00
C1605  C     0.36665   0.29965   0.89674   0.00000  Uiso   1.00
C1606  C     0.04440   0.09926   0.79276   0.00000  Uiso   1.00
C1607  C     0.14265   0.40788   0.74453   0.00000  Uiso   1.00
C1608  C     0.38837   0.03183   0.86956   0.00000  Uiso   1.00
C1609  C     0.29495   0.15094   0.79588   0.00000  Uiso   1.00
C1610  C     0.12531   0.44753   0.90597   0.00000  Uiso   1.00
C1611  C     0.35184   0.40288   0.92207   0.00000  Uiso   1.00
C1612  C     0.11288   0.03152   0.79513   0.00000  Uiso   1.00
C1613  C     0.19437   0.14418   0.88981   0.00000  Uiso   1.00
C1614  C     0.30913   0.05930   0.83374   0.00000  Uiso   1.00
C1615  C     0.37565   0.44419   0.76216   0.00000  Uiso   1.00
C1616  C     0.00161   0.20955   0.69006   0.00000  Uiso   1.00
Cu1617 Cu    0.00000   0.25000   0.88022   0.00000  Uiso   1.00
Cu1618 Cu    0.00000   0.25000   0.78645   0.00000  Uiso   1.00
Cu1619 Cu    0.25000  -0.00000   0.88022   0.00000  Uiso   1.00
Cu1620 Cu    0.25000  -0.00000   0.78645   0.00000  Uiso   1.00
H1621  H     0.41543   0.14141   0.74169   0.00000  Uiso   1.00
H1622  H     0.47744   0.43821   0.90866   0.00000  Uiso   1.00
H1623  H     0.00942   0.38574   0.95983   0.00000  Uiso   1.00
H1624  H     0.00386   0.35581   0.90593   0.00000  Uiso   1.00
H1625  H     0.43622   0.31716   0.94213   0.00000  Uiso   1.00
H1626  H     0.44902   0.34604   0.99006   0.00000  Uiso   1.00
H1627  H     0.05708   0.40007   0.77167   0.00000  Uiso   1.00
H1628  H     0.05162   0.42389   0.71450   0.00000  Uiso   1.00
H1629  H     0.01657   0.44065   0.75902   0.00000  Uiso   1.00
H1630  H     0.48172   0.38636   0.70917   0.00000  Uiso   1.00
H1631  H     0.49169   0.35856   0.76309   0.00000  Uiso   1.00
H1632  H     0.41544   0.18926   0.70147   0.00000  Uiso   1.00
H1633  H     0.05640   0.31974   0.72390   0.00000  Uiso   1.00
H1634  H     0.04300   0.34684   0.67592   0.00000  Uiso   1.00
H1635  H     0.11568   0.13130   0.93680   0.00000  Uiso   1.00
H1636  H     0.09886   0.10532   0.98925   0.00000  Uiso   1.00
H1637  H     0.08850   0.07645   0.93506   0.00000  Uiso   1.00
H1638  H     0.02657   0.11643   0.96740   0.00000  Uiso   1.00
H1639  H     0.03916   0.13510   0.91219   0.00000  Uiso   1.00
H1640  H     0.07328   0.20872   0.94430   0.00000  Uiso   1.00
H1641  H     0.07237   0.18651   0.99828   0.00000  Uiso   1.00
H1642  H     0.26088   0.31807   0.70510   0.00000  Uiso   1.00
H1643  H     0.39386   0.13338   0.68529   0.00000  Uiso   1.00
H1644  H     0.29717   0.33043   0.75162   0.00000  Uiso   1.00
H1645  H     0.24540   0.31119   0.76364   0.00000  Uiso   1.00
H1646  H     0.25114   0.39343   0.77840   0.00000  Uiso   1.00
H1647  H     0.21684   0.38443   0.73125   0.00000  Uiso   1.00
H1648  H     0.28932   0.39240   0.68585   0.00000  Uiso   1.00
H1649  H     0.30554   0.42448   0.72674   0.00000  Uiso   1.00
H1650  H     0.31028   0.14909   0.90743   0.00000  Uiso   1.00
H1651  H     0.30734   0.17237   0.96487   0.00000  Uiso   1.00
H1652  H     0.35567   0.14961   0.94417   0.00000  Uiso   1.00
H1653  H     0.31895   0.09561   0.99808   0.00000  Uiso   1.00
H1654  H     0.46085   0.13785   0.98418   0.00000  Uiso   1.00
H1655  H     0.32959   0.07011   0.94385   0.00000  Uiso   1.00
H1656  H     0.25532   0.08696   0.91752   0.00000  Uiso   1.00
H1657  H     0.24625   0.11607   0.96695   0.00000  Uiso   1.00
H1658  H     0.19380   0.15281   0.76392   0.00000  Uiso   1.00
H1659  H     0.20602   0.17734   0.70899   0.00000  Uiso   1.00
H1660  H     0.15347   0.16124   0.72147   0.00000  Uiso   1.00
H1661  H     0.18592   0.10301   0.67025   0.00000  Uiso   1.00
H1662  H     0.17233   0.07812   0.72344   0.00000  Uiso   1.00
H1663  H     0.24651   0.08585   0.75143   0.00000  Uiso   1.00
H1664  H     0.26078   0.11444   0.70470   0.00000  Uiso   1.00
H1665  H     0.46428   0.09707   0.69682   0.00000  Uiso   1.00
H1666  H     0.20230   0.35260   0.88943   0.00000  Uiso   1.00
H1667  H     0.23507   0.31860   0.92715   0.00000  Uiso   1.00
H1668  H     0.17989   0.31856   0.93424   0.00000  Uiso   1.00
H1669  H     0.21272   0.36734   0.99302   0.00000  Uiso   1.00
H1670  H     0.18214   0.40312   0.95626   0.00000  Uiso   1.00
H1671  H     0.24939   0.41531   0.91193   0.00000  Uiso   1.00
H1672  H     0.27665   0.39058   0.95240   0.00000  Uiso   1.00
H1673  H     0.38528   0.23422   0.77676   0.00000  Uiso   1.00
H1674  H     0.07659   0.38171   0.94428   0.00000  Uiso   1.00
H1675  H     0.11371   0.27129   0.77080   0.00000  Uiso   1.00
H1676  H     0.02609   0.14205   0.70619   0.00000  Uiso   1.00
H1677  H     0.48127   0.12017   0.86997   0.00000  Uiso   1.00
H1678  H     0.11491   0.23876   0.88397   0.00000  Uiso   1.00
H1679  H     0.41435   0.37317   0.71870   0.00000  Uiso   1.00
H1680  H     0.38528   0.26840   0.89435   0.00000  Uiso   1.00
H1681  H     0.01670   0.11526   0.80570   0.00000  Uiso   1.00
H1682  H     0.15235   0.44342   0.73950   0.00000  Uiso   1.00
H1683  H     0.36492   0.01342   0.88817   0.00000  Uiso   1.00
H1684  H     0.29303   0.17176   0.76511   0.00000  Uiso   1.00
H1685  H     0.11951   0.44024   0.94157   0.00000  Uiso   1.00
H1686  H     0.34506   0.43929   0.92794   0.00000  Uiso   1.00
H1687  H     0.49374   0.16282   0.74760   0.00000  Uiso   1.00
H1688  H     0.13501   0.01629   0.77205   0.00000  Uiso   1.00
H1689  H     0.19250   0.12369   0.92046   0.00000  Uiso   1.00
H1690  H     0.38097   0.43705   0.72631   0.00000  Uiso   1.00
H1691  H     0.43927   0.39672   0.89073   0.00000  Uiso   1.00
H1692  H     0.43882   0.42041   0.94859   0.00000  Uiso   1.00
N1693  N     0.00000   0.25000   0.95069   0.00000  Uiso   1.00
N1694  N     0.00000   0.25000   0.71598   0.00000  Uiso   1.00
N1695  N     0.25000  -0.00000   0.95069   0.00000  Uiso   1.00
N1696  N     0.25000  -0.00000   0.71598   0.00000  Uiso   1.00
O1697  O     0.04508   0.20491   0.87291   0.00000  Uiso   1.00
O1698  O     0.20491   0.04509   0.79375   0.00000  Uiso   1.00
O1699  O     0.20491   0.04509   0.87291   0.00000  Uiso   1.00
O1700  O     0.29508   0.45491   0.79375   0.00000  Uiso   1.00
O1701  O     0.20491   0.45491   0.79375   0.00000  Uiso   1.00
O1702  O     0.29508   0.04509   0.87291   0.00000  Uiso   1.00
O1703  O     0.29508   0.04509   0.79375   0.00000  Uiso   1.00
O1704  O     0.20491   0.45491   0.87291   0.00000  Uiso   1.00
O1705  O     0.33091   0.23975   0.80634   0.00000  Uiso   1.00
O1706  O     0.09756   0.31737   0.93740   0.00000  Uiso   1.00
O1707  O     0.15792   0.30496   0.73930   0.00000  Uiso   1.00
O1708  O     0.45491   0.29509   0.79375   0.00000  Uiso   1.00
O1709  O     0.45400   0.07921   0.91414   0.00000  Uiso   1.00
O1710  O     0.17006   0.23951   0.85599   0.00000  Uiso   1.00
O1711  O     0.39720   0.30875   0.73129   0.00000  Uiso   1.00
O1712  O     0.33629   0.29863   0.92100   0.00000  Uiso   1.00
O1713  O     0.04098   0.07241   0.76026   0.00000  Uiso   1.00
O1714  O     0.13029   0.38640   0.71070   0.00000  Uiso   1.00
O1715  O     0.42021   0.01120   0.86029   0.00000  Uiso   1.00
O1716  O     0.26307   0.14008   0.81464   0.00000  Uiso   1.00
O1717  O     0.12887   0.48825   0.89517   0.00000  Uiso   1.00
O1718  O     0.36004   0.37960   0.95578   0.00000  Uiso   1.00
O1719  O     0.45491   0.29509   0.87291   0.00000  Uiso   1.00
O1720  O     0.08394   0.00779   0.80765   0.00000  Uiso   1.00
O1721  O     0.22122   0.17369   0.88629   0.00000  Uiso   1.00
O1722  O     0.37383   0.48491   0.77425   0.00000  Uiso   1.00
O1723  O     0.04508   0.20491   0.79375   0.00000  Uiso   1.00
O1724  O     0.45491   0.20491   0.79375   0.00000  Uiso   1.00
O1725  O     0.04508   0.29509   0.87291   0.00000  Uiso   1.00
O1726  O     0.04508   0.29509   0.79375   0.00000  Uiso   1.00
O1727  O     0.45491   0.20491   0.87291   0.00000  Uiso   1.00
O1728  O     0.29508   0.45491   0.87291   0.00000  Uiso   1.00
C1729  C     0.55845   0.19002   0.83324   0.00000  Uiso   1.00
C1730  C     0.99080   0.28956   0.97676   0.00000  Uiso   1.00
C1731  C     0.50111   0.29083   0.69123   0.00000  Uiso   1.00
C1732  C     0.51273   0.21184   0.97613   0.00000  Uiso   1.00
C1733  C     0.75510   0.45866   0.69064   0.00000  Uiso   1.00
C1734  C     0.75209   0.04087   0.97600   0.00000  Uiso   1.00
C1735  C     0.74713   0.04083   0.69146   0.00000  Uiso   1.00
C1736  C     0.75011   0.45844   0.97454   0.00000  Uiso   1.00
C1737  C     0.86862   0.16961   0.81469   0.00000  Uiso   1.00
C1738  C     0.60380   0.36875   0.87547   0.00000  Uiso   1.00
C1739  C     0.62140   0.34459   0.79759   0.00000  Uiso   1.00
C1740  C     0.93820   0.30625   0.83254   0.00000  Uiso   1.00
C1741  C     0.91346   0.11342   0.85500   0.00000  Uiso   1.00
C1742  C     0.63069   0.17031   0.85059   0.00000  Uiso   1.00
C1743  C     0.89367   0.36448   0.79084   0.00000  Uiso   1.00
C1744  C     0.87571   0.34095   0.86799   0.00000  Uiso   1.00
C1745  C     0.58559   0.11183   0.81302   0.00000  Uiso   1.00
C1746  C     0.64132   0.38739   0.79144   0.00000  Uiso   1.00
C1747  C     0.88120   0.08052   0.85388   0.00000  Uiso   1.00
C1748  C     0.83585   0.13765   0.81563   0.00000  Uiso   1.00
C1749  C     0.62728   0.40949   0.87069   0.00000  Uiso   1.00
C1750  C     0.85513   0.38350   0.87449   0.00000  Uiso   1.00
C1751  C     0.94109   0.19039   0.83311   0.00000  Uiso   1.00
C1752  C     0.61871   0.07997   0.81260   0.00000  Uiso   1.00
C1753  C     0.66195   0.13697   0.85443   0.00000  Uiso   1.00
C1754  C     0.87138   0.40594   0.79612   0.00000  Uiso   1.00
C1755  C     0.59733   0.33882   0.83680   0.00000  Uiso   1.00
C1756  C     0.90751   0.15672   0.83311   0.00000  Uiso   1.00
C1757  C     0.90079   0.33579   0.82958   0.00000  Uiso   1.00
C1758  C     0.59193   0.15657   0.83271   0.00000  Uiso   1.00
C1759  C     0.84246   0.09323   0.83487   0.00000  Uiso   1.00
C1760  C     0.65031   0.41523   0.83061   0.00000  Uiso   1.00
C1761  C     0.65685   0.09293   0.83317   0.00000  Uiso   1.00
C1762  C     0.56120   0.30728   0.83420   0.00000  Uiso   1.00
C1763  C     0.84797   0.41236   0.83591   0.00000  Uiso   1.00
C1764  C     0.99714   0.16186   0.71073   0.00000  Uiso   1.00
C1765  C     0.96076   0.13459   0.68865   0.00000  Uiso   1.00
C1766  C     0.91883   0.15102   0.70541   0.00000  Uiso   1.00
C1767  C     0.96398   0.32990   0.96020   0.00000  Uiso   1.00
C1768  C     0.98713   0.36919   0.93583   0.00000  Uiso   1.00
C1769  C     0.95859   0.40832   0.92014   0.00000  Uiso   1.00
C1770  C     0.52831   0.33181   0.70624   0.00000  Uiso   1.00
C1771  C     0.50593   0.37134   0.73161   0.00000  Uiso   1.00
C1772  C     0.53485   0.41131   0.74485   0.00000  Uiso   1.00
C1773  C     0.81140   0.44312   0.83400   0.00000  Uiso   1.00
C1774  C     0.55347   0.18720   0.96603   0.00000  Uiso   1.00
C1775  C     0.54952   0.13648   0.94826   0.00000  Uiso   1.00
C1776  C     0.59075   0.11086   0.95258   0.00000  Uiso   1.00
C1777  C     0.77571   0.41511   0.71165   0.00000  Uiso   1.00
C1778  C     0.74948   0.38319   0.74205   0.00000  Uiso   1.00
C1779  C     0.76423   0.33259   0.74035   0.00000  Uiso   1.00
C1780  C     0.76411   0.08635   0.95365   0.00000  Uiso   1.00
C1781  C     0.81049   0.09684   0.96109   0.00000  Uiso   1.00
C1782  C     0.82158   0.14495   0.94321   0.00000  Uiso   1.00
C1783  C     0.73900   0.08708   0.71532   0.00000  Uiso   1.00
C1784  C     0.69113   0.05986   0.83333   0.00000  Uiso   1.00
C1785  C     0.69389   0.10286   0.70736   0.00000  Uiso   1.00
C1786  C     0.68646   0.15160   0.72671   0.00000  Uiso   1.00
C1787  C     0.74847   0.41156   0.94832   0.00000  Uiso   1.00
C1788  C     0.71044   0.38172   0.95838   0.00000  Uiso   1.00
C1789  C     0.70674   0.34041   0.92513   0.00000  Uiso   1.00
C1790  C     0.86198   0.21768   0.79709   0.00000  Uiso   1.00
C1791  C     0.59049   0.35604   0.92214   0.00000  Uiso   1.00
C1792  C     0.63010   0.30388   0.76700   0.00000  Uiso   1.00
C1793  C     0.95299   0.10377   0.88025   0.00000  Uiso   1.00
C1794  C     0.63818   0.21943   0.86571   0.00000  Uiso   1.00
C1795  C     0.68815   0.44396   0.83257   0.00000  Uiso   1.00
C1796  C     0.90367   0.34882   0.74368   0.00000  Uiso   1.00
C1797  C     0.86665   0.29965   0.89674   0.00000  Uiso   1.00
C1798  C     0.54440   0.09926   0.79276   0.00000  Uiso   1.00
C1799  C     0.64265   0.40788   0.74453   0.00000  Uiso   1.00
C1800  C     0.88837   0.03183   0.86956   0.00000  Uiso   1.00
C1801  C     0.79495   0.15094   0.79588   0.00000  Uiso   1.00
C1802  C     0.62531   0.44753   0.90597   0.00000  Uiso   1.00
C1803  C     0.85184   0.40288   0.92207   0.00000  Uiso   1.00
C1804  C     0.61288   0.03152   0.79513   0.00000  Uiso   1.00
C1805  C     0.69437   0.14418   0.88981   0.00000  Uiso   1.00
C1806  C     0.80913   0.05930   0.83374   0.00000  Uiso   1.00
C1807  C     0.87565   0.44419   0.76216   0.00000  Uiso   1.00
C1808  C     0.50161   0.20955   0.69006   0.00000  Uiso   1.00
Cu1809 Cu    0.50000   0.25000   0.88022   0.00000  Uiso   1.00
Cu1810 Cu    0.50000   0.25000   0.78645   0.00000  Uiso   1.00
Cu1811 Cu    0.75000  -0.00000   0.88022   0.00000  Uiso   1.00
Cu1812 Cu    0.75000  -0.00000   0.78645   0.00000  Uiso   1.00
H1813  H     0.91543   0.14141   0.74169   0.00000  Uiso   1.00
H1814  H     0.97744   0.43821   0.90866   0.00000  Uiso   1.00
H1815  H     0.50942   0.38574   0.95983   0.00000  Uiso   1.00
H1816  H     0.50386   0.35581   0.90593   0.00000  Uiso   1.00
H1817  H     0.93622   0.31716   0.94213   0.00000  Uiso   1.00
H1818  H     0.94902   0.34604   0.99006   0.00000  Uiso   1.00
H1819  H     0.55708   0.40007   0.77167   0.00000  Uiso   1.00
H1820  H     0.55162   0.42389   0.71450   0.00000  Uiso   1.00
H1821  H     0.51657   0.44065   0.75902   0.00000  Uiso   1.00
H1822  H     0.98172   0.38636   0.70917   0.00000  Uiso   1.00
H1823  H     0.99169   0.35856   0.76309   0.00000  Uiso   1.00
H1824  H     0.91544   0.18926   0.70147   0.00000  Uiso   1.00
H1825  H     0.55640   0.31974   0.72390   0.00000  Uiso   1.00
H1826  H     0.54300   0.34684   0.67592   0.00000  Uiso   1.00
H1827  H     0.61568   0.13130   0.93680   0.00000  Uiso   1.00
H1828  H     0.59886   0.10532   0.98925   0.00000  Uiso   1.00
H1829  H     0.58850   0.07645   0.93506   0.00000  Uiso   1.00
H1830  H     0.52657   0.11643   0.96740   0.00000  Uiso   1.00
H1831  H     0.53916   0.13510   0.91219   0.00000  Uiso   1.00
H1832  H     0.57328   0.20872   0.94430   0.00000  Uiso   1.00
H1833  H     0.57237   0.18651   0.99828   0.00000  Uiso   1.00
H1834  H     0.76088   0.31807   0.70510   0.00000  Uiso   1.00
H1835  H     0.89386   0.13338   0.68529   0.00000  Uiso   1.00
H1836  H     0.79717   0.33043   0.75162   0.00000  Uiso   1.00
H1837  H     0.74540   0.31119   0.76364   0.00000  Uiso   1.00
H1838  H     0.75114   0.39343   0.77840   0.00000  Uiso   1.00
H1839  H     0.71684   0.38443   0.73125   0.00000  Uiso   1.00
H1840  H     0.78932   0.39240   0.68585   0.00000  Uiso   1.00
H1841  H     0.80554   0.42448   0.72674   0.00000  Uiso   1.00
H1842  H     0.81028   0.14909   0.90743   0.00000  Uiso   1.00
H1843  H     0.80734   0.17237   0.96487   0.00000  Uiso   1.00
H1844  H     0.85567   0.14961   0.94417   0.00000  Uiso   1.00
H1845  H     0.81895   0.09561   0.99808   0.00000  Uiso   1.00
H1846  H     0.96085   0.13785   0.98418   0.00000  Uiso   1.00
H1847  H     0.82959   0.07011   0.94385   0.00000  Uiso   1.00
H1848  H     0.75532   0.08696   0.91752   0.00000  Uiso   1.00
H1849  H     0.74625   0.11607   0.96695   0.00000  Uiso   1.00
H1850  H     0.69380   0.15281   0.76392   0.00000  Uiso   1.00
H1851  H     0.70602   0.17734   0.70899   0.00000  Uiso   1.00
H1852  H     0.65347   0.16124   0.72147   0.00000  Uiso   1.00
H1853  H     0.68592   0.10301   0.67025   0.00000  Uiso   1.00
H1854  H     0.67233   0.07812   0.72344   0.00000  Uiso   1.00
H1855  H     0.74651   0.08585   0.75143   0.00000  Uiso   1.00
H1856  H     0.76078   0.11444   0.70470   0.00000  Uiso   1.00
H1857  H     0.96428   0.09707   0.69682   0.00000  Uiso   1.00
H1858  H     0.70230   0.35260   0.88943   0.00000  Uiso   1.00
H1859  H     0.73507   0.31860   0.92715   0.00000  Uiso   1.00
H1860  H     0.67989   0.31856   0.93424   0.00000  Uiso   1.00
H1861  H     0.71272   0.36734   0.99302   0.00000  Uiso   1.00
H1862  H     0.68214   0.40312   0.95626   0.00000  Uiso   1.00
H1863  H     0.74939   0.41531   0.91193   0.00000  Uiso   1.00
H1864  H     0.77665   0.39058   0.95240   0.00000  Uiso   1.00
H1865  H     0.88528   0.23422   0.77676   0.00000  Uiso   1.00
H1866  H     0.57659   0.38171   0.94428   0.00000  Uiso   1.00
H1867  H     0.61371   0.27129   0.77080   0.00000  Uiso   1.00
H1868  H     0.52609   0.14205   0.70619   0.00000  Uiso   1.00
H1869  H     0.98127   0.12017   0.86997   0.00000  Uiso   1.00
H1870  H     0.61491   0.23876   0.88397   0.00000  Uiso   1.00
H1871  H     0.91435   0.37317   0.71870   0.00000  Uiso   1.00
H1872  H     0.88528   0.26840   0.89435   0.00000  Uiso   1.00
H1873  H     0.51670   0.11526   0.80570   0.00000  Uiso   1.00
H1874  H     0.65235   0.44342   0.73950   0.00000  Uiso   1.00
H1875  H     0.86492   0.01342   0.88817   0.00000  Uiso   1.00
H1876  H     0.79303   0.17176   0.76511   0.00000  Uiso   1.00
H1877  H     0.61951   0.44024   0.94157   0.00000  Uiso   1.00
H1878  H     0.84506   0.43929   0.92794   0.00000  Uiso   1.00
H1879  H     0.99374   0.16282   0.74760   0.00000  Uiso   1.00
H1880  H     0.63501   0.01629   0.77205   0.00000  Uiso   1.00
H1881  H     0.69250   0.12369   0.92046   0.00000  Uiso   1.00
H1882  H     0.88097   0.43705   0.72631   0.00000  Uiso   1.00
H1883  H     0.93927   0.39672   0.89073   0.00000  Uiso   1.00
H1884  H     0.93882   0.42041   0.94859   0.00000  Uiso   1.00
N1885  N     0.50000   0.25000   0.95069   0.00000  Uiso   1.00
N1886  N     0.50000   0.25000   0.71598   0.00000  Uiso   1.00
N1887  N     0.75000  -0.00000   0.95069   0.00000  Uiso   1.00
N1888  N     0.75000  -0.00000   0.71598   0.00000  Uiso   1.00
O1889  O     0.54508   0.20491   0.87291   0.00000  Uiso   1.00
O1890  O     0.70491   0.04509   0.79375   0.00000  Uiso   1.00
O1891  O     0.70491   0.04509   0.87291   0.00000  Uiso   1.00
O1892  O     0.79508   0.45491   0.79375   0.00000  Uiso   1.00
O1893  O     0.70491   0.45491   0.79375   0.00000  Uiso   1.00
O1894  O     0.79508   0.04509   0.87291   0.00000  Uiso   1.00
O1895  O     0.79508   0.04509   0.79375   0.00000  Uiso   1.00
O1896  O     0.70491   0.45491   0.87291   0.00000  Uiso   1.00
O1897  O     0.83091   0.23975   0.80634   0.00000  Uiso   1.00
O1898  O     0.59756   0.31737   0.93740   0.00000  Uiso   1.00
O1899  O     0.65792   0.30496   0.73930   0.00000  Uiso   1.00
O1900  O     0.95491   0.29509   0.79375   0.00000  Uiso   1.00
O1901  O     0.95400   0.07921   0.91414   0.00000  Uiso   1.00
O1902  O     0.67006   0.23951   0.85599   0.00000  Uiso   1.00
O1903  O     0.89720   0.30875   0.73129   0.00000  Uiso   1.00
O1904  O     0.83629   0.29863   0.92100   0.00000  Uiso   1.00
O1905  O     0.54098   0.07241   0.76026   0.00000  Uiso   1.00
O1906  O     0.63029   0.38640   0.71070   0.00000  Uiso   1.00
O1907  O     0.92021   0.01120   0.86029   0.00000  Uiso   1.00
O1908  O     0.76307   0.14008   0.81464   0.00000  Uiso   1.00
O1909  O     0.62887   0.48825   0.89517   0.00000  Uiso   1.00
O1910  O     0.86004   0.37960   0.95578   0.00000  Uiso   1.00
O1911  O     0.95491   0.29509   0.87291   0.00000  Uiso   1.00
O1912  O     0.58394   0.00779   0.80765   0.00000  Uiso   1.00
O1913  O     0.72122   0.17369   0.88629   0.00000  Uiso   1.00
O1914  O     0.87383   0.48491   0.77425   0.00000  Uiso   1.00
O1915  O     0.54508   0.20491   0.79375   0.00000  Uiso   1.00
O1916  O     0.95491   0.20491   0.79375   0.00000  Uiso   1.00
O1917  O     0.54508   0.29509   0.87291   0.00000  Uiso   1.00
O1918  O     0.54508   0.29509   0.79375   0.00000  Uiso   1.00
O1919  O     0.95491   0.20491   0.87291   0.00000  Uiso   1.00
O1920  O     0.79508   0.45491   0.87291   0.00000  Uiso   1.00
C1921  C     0.05845   0.69002   0.83324   0.00000  Uiso   1.00
C1922  C     0.49080   0.78956   0.97676   0.00000  Uiso   1.00
C1923  C     0.00111   0.79083   0.69123   0.00000  Uiso   1.00
C1924  C     0.01273   0.71184   0.97613   0.00000  Uiso   1.00
C1925  C     0.25510   0.95866   0.69064   0.00000  Uiso   1.00
C1926  C     0.25209   0.54087   0.97600   0.00000  Uiso   1.00
C1927  C     0.24713   0.54083   0.69146   0.00000  Uiso   1.00
C1928  C     0.25011   0.95844   0.97454   0.00000  Uiso   1.00
C1929  C     0.36862   0.66961   0.81469   0.00000  Uiso   1.00
C1930  C     0.10380   0.86875   0.87547   0.00000  Uiso   1.00
C1931  C     0.12140   0.84459   0.79759   0.00000  Uiso   1.00
C1932  C     0.43820   0.80625   0.83254   0.00000  Uiso   1.00
C1933  C     0.41346   0.61342   0.85500   0.00000  Uiso   1.00
C1934  C     0.13069   0.67031   0.85059   0.00000  Uiso   1.00
C1935  C     0.39367   0.86448   0.79084   0.00000  Uiso   1.00
C1936  C     0.37571   0.84095   0.86799   0.00000  Uiso   1.00
C1937  C     0.08559   0.61183   0.81302   0.00000  Uiso   1.00
C1938  C     0.14132   0.88739   0.79144   0.00000  Uiso   1.00
C1939  C     0.38120   0.58052   0.85388   0.00000  Uiso   1.00
C1940  C     0.33585   0.63765   0.81563   0.00000  Uiso   1.00
C1941  C     0.12728   0.90949   0.87069   0.00000  Uiso   1.00
C1942  C     0.35513   0.88350   0.87449   0.00000  Uiso   1.00
C1943  C     0.44109   0.69039   0.83311   0.00000  Uiso   1.00
C1944  C     0.11871   0.57997   0.81260   0.00000  Uiso   1.00
C1945  C     0.16195   0.63697   0.85443   0.00000  Uiso   1.00
C1946  C     0.37138   0.90594   0.79612   0.00000  Uiso   1.00
C1947  C     0.09733   0.83882   0.83680   0.00000  Uiso   1.00
C1948  C     0.40751   0.65672   0.83311   0.00000  Uiso   1.00
C1949  C     0.40079   0.83579   0.82958   0.00000  Uiso   1.00
C1950  C     0.09193   0.65657   0.83271   0.00000  Uiso   1.00
C1951  C     0.34246   0.59323   0.83487   0.00000  Uiso   1.00
C1952  C     0.15031   0.91523   0.83061   0.00000  Uiso   1.00
C1953  C     0.15685   0.59293   0.83317   0.00000  Uiso   1.00
C1954  C     0.06120   0.80728   0.83420   0.00000  Uiso   1.00
C1955  C     0.34797   0.91236   0.83591   0.00000  Uiso   1.00
C1956  C     0.49714   0.66186   0.71073   0.00000  Uiso   1.00
C1957  C     0.46076   0.63459   0.68865   0.00000  Uiso   1.00
C1958  C     0.41883   0.65102   0.70541   0.00000  Uiso   1.00
C1959  C     0.46398   0.82990   0.96020   0.00000  Uiso   1.00
C1960  C     0.48713   0.86919   0.93583   0.00000  Uiso   1.00
C1961  C     0.45859   0.90832   0.92014   0.00000  Uiso   1.00
C1962  C     0.02831   0.83181   0.70624   0.00000  Uiso   1.00
C1963  C     0.00593   0.87134   0.73161   0.00000  Uiso   1.00
C1964  C     0.03485   0.91131   0.74485   0.00000  Uiso   1.00
C1965  C     0.31140   0.94312   0.83400   0.00000  Uiso   1.00
C1966  C     0.05347   0.68720   0.96603   0.00000  Uiso   1.00
C1967  C     0.04952   0.63648   0.94826   0.00000  Uiso   1.00
C1968  C     0.09075   0.61086   0.95258   0.00000  Uiso   1.00
C1969  C     0.27571   0.91511   0.71165   0.00000  Uiso   1.00
C1970  C     0.24948   0.88319   0.74205   0.00000  Uiso   1.00
C1971  C     0.26423   0.83259   0.74035   0.00000  Uiso   1.00
C1972  C     0.26411   0.58635   0.95365   0.00000  Uiso   1.00
C1973  C     0.31049   0.59684   0.96109   0.00000  Uiso   1.00
C1974  C     0.32158   0.64495   0.94321   0.00000  Uiso   1.00
C1975  C     0.23900   0.58708   0.71532   0.00000  Uiso   1.00
C1976  C     0.19113   0.55986   0.83333   0.00000  Uiso   1.00
C1977  C     0.19389   0.60286   0.70736   0.00000  Uiso   1.00
C1978  C     0.18646   0.65160   0.72671   0.00000  Uiso   1.00
C1979  C     0.24847   0.91156   0.94832   0.00000  Uiso   1.00
C1980  C     0.21044   0.88172   0.95838   0.00000  Uiso   1.00
C1981  C     0.20674   0.84041   0.92513   0.00000  Uiso   1.00
C1982  C     0.36198   0.71768   0.79709   0.00000  Uiso   1.00
C1983  C     0.09049   0.85604   0.92214   0.00000  Uiso   1.00
C1984  C     0.13010   0.80388   0.76700   0.00000  Uiso   1.00
C1985  C     0.45299   0.60377   0.88025   0.00000  Uiso   1.00
C1986  C     0.13818   0.71943   0.86571   0.00000  Uiso   1.00
C1987  C     0.18815   0.94396   0.83257   0.00000  Uiso   1.00
C1988  C     0.40367   0.84882   0.74368   0.00000  Uiso   1.00
C1989  C     0.36665   0.79965   0.89674   0.00000  Uiso   1.00
C1990  C     0.04440   0.59926   0.79276   0.00000  Uiso   1.00
C1991  C     0.14265   0.90788   0.74453   0.00000  Uiso   1.00
C1992  C     0.38837   0.53183   0.86956   0.00000  Uiso   1.00
C1993  C     0.29495   0.65094   0.79588   0.00000  Uiso   1.00
C1994  C     0.12531   0.94753   0.90597   0.00000  Uiso   1.00
C1995  C     0.35184   0.90288   0.92207   0.00000  Uiso   1.00
C1996  C     0.11288   0.53152   0.79513   0.00000  Uiso   1.00
C1997  C     0.19437   0.64418   0.88981   0.00000  Uiso   1.00
C1998  C     0.30913   0.55930   0.83374   0.00000  Uiso   1.00
C1999  C     0.37565   0.94419   0.76216   0.00000  Uiso   1.00
C2000  C     0.00161   0.70955   0.69006   0.00000  Uiso   1.00
Cu2001 Cu    0.00000   0.75000   0.88022   0.00000  Uiso   1.00
Cu2002 Cu    0.00000   0.75000   0.78645   0.00000  Uiso   1.00
Cu2003 Cu    0.25000   0.50000   0.88022   0.00000  Uiso   1.00
Cu2004 Cu    0.25000   0.50000   0.78645   0.00000  Uiso   1.00
H2005  H     0.41543   0.64141   0.74169   0.00000  Uiso   1.00
H2006  H     0.47744   0.93821   0.90866   0.00000  Uiso   1.00
H2007  H     0.00942   0.88574   0.95983   0.00000  Uiso   1.00
H2008  H     0.00386   0.85581   0.90593   0.00000  Uiso   1.00
H2009  H     0.43622   0.81716   0.94213   0.00000  Uiso   1.00
H2010  H     0.44902   0.84604   0.99006   0.00000  Uiso   1.00
H2011  H     0.05708   0.90007   0.77167   0.00000  Uiso   1.00
H2012  H     0.05162   0.92389   0.71450   0.00000  Uiso   1.00
H2013  H     0.01657   0.94065   0.75902   0.00000  Uiso   1.00
H2014  H     0.48172   0.88636   0.70917   0.00000  Uiso   1.00
H2015  H     0.49169   0.85856   0.76309   0.00000  Uiso   1.00
H2016  H     0.41544   0.68926   0.70147   0.00000  Uiso   1.00
H2017  H     0.05640   0.81974   0.72390   0.00000  Uiso   1.00
H2018  H     0.04300   0.84684   0.67592   0.00000  Uiso   1.00
H2019  H     0.11568   0.63130   0.93680   0.00000  Uiso   1.00
H2020  H     0.09886   0.60532   0.98925   0.00000  Uiso   1.00
H2021  H     0.08850   0.57645   0.93506   0.00000  Uiso   1.00
H2022  H     0.02657   0.61643   0.96740   0.00000  Uiso   1.00
H2023  H     0.03916   0.63510   0.91219   0.00000  Uiso   1.00
H2024  H     0.07328   0.70872   0.94430   0.00000  Uiso   1.00
H2025  H     0.07237   0.68651   0.99828   0.00000  Uiso   1.00
H2026  H     0.26088   0.81807   0.70510   0.00000  Uiso   1.00
H2027  H     0.39386   0.63338   0.68529   0.00000  Uiso   1.00
H2028  H     0.29717   0.83043   0.75162   0.00000  Uiso   1.00
H2029  H     0.24540   0.81119   0.76364   0.00000  Uiso   1.00
H2030  H     0.25114   0.89343   0.77840   0.00000  Uiso   1.00
H2031  H     0.21684   0.88443   0.73125   0.00000  Uiso   1.00
H2032  H     0.28932   0.89240   0.68585   0.00000  Uiso   1.00
H2033  H     0.30554   0.92448   0.72674   0.00000  Uiso   1.00
H2034  H     0.31028   0.64909   0.90743   0.00000  Uiso   1.00
H2035  H     0.30734   0.67237   0.96487   0.00000  Uiso   1.00
H2036  H     0.35567   0.64961   0.94417   0.00000  Uiso   1.00
H2037  H     0.31895   0.59561   0.99808   0.00000  Uiso   1.00
H2038  H     0.46085   0.63785   0.98418   0.00000  Uiso   1.00
H2039  H     0.32959   0.57011   0.94385   0.00000  Uiso   1.00
H2040  H     0.25532   0.58696   0.91752   0.00000  Uiso   1.00
H2041  H     0.24625   0.61607   0.96695   0.00000  Uiso   1.00
H2042  H     0.19380   0.65281   0.76392   0.00000  Uiso   1.00
H2043  H     0.20602   0.67734   0.70899   0.00000  Uiso   1.00
H2044  H     0.15347   0.66124   0.72147   0.00000  Uiso   1.00
H2045  H     0.18592   0.60301   0.67025   0.00000  Uiso   1.00
H2046  H     0.17233   0.57812   0.72344   0.00000  Uiso   1.00
H2047  H     0.24651   0.58585   0.75143   0.00000  Uiso   1.00
H2048  H     0.26078   0.61444   0.70470   0.00000  Uiso   1.00
H2049  H     0.46428   0.59707   0.69682   0.00000  Uiso   1.00
H2050  H     0.20230   0.85260   0.88943   0.00000  Uiso   1.00
H2051  H     0.23507   0.81860   0.92715   0.00000  Uiso   1.00
H2052  H     0.17989   0.81856   0.93424   0.00000  Uiso   1.00
H2053  H     0.21272   0.86734   0.99302   0.00000  Uiso   1.00
H2054  H     0.18214   0.90312   0.95626   0.00000  Uiso   1.00
H2055  H     0.24939   0.91531   0.91193   0.00000  Uiso   1.00
H2056  H     0.27665   0.89058   0.95240   0.00000  Uiso   1.00
H2057  H     0.38528   0.73422   0.77676   0.00000  Uiso   1.00
H2058  H     0.07659   0.88171   0.94428   0.00000  Uiso   1.00
H2059  H     0.11371   0.77129   0.77080   0.00000  Uiso   1.00
H2060  H     0.02609   0.64205   0.70619   0.00000  Uiso   1.00
H2061  H     0.48127   0.62017   0.86997   0.00000  Uiso   1.00
H2062  H     0.11491   0.73876   0.88397   0.00000  Uiso   1.00
H2063  H     0.41435   0.87317   0.71870   0.00000  Uiso   1.00
H2064  H     0.38528   0.76840   0.89435   0.00000  Uiso   1.00
H2065  H     0.01670   0.61526   0.80570   0.00000  Uiso   1.00
H2066  H     0.15235   0.94342   0.73950   0.00000  Uiso   1.00
H2067  H     0.36492   0.51342   0.88817   0.00000  Uiso   1.00
H2068  H     0.29303   0.67176   0.76511   0.00000  Uiso   1.00
H2069  H     0.11951   0.94024   0.94157   0.00000  Uiso   1.00
H2070  H     0.34506   0.93929   0.92794   0.00000  Uiso   1.00
H2071  H     0.49374   0.66282   0.74760   0.00000  Uiso   1.00
H2072  H     0.13501   0.51629   0.77205   0.00000  Uiso   1.00
H2073  H     0.19250   0.62369   0.92046   0.00000  Uiso   1.00
H2074  H     0.38097   0.93705   0.72631   0.00000  Uiso   1.00
H2075  H     0.43927   0.89672   0.89073   0.00000  Uiso   1.00
H2076  H     0.43882   0.92041   0.94859   0.00000  Uiso   1.00
N2077  N     0.00000   0.75000   0.95069   0.00000  Uiso   1.00
N2078  N     0.00000   0.75000   0.71598   0.00000  Uiso   1.00
N2079  N     0.25000   0.50000   0.95069   0.00000  Uiso   1.00
N2080  N     0.25000   0.50000   0.71598   0.00000  Uiso   1.00
O2081  O     0.04508   0.70491   0.87291   0.00000  Uiso   1.00
O2082  O     0.20491   0.54509   0.79375   0.00000  Uiso   1.00
O2083  O     0.20491   0.54509   0.87291   0.00000  Uiso   1.00
O2084  O     0.29508   0.95491   0.79375   0.00000  Uiso   1.00
O2085  O     0.20491   0.95491   0.79375   0.00000  Uiso   1.00
O2086  O     0.29508   0.54509   0.87291   0.00000  Uiso   1.00
O2087  O     0.29508   0.54509   0.79375   0.00000  Uiso   1.00
O2088  O     0.20491   0.95491   0.87291   0.00000  Uiso   1.00
O2089  O     0.33091   0.73975   0.80634   0.00000  Uiso   1.00
O2090  O     0.09756   0.81737   0.93740   0.00000  Uiso   1.00
O2091  O     0.15792   0.80496   0.73930   0.00000  Uiso   1.00
O2092  O     0.45491   0.79509   0.79375   0.00000  Uiso   1.00
O2093  O     0.45400   0.57921   0.91414   0.00000  Uiso   1.00
O2094  O     0.17006   0.73951   0.85599   0.00000  Uiso   1.00
O2095  O     0.39720   0.80875   0.73129   0.00000  Uiso   1.00
O2096  O     0.33629   0.79863   0.92100   0.00000  Uiso   1.00
O2097  O     0.04098   0.57241   0.76026   0.00000  Uiso   1.00
O2098  O     0.13029   0.88640   0.71070   0.00000  Uiso   1.00
O2099  O     0.42021   0.51120   0.86029   0.00000  Uiso   1.00
O2100  O     0.26307   0.64008   0.81464   0.00000  Uiso   1.00
O2101  O     0.12887   0.98825   0.89517   0.00000  Uiso   1.00
O2102  O     0.36004   0.87960   0.95578   0.00000  Uiso   1.00
O2103  O     0.45491   0.79509   0.87291   0.00000  Uiso   1.00
O2104  O     0.08394   0.50779   0.80765   0.00000  Uiso   1.00
O2105  O     0.22122   0.67369   0.88629   0.00000  Uiso   1.00
O2106  O     0.37383   0.98491   0.77425   0.00000  Uiso   1.00
O2107  O     0.04508   0.70491   0.79375   0.00000  Uiso   1.00
O2108  O     0.45491   0.70491   0.79375   0.00000  Uiso   1.00
O2109  O     0.04508   0.79509   0.87291   0.00000  Uiso   1.00
O2110  O     0.04508   0.79509   0.79375   0.00000  Uiso   1.00
O2111  O     0.45491   0.70491   0.87291   0.00000  Uiso   1.00
O2112  O     0.29508   0.95491   0.87291   0.00000  Uiso   1.00
C2113  C     0.55845   0.69002   0.83324   0.00000  Uiso   1.00
C2114  C     0.99080   0.78956   0.97676   0.00000  Uiso   1.00
C2115  C     0.50111   0.79083   0.69123   0.00000  Uiso   1.00
C2116  C     0.51273   0.71184   0.97613   0.00000  Uiso   1.00
C2117  C     0.75510   0.95866   0.69064   0.00000  Uiso   1.00
C2118  C     0.75209   0.54087   0.97600   0.00000  Uiso   1.00
C2119  C     0.74713   0.54083   0.69146   0.00000  Uiso   1.00
C2120  C     0.75011   0.95844   0.97454   0.00000  Uiso   1.00
C2121  C     0.86862   0.66961   0.81469   0.00000  Uiso   1.00
C2122  C     0.60380   0.86875   0.87547   0.00000  Uiso   1.00
C2123  C     0.62140   0.84459   0.79759   0.00000  Uiso   1.00
C2124  C     0.93820   0.80625   0.83254   0.00000  Uiso   1.00
C2125  C     0.91346   0.61342   0.85500   0.00000  Uiso   1.00
C2126  C     0.63069   0.67031   0.85059   0.00000  Uiso   1.00
C2127  C     0.89367   0.86448   0.79084   0.00000  Uiso   1.00
C2128  C     0.87571   0.84095   0.86799   0.00000  Uiso   1.00
C2129  C     0.58559   0.61183   0.81302   0.00000  Uiso   1.00
C2130  C     0.64132   0.88739   0.79144   0.00000  Uiso   1.00
C2131  C     0.88120   0.58052   0.85388   0.00000  Uiso   1.00
C2132  C     0.83585   0.63765   0.81563   0.00000  Uiso   1.00
C2133  C     0.62728   0.90949   0.87069   0.00000  Uiso   1.00
C2134  C     0.85513   0.88350   0.87449   0.00000  Uiso   1.00
C2135  C     0.94109   0.69039   0.83311   0.00000  Uiso   1.00
C2136  C     0.61871   0.57997   0.81260   0.00000  Uiso   1.00
C2137  C     0.66195   0.63697   0.85443   0.00000  Uiso   1.00
C2138  C     0.87138   0.90594   0.79612   0.00000  Uiso   1.00
C2139  C     0.59733   0.83882   0.83680   0.00000  Uiso   1.00
C2140  C     0.90751   0.65672   0.83311   0.00000  Uiso   1.00
C2141  C     0.90079   0.83579   0.82958   0.00000  Uiso   1.00
C2142  C     0.59193   0.65657   0.83271   0.00000  Uiso   1.00
C2143  C     0.84246   0.59323   0.83487   0.00000  Uiso   1.00
C2144  C     0.65031   0.91523   0.83061   0.00000  Uiso   1.00
C2145  C     0.65685   0.59293   0.83317   0.00000  Uiso   1.00
C2146  C     0.56120   0.80728   0.83420   0.00000  Uiso   1.00
C2147  C     0.84797   0.91236   0.83591   0.00000  Uiso   1.00
C2148  C     0.99714   0.66186   0.71073   0.00000  Uiso   1.00
C2149  C     0.96076   0.63459   0.68865   0.00000  Uiso   1.00
C2150  C     0.91883   0.65102   0.70541   0.00000  Uiso   1.00
C2151  C     0.96398   0.82990   0.96020   0.00000  Uiso   1.00
C2152  C     0.98713   0.86919   0.93583   0.00000  Uiso   1.00
C2153  C     0.95859   0.90832   0.92014   0.00000  Uiso   1.00
C2154  C     0.52831   0.83181   0.70624   0.00000  Uiso   1.00
C2155  C     0.50593   0.87134   0.73161   0.00000  Uiso   1.00
C2156  C     0.53485   0.91131   0.74485   0.00000  Uiso   1.00
C2157  C     0.81140   0.94312   0.83400   0.00000  Uiso   1.00
C2158  C     0.55347   0.68720   0.96603   0.00000  Uiso   1.00
C2159  C     0.54952   0.63648   0.94826   0.00000  Uiso   1.00
C2160  C     0.59075   0.61086   0.95258   0.00000  Uiso   1.00
C2161  C     0.77571   0.91511   0.71165   0.00000  Uiso   1.00
C2162  C     0.74948   0.88319   0.74205   0.00000  Uiso   1.00
C2163  C     0.76423   0.83259   0.74035   0.00000  Uiso   1.00
C2164  C     0.76411   0.58635   0.95365   0.00000  Uiso   1.00
C2165  C     0.81049   0.59684   0.96109   0.00000  Uiso   1.00
C2166  C     0.82158   0.64495   0.94321   0.00000  Uiso   1.00
C2167  C     0.73900   0.58708   0.71532   0.00000  Uiso   1.00
C2168  C     0.69113   0.55986   0.83333   0.00000  Uiso   1.00
C2169  C     0.69389   0.60286   0.70736   0.00000  Uiso   1.00
C2170  C     0.68646   0.65160   0.72671   0.00000  Uiso   1.00
C2171  C     0.74847   0.91156   0.94832   0.00000  Uiso   1.00
C2172  C     0.71044   0.88172   0.95838   0.00000  Uiso   1.00
C2173  C     0.70674   0.84041   0.92513   0.00000  Uiso   1.00
C2174  C     0.86198   0.71768   0.79709   0.00000  Uiso   1.00
C2175  C     0.59049   0.85604   0.92214   0.00000  Uiso   1.00
C2176  C     0.63010   0.80388   0.76700   0.00000  Uiso   1.00
C2177  C     0.95299   0.60377   0.88025   0.00000  Uiso   1.00
C2178  C     0.63818   0.71943   0.86571   0.00000  Uiso   1.00
C2179  C     0.68815   0.94396   0.83257   0.00000  Uiso   1.00
C2180  C     0.90367   0.84882   0.74368   0.00000  Uiso   1.00
C2181  C     0.86665   0.79965   0.89674   0.00000  Uiso   1.00
C2182  C     0.54440   0.59926   0.79276   0.00000  Uiso   1.00
C2183  C     0.64265   0.90788   0.74453   0.00000  Uiso   1.00
C2184  C     0.88837   0.53183   0.86956   0.00000  Uiso   1.00
C2185  C     0.79495   0.65094   0.79588   0.00000  Uiso   1.00
C2186  C     0.62531   0.94753   0.90597   0.00000  Uiso   1.00
C2187  C     0.85184   0.90288   0.92207   0.00000  Uiso   1.00
C2188  C     0.61288   0.53152   0.79513   0.00000  Uiso   1.00
C2189  C     0.69437   0.64418   0.88981   0.00000  Uiso   1.00
C2190  C     0.80913   0.55930   0.83374   0.00000  Uiso   1.00
C2191  C     0.87565   0.94419   0.76216   0.00000  Uiso   1.00
C2192  C     0.50161   0.70955   0.69006   0.00000  Uiso   1.00
Cu2193 Cu    0.50000   0.75000   0.88022   0.00000  Uiso   1.00
Cu2194 Cu    0.50000   0.75000   0.78645   0.00000  Uiso   1.00
Cu2195 Cu    0.75000   0.50000   0.88022   0.00000  Uiso   1.00
Cu2196 Cu    0.75000   0.50000   0.78645   0.00000  Uiso   1.00
H2197  H     0.91543   0.64141   0.74169   0.00000  Uiso   1.00
H2198  H     0.97744   0.93821   0.90866   0.00000  Uiso   1.00
H2199  H     0.50942   0.88574   0.95983   0.00000  Uiso   1.00
H2200  H     0.50386   0.85581   0.90593   0.00000  Uiso   1.00
H2201  H     0.93622   0.81716   0.94213   0.00000  Uiso   1.00
H2202  H     0.94902   0.84604   0.99006   0.00000  Uiso   1.00
H2203  H     0.55708   0.90007   0.77167   0.00000  Uiso   1.00
H2204  H     0.55162   0.92389   0.71450   0.00000  Uiso   1.00
H2205  H     0.51657   0.94065   0.75902   0.00000  Uiso   1.00
H2206  H     0.98172   0.88636   0.70917   0.00000  Uiso   1.00
H2207  H     0.99169   0.85856   0.76309   0.00000  Uiso   1.00
H2208  H     0.91544   0.68926   0.70147   0.00000  Uiso   1.00
H2209  H     0.55640   0.81974   0.72390   0.00000  Uiso   1.00
H2210  H     0.54300   0.84684   0.67592   0.00000  Uiso   1.00
H2211  H     0.61568   0.63130   0.93680   0.00000  Uiso   1.00
H2212  H     0.59886   0.60532   0.98925   0.00000  Uiso   1.00
H2213  H     0.58850   0.57645   0.93506   0.00000  Uiso   1.00
H2214  H     0.52657   0.61643   0.96740   0.00000  Uiso   1.00
H2215  H     0.53916   0.63510   0.91219   0.00000  Uiso   1.00
H2216  H     0.57328   0.70872   0.94430   0.00000  Uiso   1.00
H2217  H     0.57237   0.68651   0.99828   0.00000  Uiso   1.00
H2218  H     0.76088   0.81807   0.70510   0.00000  Uiso   1.00
H2219  H     0.89386   0.63338   0.68529   0.00000  Uiso   1.00
H2220  H     0.79717   0.83043   0.75162   0.00000  Uiso   1.00
H2221  H     0.74540   0.81119   0.76364   0.00000  Uiso   1.00
H2222  H     0.75114   0.89343   0.77840   0.00000  Uiso   1.00
H2223  H     0.71684   0.88443   0.73125   0.00000  Uiso   1.00
H2224  H     0.78932   0.89240   0.68585   0.00000  Uiso   1.00
H2225  H     0.80554   0.92448   0.72674   0.00000  Uiso   1.00
H2226  H     0.81028   0.64909   0.90743   0.00000  Uiso   1.00
H2227  H     0.80734   0.67237   0.96487   0.00000  Uiso   1.00
H2228  H     0.85567   0.64961   0.94417   0.00000  Uiso   1.00
H2229  H     0.81895   0.59561   0.99808   0.00000  Uiso   1.00
H2230  H     0.96085   0.63785   0.98418   0.00000  Uiso   1.00
H2231  H     0.82959   0.57011   0.94385   0.00000  Uiso   1.00
H2232  H     0.75532   0.58696   0.91752   0.00000  Uiso   1.00
H2233  H     0.74625   0.61607   0.96695   0.00000  Uiso   1.00
H2234  H     0.69380   0.65281   0.76392   0.00000  Uiso   1.00
H2235  H     0.70602   0.67734   0.70899   0.00000  Uiso   1.00
H2236  H     0.65347   0.66124   0.72147   0.00000  Uiso   1.00
H2237  H     0.68592   0.60301   0.67025   0.00000  Uiso   1.00
H2238  H     0.67233   0.57812   0.72344   0.00000  Uiso   1.00
H2239  H     0.74651   0.58585   0.75143   0.00000  Uiso   1.00
H2240  H     0.76078   0.61444   0.70470   0.00000  Uiso   1.00
H2241  H     0.96428   0.59707   0.69682   0.00000  Uiso   1.00
H2242  H     0.70230   0.85260   0.88943   0.00000  Uiso   1.00
H2243  H     0.73507   0.81860   0.92715   0.00000  Uiso   1.00
H2244  H     0.67989   0.81856   0.93424   0.00000  Uiso   1.00
H2245  H     0.71272   0.86734   0.99302   0.00000  Uiso   1.00
H2246  H     0.68214   0.90312   0.95626   0.00000  Uiso   1.00
H2247  H     0.74939   0.91531   0.91193   0.00000  Uiso   1.00
H2248  H     0.77665   0.89058   0.95240   0.00000  Uiso   1.00
H2249  H     0.88528   0.73422   0.77676   0.00000  Uiso   1.00
H2250  H     0.57659   0.88171   0.94428   0.00000  Uiso   1.00
H2251  H     0.61371   0.77129   0.77080   0.00000  Uiso   1.00
H2252  H     0.52609   0.64205   0.70619   0.00000  Uiso   1.00
H2253  H     0.98127   0.62017   0.86997   0.00000  Uiso   1.00
H2254  H     0.61491   0.73876   0.88397   0.00000  Uiso   1.00
H2255  H     0.91435   0.87317   0.71870   0.00000  Uiso   1.00
H2256  H     0.88528   0.76840   0.89435   0.00000  Uiso   1.00
H2257  H     0.51670   0.61526   0.80570   0.00000  Uiso   1.00
H2258  H     0.65235   0.94342   0.73950   0.00000  Uiso   1.00
H2259  H     0.86492   0.51342   0.88817   0.00000  Uiso   1.00
H2260  H     0.79303   0.67176   0.76511   0.00000  Uiso   1.00
H2261  H     0.61951   0.94024   0.94157   0.00000  Uiso   1.00
H2262  H     0.84506   0.93929   0.92794   0.00000  Uiso   1.00
H2263  H     0.99374   0.66282   0.74760   0.00000  Uiso   1.00
H2264  H     0.63501   0.51629   0.77205   0.00000  Uiso   1.00
H2265  H     0.69250   0.62369   0.92046   0.00000  Uiso   1.00
H2266  H     0.88097   0.93705   0.72631   0.00000  Uiso   1.00
H2267  H     0.93927   0.89672   0.89073   0.00000  Uiso   1.00
H2268  H     0.93882   0.92041   0.94859   0.00000  Uiso   1.00
N2269  N     0.50000   0.75000   0.95069   0.00000  Uiso   1.00
N2270  N     0.50000   0.75000   0.71598   0.00000  Uiso   1.00
N2271  N     0.75000   0.50000   0.95069   0.00000  Uiso   1.00
N2272  N     0.75000   0.50000   0.71598   0.00000  Uiso   1.00
O2273  O     0.54508   0.70491   0.87291   0.00000  Uiso   1.00
O2274  O     0.70491   0.54509   0.79375   0.00000  Uiso   1.00
O2275  O     0.70491   0.54509   0.87291   0.00000  Uiso   1.00
O2276  O     0.79508   0.95491   0.79375   0.00000  Uiso   1.00
O2277  O     0.70491   0.95491   0.79375   0.00000  Uiso   1.00
O2278  O     0.79508   0.54509   0.87291   0.00000  Uiso   1.00
O2279  O     0.79508   0.54509   0.79375   0.00000  Uiso   1.00
O2280  O     0.70491   0.95491   0.87291   0.00000  Uiso   1.00
O2281  O     0.83091   0.73975   0.80634   0.00000  Uiso   1.00
O2282  O     0.59756   0.81737   0.93740   0.00000  Uiso   1.00
O2283  O     0.65792   0.80496   0.73930   0.00000  Uiso   1.00
O2284  O     0.95491   0.79509   0.79375   0.00000  Uiso   1.00
O2285  O     0.95400   0.57921   0.91414   0.00000  Uiso   1.00
O2286  O     0.67006   0.73951   0.85599   0.00000  Uiso   1.00
O2287  O     0.89720   0.80875   0.73129   0.00000  Uiso   1.00
O2288  O     0.83629   0.79863   0.92100   0.00000  Uiso   1.00
O2289  O     0.54098   0.57241   0.76026   0.00000  Uiso   1.00
O2290  O     0.63029   0.88640   0.71070   0.00000  Uiso   1.00
O2291  O     0.92021   0.51120   0.86029   0.00000  Uiso   1.00
O2292  O     0.76307   0.64008   0.81464   0.00000  Uiso   1.00
O2293  O     0.62887   0.98825   0.89517   0.00000  Uiso   1.00
O2294  O     0.86004   0.87960   0.95578   0.00000  Uiso   1.00
O2295  O     0.95491   0.79509   0.87291   0.00000  Uiso   1.00
O2296  O     0.58394   0.50779   0.80765   0.00000  Uiso   1.00
O2297  O     0.72122   0.67369   0.88629   0.00000  Uiso   1.00
O2298  O     0.87383   0.98491   0.77425   0.00000  Uiso   1.00
O2299  O     0.54508   0.70491   0.79375   0.00000  Uiso   1.00
O2300  O     0.95491   0.70491   0.79375   0.00000  Uiso   1.00
O2301  O     0.54508   0.79509   0.87291   0.00000  Uiso   1.00
O2302  O     0.54508   0.79509   0.79375   0.00000  Uiso   1.00
O2303  O     0.95491   0.70491   0.87291   0.00000  Uiso   1.00
O2304  O     0.79508   0.95491   0.87291   0.00000  Uiso   1.00
loop_
_geom_bond_atom_site_label_1
_geom_bond_atom_site_label_2
_geom_bond_distance
_geom_bond_site_symmetry_2
_ccdc_geom_bond_type
C1     O161    1.312   .     A
C1     O187    1.301   .     A
C1     C30     1.448   .     S
C2     C39     1.525   .     S
C2     C963    1.430   .     S
C2     N349    1.397   .     S
C3     N158    1.385   .     A
C3     C42     1.526   .     S
C3     C1730   1.430   1_454 S
C4     C46     1.528   .     S
C4     N157    1.389   .     A
C4     C848    1.434   .     S
C5     C49     1.545   .     S
C5     C1544   1.450   1_554 S
C5     N544    1.405   .     S
C6     N159    1.382   .     A
C6     C52     1.520   .     S
C6     C775    1.437   .     S
C7     C55     1.519   .     S
C7     N160    1.383   .     A
C7     C1542   1.437   1_554 S
C8     C59     1.544   .     S
C8     C773    1.450   .     S
C8     N543    1.388   .     S
C9     C62     1.493   .     S
C9     C20     1.403   .     A
C9     C28     1.410   .     A
C10    C27     1.425   .     A
C10    C63     1.486   .     S
C10    C21     1.404   .     A
C11    C18     1.403   .     A
C11    C64     1.495   .     S
C11    C27     1.407   .     A
C12    C29     1.480   .     S
C12    O172    1.301   .     A
C12    O183    1.331   .     A
C13    C65     1.492   .     S
C13    C19     1.407   .     A
C13    C28     1.416   .     A
C14    C30     1.405   .     A
C14    C66     1.493   .     S
C14    C25     1.397   .     A
C15    C29     1.422   .     A
C15    C26     1.401   .     A
C15    C68     1.486   .     S
C16    C29     1.402   .     A
C16    C22     1.405   .     A
C16    C69     1.492   .     S
C17    C70     1.491   .     S
C17    C30     1.417   .     A
C17    C24     1.410   .     A
C18    C32     1.415   .     A
C18    C71     1.498   .     S
C19    C31     1.411   .     A
C19    C72     1.493   .     S
C20    C31     1.414   .     A
C20    C73     1.485   .     S
C21    C32     1.409   .     A
C21    C74     1.497   .     S
C22    C35     1.421   .     A
C22    C75     1.497   .     S
C23    O191    1.303   .     A
C23    O188    1.312   .     A
C23    C28     1.454   .     S
C24    C76     1.489   .     S
C24    C33     1.411   .     A
C25    C77     1.472   .     S
C25    C33     1.412   .     A
C26    C79     1.495   .     S
C26    C35     1.409   .     A
C27    C34     1.479   .     S
C31    C78     1.453   .     S
C32    C67     1.476   .     S
C33    C56     1.460   .     S
C34    O190    1.327   .     A
C34    O189    1.304   .     A
C35    C45     1.477   .     S
C36    C37     1.542   .     S
C36    H151    1.084   .     S
C36    C272    1.511   .     S
C36    H332    1.105   .     S
C37    C38     1.523   .     S
C37    H129    1.112   .     S
C37    H1654   1.109   1_554 S
C38    H107    1.110   .     S
C38    H85     1.105   .     S
C38    H96     1.111   .     S
C39    H90     1.103   .     S
C39    C40     1.541   .     S
C39    H89     1.095   .     S
C40    C41     1.524   .     S
C40    H279    1.101   .     S
C40    H280    1.102   .     S
C41    H156    1.110   .     S
C41    H86     1.111   .     S
C41    H155    1.102   .     S
C42    H98     1.103   .     S
C42    H97     1.095   .     S
C42    C43     1.538   .     S
C43    C44     1.523   .     S
C43    H286    1.103   1_455 S
C43    H287    1.102   1_455 S
C44    H93     1.111   .     S
C44    H91     1.104   .     S
C44    H92     1.111   .     S
C45    O164    1.327   .     A
C45    O192    1.303   .     A
C46    H105    1.114   .     S
C46    H104    1.103   .     S
C46    C47     1.547   .     S
C47    H102    1.103   .     S
C47    C48     1.527   .     S
C47    H103    1.100   .     S
C48    H101    1.111   .     S
C48    H99     1.107   .     S
C48    H100    1.111   .     S
C49    H113    1.086   .     S
C49    H112    1.091   .     S
C49    C50     1.546   .     S
C50    H111    1.097   .     S
C50    H110    1.099   .     S
C50    C51     1.531   .     S
C51    H108    1.112   .     S
C51    H109    1.111   .     S
C51    H106    1.111   .     S
C52    H121    1.102   .     S
C52    H120    1.088   .     S
C52    C53     1.541   .     S
C53    C54     1.527   .     S
C53    H117    1.111   .     S
C53    H119    1.108   .     S
C54    H116    1.110   .     S
C54    H115    1.111   .     S
C54    H114    1.109   .     S
C55    H127    1.079   .     S
C55    C57     1.542   .     S
C55    H128    1.106   .     S
C56    O163    1.306   .     A
C56    O162    1.313   .     A
C57    H125    1.110   .     S
C57    H126    1.109   .     S
C57    C58     1.526   .     S
C58    H123    1.111   .     S
C58    H122    1.108   .     S
C58    H124    1.111   .     S
C59    H136    1.098   .     S
C59    H135    1.070   .     S
C59    C60     1.533   .     S
C60    C61     1.529   .     S
C60    H134    1.104   .     S
C60    H133    1.098   .     S
C61    H132    1.109   .     S
C61    H130    1.110   .     S
C61    H131    1.111   .     S
C62    H137    1.080   .     S
C62    O169    1.221   .     D
C63    H138    1.079   .     S
C63    O170    1.221   .     D
C64    O171    1.221   .     D
C64    H139    1.084   .     S
C65    H141    1.078   .     S
C65    O173    1.221   .     D
C66    H142    1.081   .     S
C66    O174    1.220   .     D
C67    O168    1.323   .     A
C67    O165    1.306   .     A
C68    H143    1.077   .     S
C68    O175    1.220   .     D
C69    H144    1.084   .     S
C69    O176    1.221   .     D
C70    H145    1.079   .     S
C70    O177    1.221   .     D
C71    O178    1.221   .     D
C71    H146    1.080   .     S
C72    H147    1.082   .     S
C72    O179    1.221   .     D
C73    O180    1.218   .     D
C73    H148    1.085   .     S
C74    O181    1.221   .     D
C74    H149    1.082   .     S
C75    H150    1.081   .     S
C75    O182    1.221   .     D
C76    H152    1.081   .     S
C76    O184    1.221   .     D
C77    O185    1.220   .     D
C77    H153    1.079   .     S
C78    O166    1.307   .     A
C78    O167    1.307   .     A
C79    O186    1.220   .     D
C79    H154    1.082   .     S
C80    N158    1.382   .     A
C80    C228    1.511   1_455 S
C80    C1540   1.434   1_554 S
Cu81   Cu82    2.738   .     S
Cu81   O189    1.966   .     S
Cu81   O161    1.964   .     S
Cu81   N157    2.058   .     S
Cu81   O375    1.961   1_455 S
Cu81   O383    1.958   1_455 S
Cu82   N158    2.058   .     S
Cu82   O190    1.958   .     S
Cu82   O187    1.961   .     S
Cu82   O364    1.964   1_455 S
Cu82   O380    1.966   1_455 S
Cu83   Cu84    2.738   .     S
Cu83   O166    1.966   .     S
Cu83   O163    1.961   .     S
Cu83   N159    2.058   .     S
Cu83   O552    1.958   1_545 S
Cu83   O576    1.964   1_545 S
Cu84   N160    2.058   .     S
Cu84   O162    1.964   .     S
Cu84   O167    1.958   .     S
Cu84   O548    1.961   1_545 S
Cu84   O549    1.966   1_545 S
H87    C232    1.101   1_455 S
H88    C232    1.102   1_455 S
H94    C235    1.103   .     S
H95    C235    1.102   .     S
H118   C805    1.109   .     S
H140   C228    1.105   1_455 S
N157   C194    1.397   1_455 S
N159   C392    1.388   1_545 S
N160   C389    1.405   1_545 S
O164   Cu468   1.961   .     S
O165   Cu468   1.966   .     S
O168   Cu467   1.958   .     S
O172   Cu274   1.964   .     S
O183   Cu273   1.961   .     S
O188   Cu274   1.966   .     S
O191   Cu273   1.958   .     S
O192   Cu467   1.964   .     S
C193   O353    1.312   .     A
C193   O379    1.301   .     A
C193   C222    1.448   .     S
C194   C231    1.525   .     S
C194   C771    1.430   1_655 S
C194   N157    1.397   1_655 S
C195   N350    1.385   .     A
C195   C234    1.526   .     S
C195   C1538   1.430   1_554 S
C196   C238    1.528   .     S
C196   N349    1.389   .     A
C196   C1040   1.434   .     S
C197   C241    1.545   .     S
C197   C1736   1.450   1_554 S
C197   N736    1.405   .     S
C198   N351    1.382   .     A
C198   C244    1.520   .     S
C198   C967    1.437   .     S
C199   C247    1.519   .     S
C199   N352    1.383   .     A
C199   C1734   1.437   1_554 S
C200   C251    1.544   .     S
C200   C965    1.450   .     S
C200   N735    1.388   .     S
C201   C254    1.493   .     S
C201   C212    1.403   .     A
C201   C220    1.410   .     A
C202   C219    1.425   .     A
C202   C255    1.486   .     S
C202   C213    1.404   .     A
C203   C210    1.403   .     A
C203   C256    1.495   .     S
C203   C219    1.407   .     A
C204   C221    1.480   .     S
C204   O364    1.301   .     A
C204   O375    1.331   .     A
C205   C257    1.492   .     S
C205   C211    1.407   .     A
C205   C220    1.416   .     A
C206   C222    1.405   .     A
C206   C258    1.493   .     S
C206   C217    1.397   .     A
C207   C221    1.422   .     A
C207   C218    1.401   .     A
C207   C260    1.486   .     S
C208   C221    1.402   .     A
C208   C214    1.405   .     A
C208   C261    1.492   .     S
C209   C262    1.491   .     S
C209   C222    1.417   .     A
C209   C216    1.410   .     A
C210   C224    1.415   .     A
C210   C263    1.498   .     S
C211   C223    1.411   .     A
C211   C264    1.493   .     S
C212   C223    1.414   .     A
C212   C265    1.485   .     S
C213   C224    1.409   .     A
C213   C266    1.497   .     S
C214   C227    1.421   .     A
C214   C267    1.497   .     S
C215   O383    1.303   .     A
C215   O380    1.312   .     A
C215   C220    1.454   .     S
C216   C268    1.489   .     S
C216   C225    1.411   .     A
C217   C269    1.472   .     S
C217   C225    1.412   .     A
C218   C271    1.495   .     S
C218   C227    1.409   .     A
C219   C226    1.479   .     S
C223   C270    1.453   .     S
C224   C259    1.476   .     S
C225   C248    1.460   .     S
C226   O382    1.327   .     A
C226   O381    1.304   .     A
C227   C237    1.477   .     S
C228   C229    1.542   .     S
C228   H343    1.084   .     S
C228   C80     1.511   1_655 S
C228   H140    1.105   1_655 S
C229   C230    1.523   .     S
C229   H321    1.112   .     S
C229   H1846   1.109   1_554 S
C230   H299    1.110   .     S
C230   H277    1.105   .     S
C230   H288    1.111   .     S
C231   H282    1.103   .     S
C231   C232    1.541   .     S
C231   H281    1.095   .     S
C232   C233    1.524   .     S
C232   H87     1.101   1_655 S
C232   H88     1.102   1_655 S
C233   H348    1.110   .     S
C233   H278    1.111   .     S
C233   H347    1.102   .     S
C234   H290    1.103   .     S
C234   H289    1.095   .     S
C234   C235    1.538   .     S
C235   C236    1.523   .     S
C236   H285    1.111   .     S
C236   H283    1.104   .     S
C236   H284    1.111   .     S
C237   O356    1.327   .     A
C237   O384    1.303   .     A
C238   H297    1.114   .     S
C238   H296    1.103   .     S
C238   C239    1.547   .     S
C239   H294    1.103   .     S
C239   C240    1.527   .     S
C239   H295    1.100   .     S
C240   H293    1.111   .     S
C240   H291    1.107   .     S
C240   H292    1.111   .     S
C241   H305    1.086   .     S
C241   H304    1.091   .     S
C241   C242    1.546   .     S
C242   H303    1.097   .     S
C242   H302    1.099   .     S
C242   C243    1.531   .     S
C243   H300    1.112   .     S
C243   H301    1.111   .     S
C243   H298    1.111   .     S
C244   H313    1.102   .     S
C244   H312    1.088   .     S
C244   C245    1.541   .     S
C245   C246    1.527   .     S
C245   H309    1.111   .     S
C245   H311    1.108   .     S
C246   H308    1.110   .     S
C246   H307    1.111   .     S
C246   H306    1.109   .     S
C247   H319    1.079   .     S
C247   C249    1.542   .     S
C247   H320    1.106   .     S
C248   O355    1.306   .     A
C248   O354    1.313   .     A
C249   H317    1.110   .     S
C249   H318    1.109   .     S
C249   C250    1.526   .     S
C250   H315    1.111   .     S
C250   H314    1.108   .     S
C250   H316    1.111   .     S
C251   H328    1.098   .     S
C251   H327    1.070   .     S
C251   C252    1.533   .     S
C252   C253    1.529   .     S
C252   H326    1.104   .     S
C252   H325    1.098   .     S
C253   H324    1.109   .     S
C253   H322    1.110   .     S
C253   H323    1.111   .     S
C254   H329    1.080   .     S
C254   O361    1.221   .     D
C255   H330    1.079   .     S
C255   O362    1.221   .     D
C256   O363    1.221   .     D
C256   H331    1.084   .     S
C257   H333    1.078   .     S
C257   O365    1.221   .     D
C258   H334    1.081   .     S
C258   O366    1.220   .     D
C259   O360    1.323   .     A
C259   O357    1.306   .     A
C260   H335    1.077   .     S
C260   O367    1.220   .     D
C261   H336    1.084   .     S
C261   O368    1.221   .     D
C262   H337    1.079   .     S
C262   O369    1.221   .     D
C263   O370    1.221   .     D
C263   H338    1.080   .     S
C264   H339    1.082   .     S
C264   O371    1.221   .     D
C265   O372    1.218   .     D
C265   H340    1.085   .     S
C266   O373    1.221   .     D
C266   H341    1.082   .     S
C267   H342    1.081   .     S
C267   O374    1.221   .     D
C268   H344    1.081   .     S
C268   O376    1.221   .     D
C269   O377    1.220   .     D
C269   H345    1.079   .     S
C270   O358    1.307   .     A
C270   O359    1.307   .     A
C271   O378    1.220   .     D
C271   H346    1.082   .     S
C272   N350    1.382   .     A
C272   C1732   1.434   1_554 S
Cu273  Cu274   2.738   .     S
Cu273  O381    1.966   .     S
Cu273  O353    1.964   .     S
Cu273  N349    2.058   .     S
Cu274  N350    2.058   .     S
Cu274  O382    1.958   .     S
Cu274  O379    1.961   .     S
Cu275  Cu276   2.738   .     S
Cu275  O358    1.966   .     S
Cu275  O355    1.961   .     S
Cu275  N351    2.058   .     S
Cu275  O744    1.958   1_545 S
Cu275  O768    1.964   1_545 S
Cu276  N352    2.058   .     S
Cu276  O354    1.964   .     S
Cu276  O359    1.958   .     S
Cu276  O740    1.961   1_545 S
Cu276  O741    1.966   1_545 S
H286   C43     1.103   1_655 S
H287   C43     1.102   1_655 S
H310   C997    1.109   .     S
N351   C584    1.388   1_545 S
N352   C581    1.405   1_545 S
O356   Cu660   1.961   .     S
O357   Cu660   1.966   .     S
O360   Cu659   1.958   .     S
O364   Cu82    1.964   1_655 S
O375   Cu81    1.961   1_655 S
O380   Cu82    1.966   1_655 S
O383   Cu81    1.958   1_655 S
O384   Cu659   1.964   .     S
C385   O545    1.312   .     A
C385   O571    1.301   .     A
C385   C414    1.448   .     S
C386   C423    1.525   .     S
C386   C1347   1.430   .     S
C386   N733    1.397   .     S
C387   N542    1.385   .     A
C387   C426    1.526   .     S
C387   C2114   1.430   1_454 S
C388   C430    1.528   .     S
C388   N541    1.389   .     A
C388   C1232   1.434   .     S
C389   C433    1.545   .     S
C389   C1928   1.450   1_554 S
C389   N160    1.405   1_565 S
C390   N543    1.382   .     A
C390   C436    1.520   .     S
C390   C1159   1.437   .     S
C391   C439    1.519   .     S
C391   N544    1.383   .     A
C391   C1926   1.437   1_554 S
C392   C443    1.544   .     S
C392   C1157   1.450   .     S
C392   N159    1.388   1_565 S
C393   C446    1.493   .     S
C393   C404    1.403   .     A
C393   C412    1.410   .     A
C394   C411    1.425   .     A
C394   C447    1.486   .     S
C394   C405    1.404   .     A
C395   C402    1.403   .     A
C395   C448    1.495   .     S
C395   C411    1.407   .     A
C396   C413    1.480   .     S
C396   O556    1.301   .     A
C396   O567    1.331   .     A
C397   C449    1.492   .     S
C397   C403    1.407   .     A
C397   C412    1.416   .     A
C398   C414    1.405   .     A
C398   C450    1.493   .     S
C398   C409    1.397   .     A
C399   C413    1.422   .     A
C399   C410    1.401   .     A
C399   C452    1.486   .     S
C400   C413    1.402   .     A
C400   C406    1.405   .     A
C400   C453    1.492   .     S
C401   C454    1.491   .     S
C401   C414    1.417   .     A
C401   C408    1.410   .     A
C402   C416    1.415   .     A
C402   C455    1.498   .     S
C403   C415    1.411   .     A
C403   C456    1.493   .     S
C404   C415    1.414   .     A
C404   C457    1.485   .     S
C405   C416    1.409   .     A
C405   C458    1.497   .     S
C406   C419    1.421   .     A
C406   C459    1.497   .     S
C407   O575    1.303   .     A
C407   O572    1.312   .     A
C407   C412    1.454   .     S
C408   C460    1.489   .     S
C408   C417    1.411   .     A
C409   C461    1.472   .     S
C409   C417    1.412   .     A
C410   C463    1.495   .     S
C410   C419    1.409   .     A
C411   C418    1.479   .     S
C415   C462    1.453   .     S
C416   C451    1.476   .     S
C417   C440    1.460   .     S
C418   O574    1.327   .     A
C418   O573    1.304   .     A
C419   C429    1.477   .     S
C420   C421    1.542   .     S
C420   H535    1.084   .     S
C420   C656    1.511   .     S
C420   H716    1.105   .     S
C421   C422    1.523   .     S
C421   H513    1.112   .     S
C421   H2038   1.109   1_554 S
C422   H491    1.110   .     S
C422   H469    1.105   .     S
C422   H480    1.111   .     S
C423   H474    1.103   .     S
C423   C424    1.541   .     S
C423   H473    1.095   .     S
C424   C425    1.524   .     S
C424   H663    1.101   .     S
C424   H664    1.102   .     S
C425   H540    1.110   .     S
C425   H470    1.111   .     S
C425   H539    1.102   .     S
C426   H482    1.103   .     S
C426   H481    1.095   .     S
C426   C427    1.538   .     S
C427   C428    1.523   .     S
C427   H670    1.103   1_455 S
C427   H671    1.102   1_455 S
C428   H477    1.111   .     S
C428   H475    1.104   .     S
C428   H476    1.111   .     S
C429   O548    1.327   .     A
C429   O576    1.303   .     A
C430   H489    1.114   .     S
C430   H488    1.103   .     S
C430   C431    1.547   .     S
C431   H486    1.103   .     S
C431   C432    1.527   .     S
C431   H487    1.100   .     S
C432   H485    1.111   .     S
C432   H483    1.107   .     S
C432   H484    1.111   .     S
C433   H497    1.086   .     S
C433   H496    1.091   .     S
C433   C434    1.546   .     S
C434   H495    1.097   .     S
C434   H494    1.099   .     S
C434   C435    1.531   .     S
C435   H492    1.112   .     S
C435   H493    1.111   .     S
C435   H490    1.111   .     S
C436   H505    1.102   .     S
C436   H504    1.088   .     S
C436   C437    1.541   .     S
C437   C438    1.527   .     S
C437   H501    1.111   .     S
C437   H503    1.108   .     S
C438   H500    1.110   .     S
C438   H499    1.111   .     S
C438   H498    1.109   .     S
C439   H511    1.079   .     S
C439   C441    1.542   .     S
C439   H512    1.106   .     S
C440   O547    1.306   .     A
C440   O546    1.313   .     A
C441   H509    1.110   .     S
C441   H510    1.109   .     S
C441   C442    1.526   .     S
C442   H507    1.111   .     S
C442   H506    1.108   .     S
C442   H508    1.111   .     S
C443   H520    1.098   .     S
C443   H519    1.070   .     S
C443   C444    1.533   .     S
C444   C445    1.529   .     S
C444   H518    1.104   .     S
C444   H517    1.098   .     S
C445   H516    1.109   .     S
C445   H514    1.110   .     S
C445   H515    1.111   .     S
C446   H521    1.080   .     S
C446   O553    1.221   .     D
C447   H522    1.079   .     S
C447   O554    1.221   .     D
C448   O555    1.221   .     D
C448   H523    1.084   .     S
C449   H525    1.078   .     S
C449   O557    1.221   .     D
C450   H526    1.081   .     S
C450   O558    1.220   .     D
C451   O552    1.323   .     A
C451   O549    1.306   .     A
C452   H527    1.077   .     S
C452   O559    1.220   .     D
C453   H528    1.084   .     S
C453   O560    1.221   .     D
C454   H529    1.079   .     S
C454   O561    1.221   .     D
C455   O562    1.221   .     D
C455   H530    1.080   .     S
C456   H531    1.082   .     S
C456   O563    1.221   .     D
C457   O564    1.218   .     D
C457   H532    1.085   .     S
C458   O565    1.221   .     D
C458   H533    1.082   .     S
C459   H534    1.081   .     S
C459   O566    1.221   .     D
C460   H536    1.081   .     S
C460   O568    1.221   .     D
C461   O569    1.220   .     D
C461   H537    1.079   .     S
C462   O550    1.307   .     A
C462   O551    1.307   .     A
C463   O570    1.220   .     D
C463   H538    1.082   .     S
C464   N542    1.382   .     A
C464   C612    1.511   1_455 S
C464   C1924   1.434   1_554 S
Cu465  Cu466   2.738   .     S
Cu465  O573    1.966   .     S
Cu465  O545    1.964   .     S
Cu465  N541    2.058   .     S
Cu465  O759    1.961   1_455 S
Cu465  O767    1.958   1_455 S
Cu466  N542    2.058   .     S
Cu466  O574    1.958   .     S
Cu466  O571    1.961   .     S
Cu466  O748    1.964   1_455 S
Cu466  O764    1.966   1_455 S
Cu467  Cu468   2.738   .     S
Cu467  O550    1.966   .     S
Cu467  O547    1.961   .     S
Cu467  N543    2.058   .     S
Cu468  N544    2.058   .     S
Cu468  O546    1.964   .     S
Cu468  O551    1.958   .     S
H471   C616    1.101   1_455 S
H472   C616    1.102   1_455 S
H478   C619    1.103   .     S
H479   C619    1.102   .     S
H502   C1189   1.109   .     S
H524   C612    1.105   1_455 S
N541   C578    1.397   1_455 S
O548   Cu84    1.961   1_565 S
O549   Cu84    1.966   1_565 S
O552   Cu83    1.958   1_565 S
O556   Cu658   1.964   .     S
O567   Cu657   1.961   .     S
O572   Cu658   1.966   .     S
O575   Cu657   1.958   .     S
O576   Cu83    1.964   1_565 S
C577   O737    1.312   .     A
C577   O763    1.301   .     A
C577   C606    1.448   .     S
C578   C615    1.525   .     S
C578   C1155   1.430   1_655 S
C578   N541    1.397   1_655 S
C579   N734    1.385   .     A
C579   C618    1.526   .     S
C579   C1922   1.430   1_554 S
C580   C622    1.528   .     S
C580   N733    1.389   .     A
C580   C1424   1.434   .     S
C581   C625    1.545   .     S
C581   C2120   1.450   1_554 S
C581   N352    1.405   1_565 S
C582   N735    1.382   .     A
C582   C628    1.520   .     S
C582   C1351   1.437   .     S
C583   C631    1.519   .     S
C583   N736    1.383   .     A
C583   C2118   1.437   1_554 S
C584   C635    1.544   .     S
C584   C1349   1.450   .     S
C584   N351    1.388   1_565 S
C585   C638    1.493   .     S
C585   C596    1.403   .     A
C585   C604    1.410   .     A
C586   C603    1.425   .     A
C586   C639    1.486   .     S
C586   C597    1.404   .     A
C587   C594    1.403   .     A
C587   C640    1.495   .     S
C587   C603    1.407   .     A
C588   C605    1.480   .     S
C588   O748    1.301   .     A
C588   O759    1.331   .     A
C589   C641    1.492   .     S
C589   C595    1.407   .     A
C589   C604    1.416   .     A
C590   C606    1.405   .     A
C590   C642    1.493   .     S
C590   C601    1.397   .     A
C591   C605    1.422   .     A
C591   C602    1.401   .     A
C591   C644    1.486   .     S
C592   C605    1.402   .     A
C592   C598    1.405   .     A
C592   C645    1.492   .     S
C593   C646    1.491   .     S
C593   C606    1.417   .     A
C593   C600    1.410   .     A
C594   C608    1.415   .     A
C594   C647    1.498   .     S
C595   C607    1.411   .     A
C595   C648    1.493   .     S
C596   C607    1.414   .     A
C596   C649    1.485   .     S
C597   C608    1.409   .     A
C597   C650    1.497   .     S
C598   C611    1.421   .     A
C598   C651    1.497   .     S
C599   O767    1.303   .     A
C599   O764    1.312   .     A
C599   C604    1.454   .     S
C600   C652    1.489   .     S
C600   C609    1.411   .     A
C601   C653    1.472   .     S
C601   C609    1.412   .     A
C602   C655    1.495   .     S
C602   C611    1.409   .     A
C603   C610    1.479   .     S
C607   C654    1.453   .     S
C608   C643    1.476   .     S
C609   C632    1.460   .     S
C610   O766    1.327   .     A
C610   O765    1.304   .     A
C611   C621    1.477   .     S
C612   C613    1.542   .     S
C612   H727    1.084   .     S
C612   C464    1.511   1_655 S
C612   H524    1.105   1_655 S
C613   C614    1.523   .     S
C613   H705    1.112   .     S
C613   H2230   1.109   1_554 S
C614   H683    1.110   .     S
C614   H661    1.105   .     S
C614   H672    1.111   .     S
C615   H666    1.103   .     S
C615   C616    1.541   .     S
C615   H665    1.095   .     S
C616   C617    1.524   .     S
C616   H471    1.101   1_655 S
C616   H472    1.102   1_655 S
C617   H732    1.110   .     S
C617   H662    1.111   .     S
C617   H731    1.102   .     S
C618   H674    1.103   .     S
C618   H673    1.095   .     S
C618   C619    1.538   .     S
C619   C620    1.523   .     S
C620   H669    1.111   .     S
C620   H667    1.104   .     S
C620   H668    1.111   .     S
C621   O740    1.327   .     A
C621   O768    1.303   .     A
C622   H681    1.114   .     S
C622   H680    1.103   .     S
C622   C623    1.547   .     S
C623   H678    1.103   .     S
C623   C624    1.527   .     S
C623   H679    1.100   .     S
C624   H677    1.111   .     S
C624   H675    1.107   .     S
C624   H676    1.111   .     S
C625   H689    1.086   .     S
C625   H688    1.091   .     S
C625   C626    1.546   .     S
C626   H687    1.097   .     S
C626   H686    1.099   .     S
C626   C627    1.531   .     S
C627   H684    1.112   .     S
C627   H685    1.111   .     S
C627   H682    1.111   .     S
C628   H697    1.102   .     S
C628   H696    1.088   .     S
C628   C629    1.541   .     S
C629   C630    1.527   .     S
C629   H693    1.111   .     S
C629   H695    1.108   .     S
C630   H692    1.110   .     S
C630   H691    1.111   .     S
C630   H690    1.109   .     S
C631   H703    1.079   .     S
C631   C633    1.542   .     S
C631   H704    1.106   .     S
C632   O739    1.306   .     A
C632   O738    1.313   .     A
C633   H701    1.110   .     S
C633   H702    1.109   .     S
C633   C634    1.526   .     S
C634   H699    1.111   .     S
C634   H698    1.108   .     S
C634   H700    1.111   .     S
C635   H712    1.098   .     S
C635   H711    1.070   .     S
C635   C636    1.533   .     S
C636   C637    1.529   .     S
C636   H710    1.104   .     S
C636   H709    1.098   .     S
C637   H708    1.109   .     S
C637   H706    1.110   .     S
C637   H707    1.111   .     S
C638   H713    1.080   .     S
C638   O745    1.221   .     D
C639   H714    1.079   .     S
C639   O746    1.221   .     D
C640   O747    1.221   .     D
C640   H715    1.084   .     S
C641   H717    1.078   .     S
C641   O749    1.221   .     D
C642   H718    1.081   .     S
C642   O750    1.220   .     D
C643   O744    1.323   .     A
C643   O741    1.306   .     A
C644   H719    1.077   .     S
C644   O751    1.220   .     D
C645   H720    1.084   .     S
C645   O752    1.221   .     D
C646   H721    1.079   .     S
C646   O753    1.221   .     D
C647   O754    1.221   .     D
C647   H722    1.080   .     S
C648   H723    1.082   .     S
C648   O755    1.221   .     D
C649   O756    1.218   .     D
C649   H724    1.085   .     S
C650   O757    1.221   .     D
C650   H725    1.082   .     S
C651   H726    1.081   .     S
C651   O758    1.221   .     D
C652   H728    1.081   .     S
C652   O760    1.221   .     D
C653   O761    1.220   .     D
C653   H729    1.079   .     S
C654   O742    1.307   .     A
C654   O743    1.307   .     A
C655   O762    1.220   .     D
C655   H730    1.082   .     S
C656   N734    1.382   .     A
C656   C2116   1.434   1_554 S
Cu657  Cu658   2.738   .     S
Cu657  O765    1.966   .     S
Cu657  O737    1.964   .     S
Cu657  N733    2.058   .     S
Cu658  N734    2.058   .     S
Cu658  O766    1.958   .     S
Cu658  O763    1.961   .     S
Cu659  Cu660   2.738   .     S
Cu659  O742    1.966   .     S
Cu659  O739    1.961   .     S
Cu659  N735    2.058   .     S
Cu660  N736    2.058   .     S
Cu660  O738    1.964   .     S
Cu660  O743    1.958   .     S
H670   C427    1.103   1_655 S
H671   C427    1.102   1_655 S
H694   C1381   1.109   .     S
O740   Cu276   1.961   1_565 S
O741   Cu276   1.966   1_565 S
O744   Cu275   1.958   1_565 S
O748   Cu466   1.964   1_655 S
O759   Cu465   1.961   1_655 S
O764   Cu466   1.966   1_655 S
O767   Cu465   1.958   1_655 S
O768   Cu275   1.964   1_565 S
C769   O929    1.312   .     A
C769   O955    1.301   .     A
C769   C798    1.448   .     S
C770   C807    1.525   .     S
C770   C1731   1.430   .     S
C770   N1117   1.397   .     S
C771   N926    1.385   .     A
C771   C810    1.526   .     S
C771   C194    1.430   1_455 S
C772   C814    1.528   .     S
C772   N925    1.389   .     A
C772   C1616   1.434   .     S
C773   C817    1.545   .     S
C773   N1312   1.405   .     S
C774   N927    1.382   .     A
C774   C820    1.520   .     S
C774   C1543   1.437   .     S
C775   C823    1.519   .     S
C775   N928    1.383   .     A
C776   C827    1.544   .     S
C776   C1541   1.450   .     S
C776   N1311   1.388   .     S
C777   C830    1.493   .     S
C777   C788    1.403   .     A
C777   C796    1.410   .     A
C778   C795    1.425   .     A
C778   C831    1.486   .     S
C778   C789    1.404   .     A
C779   C786    1.403   .     A
C779   C832    1.495   .     S
C779   C795    1.407   .     A
C780   C797    1.480   .     S
C780   O940    1.301   .     A
C780   O951    1.331   .     A
C781   C833    1.492   .     S
C781   C787    1.407   .     A
C781   C796    1.416   .     A
C782   C798    1.405   .     A
C782   C834    1.493   .     S
C782   C793    1.397   .     A
C783   C797    1.422   .     A
C783   C794    1.401   .     A
C783   C836    1.486   .     S
C784   C797    1.402   .     A
C784   C790    1.405   .     A
C784   C837    1.492   .     S
C785   C838    1.491   .     S
C785   C798    1.417   .     A
C785   C792    1.410   .     A
C786   C800    1.415   .     A
C786   C839    1.498   .     S
C787   C799    1.411   .     A
C787   C840    1.493   .     S
C788   C799    1.414   .     A
C788   C841    1.485   .     S
C789   C800    1.409   .     A
C789   C842    1.497   .     S
C790   C803    1.421   .     A
C790   C843    1.497   .     S
C791   O959    1.303   .     A
C791   O956    1.312   .     A
C791   C796    1.454   .     S
C792   C844    1.489   .     S
C792   C801    1.411   .     A
C793   C845    1.472   .     S
C793   C801    1.412   .     A
C794   C847    1.495   .     S
C794   C803    1.409   .     A
C795   C802    1.479   .     S
C799   C846    1.453   .     S
C800   C835    1.476   .     S
C801   C824    1.460   .     S
C802   O958    1.327   .     A
C802   O957    1.304   .     A
C803   C813    1.477   .     S
C804   C805    1.542   .     S
C804   H919    1.084   .     S
C804   C1040   1.511   .     S
C804   H1100   1.105   .     S
C805   C806    1.523   .     S
C805   H897    1.112   .     S
C806   H875    1.110   .     S
C806   H853    1.105   .     S
C806   H864    1.111   .     S
C807   H858    1.103   .     S
C807   C808    1.541   .     S
C807   H857    1.095   .     S
C808   C809    1.524   .     S
C808   H1047   1.101   .     S
C808   H1048   1.102   .     S
C809   H924    1.110   .     S
C809   H854    1.111   .     S
C809   H923    1.102   .     S
C810   H866    1.103   .     S
C810   H865    1.095   .     S
C810   C811    1.538   .     S
C811   C812    1.523   .     S
C811   H1054   1.103   1_455 S
C811   H1055   1.102   1_455 S
C812   H861    1.111   .     S
C812   H859    1.104   .     S
C812   H860    1.111   .     S
C813   O932    1.327   .     A
C813   O960    1.303   .     A
C814   H873    1.114   .     S
C814   H872    1.103   .     S
C814   C815    1.547   .     S
C815   H870    1.103   .     S
C815   C816    1.527   .     S
C815   H871    1.100   .     S
C816   H869    1.111   .     S
C816   H867    1.107   .     S
C816   H868    1.111   .     S
C817   H881    1.086   .     S
C817   H880    1.091   .     S
C817   C818    1.546   .     S
C818   H879    1.097   .     S
C818   H878    1.099   .     S
C818   C819    1.531   .     S
C819   H876    1.112   .     S
C819   H877    1.111   .     S
C819   H874    1.111   .     S
C820   H889    1.102   .     S
C820   H888    1.088   .     S
C820   C821    1.541   .     S
C821   C822    1.527   .     S
C821   H885    1.111   .     S
C821   H887    1.108   .     S
C822   H884    1.110   .     S
C822   H883    1.111   .     S
C822   H882    1.109   .     S
C823   H895    1.079   .     S
C823   C825    1.542   .     S
C823   H896    1.106   .     S
C824   O931    1.306   .     A
C824   O930    1.313   .     A
C825   H893    1.110   .     S
C825   H894    1.109   .     S
C825   C826    1.526   .     S
C826   H891    1.111   .     S
C826   H890    1.108   .     S
C826   H892    1.111   .     S
C827   H904    1.098   .     S
C827   H903    1.070   .     S
C827   C828    1.533   .     S
C828   C829    1.529   .     S
C828   H902    1.104   .     S
C828   H901    1.098   .     S
C829   H900    1.109   .     S
C829   H898    1.110   .     S
C829   H899    1.111   .     S
C830   H905    1.080   .     S
C830   O937    1.221   .     D
C831   H906    1.079   .     S
C831   O938    1.221   .     D
C832   O939    1.221   .     D
C832   H907    1.084   .     S
C833   H909    1.078   .     S
C833   O941    1.221   .     D
C834   H910    1.081   .     S
C834   O942    1.220   .     D
C835   O936    1.323   .     A
C835   O933    1.306   .     A
C836   H911    1.077   .     S
C836   O943    1.220   .     D
C837   H912    1.084   .     S
C837   O944    1.221   .     D
C838   H913    1.079   .     S
C838   O945    1.221   .     D
C839   O946    1.221   .     D
C839   H914    1.080   .     S
C840   H915    1.082   .     S
C840   O947    1.221   .     D
C841   O948    1.218   .     D
C841   H916    1.085   .     S
C842   O949    1.221   .     D
C842   H917    1.082   .     S
C843   H918    1.081   .     S
C843   O950    1.221   .     D
C844   H920    1.081   .     S
C844   O952    1.221   .     D
C845   O953    1.220   .     D
C845   H921    1.079   .     S
C846   O934    1.307   .     A
C846   O935    1.307   .     A
C847   O954    1.220   .     D
C847   H922    1.082   .     S
C848   N926    1.382   .     A
C848   C996    1.511   1_455 S
Cu849  Cu850   2.738   .     S
Cu849  O957    1.966   .     S
Cu849  O929    1.964   .     S
Cu849  N925    2.058   .     S
Cu849  O1143   1.961   1_455 S
Cu849  O1151   1.958   1_455 S
Cu850  N926    2.058   .     S
Cu850  O958    1.958   .     S
Cu850  O955    1.961   .     S
Cu850  O1132   1.964   1_455 S
Cu850  O1148   1.966   1_455 S
Cu851  Cu852   2.738   .     S
Cu851  O934    1.966   .     S
Cu851  O931    1.961   .     S
Cu851  N927    2.058   .     S
Cu851  O1320   1.958   1_545 S
Cu851  O1344   1.964   1_545 S
Cu852  N928    2.058   .     S
Cu852  O930    1.964   .     S
Cu852  O935    1.958   .     S
Cu852  O1316   1.961   1_545 S
Cu852  O1317   1.966   1_545 S
H855   C1000   1.101   1_455 S
H856   C1000   1.102   1_455 S
H862   C1003   1.103   .     S
H863   C1003   1.102   .     S
H886   C1573   1.109   .     S
H908   C996    1.105   1_455 S
N925   C962    1.397   1_455 S
N927   C1160   1.388   1_545 S
N928   C1157   1.405   1_545 S
O932   Cu1236  1.961   .     S
O933   Cu1236  1.966   .     S
O936   Cu1235  1.958   .     S
O940   Cu1042  1.964   .     S
O951   Cu1041  1.961   .     S
O956   Cu1042  1.966   .     S
O959   Cu1041  1.958   .     S
O960   Cu1235  1.964   .     S
C961   O1121   1.312   .     A
C961   O1147   1.301   .     A
C961   C990    1.448   .     S
C962   C999    1.525   .     S
C962   C1539   1.430   1_655 S
C962   N925    1.397   1_655 S
C963   N1118   1.385   .     A
C963   C1002   1.526   .     S
C964   C1006   1.528   .     S
C964   N1117   1.389   .     A
C964   C1808   1.434   .     S
C965   C1009   1.545   .     S
C965   N1504   1.405   .     S
C966   N1119   1.382   .     A
C966   C1012   1.520   .     S
C966   C1735   1.437   .     S
C967   C1015   1.519   .     S
C967   N1120   1.383   .     A
C968   C1019   1.544   .     S
C968   C1733   1.450   .     S
C968   N1503   1.388   .     S
C969   C1022   1.493   .     S
C969   C980    1.403   .     A
C969   C988    1.410   .     A
C970   C987    1.425   .     A
C970   C1023   1.486   .     S
C970   C981    1.404   .     A
C971   C978    1.403   .     A
C971   C1024   1.495   .     S
C971   C987    1.407   .     A
C972   C989    1.480   .     S
C972   O1132   1.301   .     A
C972   O1143   1.331   .     A
C973   C1025   1.492   .     S
C973   C979    1.407   .     A
C973   C988    1.416   .     A
C974   C990    1.405   .     A
C974   C1026   1.493   .     S
C974   C985    1.397   .     A
C975   C989    1.422   .     A
C975   C986    1.401   .     A
C975   C1028   1.486   .     S
C976   C989    1.402   .     A
C976   C982    1.405   .     A
C976   C1029   1.492   .     S
C977   C1030   1.491   .     S
C977   C990    1.417   .     A
C977   C984    1.410   .     A
C978   C992    1.415   .     A
C978   C1031   1.498   .     S
C979   C991    1.411   .     A
C979   C1032   1.493   .     S
C980   C991    1.414   .     A
C980   C1033   1.485   .     S
C981   C992    1.409   .     A
C981   C1034   1.497   .     S
C982   C995    1.421   .     A
C982   C1035   1.497   .     S
C983   O1151   1.303   .     A
C983   O1148   1.312   .     A
C983   C988    1.454   .     S
C984   C1036   1.489   .     S
C984   C993    1.411   .     A
C985   C1037   1.472   .     S
C985   C993    1.412   .     A
C986   C1039   1.495   .     S
C986   C995    1.409   .     A
C987   C994    1.479   .     S
C991   C1038   1.453   .     S
C992   C1027   1.476   .     S
C993   C1016   1.460   .     S
C994   O1150   1.327   .     A
C994   O1149   1.304   .     A
C995   C1005   1.477   .     S
C996   C997    1.542   .     S
C996   H1111   1.084   .     S
C996   C848    1.511   1_655 S
C996   H908    1.105   1_655 S
C997   C998    1.523   .     S
C997   H1089   1.112   .     S
C998   H1067   1.110   .     S
C998   H1045   1.105   .     S
C998   H1056   1.111   .     S
C999   H1050   1.103   .     S
C999   C1000   1.541   .     S
C999   H1049   1.095   .     S
C1000  C1001   1.524   .     S
C1000  H855    1.101   1_655 S
C1000  H856    1.102   1_655 S
C1001  H1116   1.110   .     S
C1001  H1046   1.111   .     S
C1001  H1115   1.102   .     S
C1002  H1058   1.103   .     S
C1002  H1057   1.095   .     S
C1002  C1003   1.538   .     S
C1003  C1004   1.523   .     S
C1004  H1053   1.111   .     S
C1004  H1051   1.104   .     S
C1004  H1052   1.111   .     S
C1005  O1124   1.327   .     A
C1005  O1152   1.303   .     A
C1006  H1065   1.114   .     S
C1006  H1064   1.103   .     S
C1006  C1007   1.547   .     S
C1007  H1062   1.103   .     S
C1007  C1008   1.527   .     S
C1007  H1063   1.100   .     S
C1008  H1061   1.111   .     S
C1008  H1059   1.107   .     S
C1008  H1060   1.111   .     S
C1009  H1073   1.086   .     S
C1009  H1072   1.091   .     S
C1009  C1010   1.546   .     S
C1010  H1071   1.097   .     S
C1010  H1070   1.099   .     S
C1010  C1011   1.531   .     S
C1011  H1068   1.112   .     S
C1011  H1069   1.111   .     S
C1011  H1066   1.111   .     S
C1012  H1081   1.102   .     S
C1012  H1080   1.088   .     S
C1012  C1013   1.541   .     S
C1013  C1014   1.527   .     S
C1013  H1077   1.111   .     S
C1013  H1079   1.108   .     S
C1014  H1076   1.110   .     S
C1014  H1075   1.111   .     S
C1014  H1074   1.109   .     S
C1015  H1087   1.079   .     S
C1015  C1017   1.542   .     S
C1015  H1088   1.106   .     S
C1016  O1123   1.306   .     A
C1016  O1122   1.313   .     A
C1017  H1085   1.110   .     S
C1017  H1086   1.109   .     S
C1017  C1018   1.526   .     S
C1018  H1083   1.111   .     S
C1018  H1082   1.108   .     S
C1018  H1084   1.111   .     S
C1019  H1096   1.098   .     S
C1019  H1095   1.070   .     S
C1019  C1020   1.533   .     S
C1020  C1021   1.529   .     S
C1020  H1094   1.104   .     S
C1020  H1093   1.098   .     S
C1021  H1092   1.109   .     S
C1021  H1090   1.110   .     S
C1021  H1091   1.111   .     S
C1022  H1097   1.080   .     S
C1022  O1129   1.221   .     D
C1023  H1098   1.079   .     S
C1023  O1130   1.221   .     D
C1024  O1131   1.221   .     D
C1024  H1099   1.084   .     S
C1025  H1101   1.078   .     S
C1025  O1133   1.221   .     D
C1026  H1102   1.081   .     S
C1026  O1134   1.220   .     D
C1027  O1128   1.323   .     A
C1027  O1125   1.306   .     A
C1028  H1103   1.077   .     S
C1028  O1135   1.220   .     D
C1029  H1104   1.084   .     S
C1029  O1136   1.221   .     D
C1030  H1105   1.079   .     S
C1030  O1137   1.221   .     D
C1031  O1138   1.221   .     D
C1031  H1106   1.080   .     S
C1032  H1107   1.082   .     S
C1032  O1139   1.221   .     D
C1033  O1140   1.218   .     D
C1033  H1108   1.085   .     S
C1034  O1141   1.221   .     D
C1034  H1109   1.082   .     S
C1035  H1110   1.081   .     S
C1035  O1142   1.221   .     D
C1036  H1112   1.081   .     S
C1036  O1144   1.221   .     D
C1037  O1145   1.220   .     D
C1037  H1113   1.079   .     S
C1038  O1126   1.307   .     A
C1038  O1127   1.307   .     A
C1039  O1146   1.220   .     D
C1039  H1114   1.082   .     S
C1040  N1118   1.382   .     A
Cu1041 Cu1042  2.738   .     S
Cu1041 O1149   1.966   .     S
Cu1041 O1121   1.964   .     S
Cu1041 N1117   2.058   .     S
Cu1042 N1118   2.058   .     S
Cu1042 O1150   1.958   .     S
Cu1042 O1147   1.961   .     S
Cu1043 Cu1044  2.738   .     S
Cu1043 O1126   1.966   .     S
Cu1043 O1123   1.961   .     S
Cu1043 N1119   2.058   .     S
Cu1043 O1512   1.958   1_545 S
Cu1043 O1536   1.964   1_545 S
Cu1044 N1120   2.058   .     S
Cu1044 O1122   1.964   .     S
Cu1044 O1127   1.958   .     S
Cu1044 O1508   1.961   1_545 S
Cu1044 O1509   1.966   1_545 S
H1054  C811    1.103   1_655 S
H1055  C811    1.102   1_655 S
H1078  C1765   1.109   .     S
N1119  C1352   1.388   1_545 S
N1120  C1349   1.405   1_545 S
O1124  Cu1428  1.961   .     S
O1125  Cu1428  1.966   .     S
O1128  Cu1427  1.958   .     S
O1132  Cu850   1.964   1_655 S
O1143  Cu849   1.961   1_655 S
O1148  Cu850   1.966   1_655 S
O1151  Cu849   1.958   1_655 S
O1152  Cu1427  1.964   .     S
C1153  O1313   1.312   .     A
C1153  O1339   1.301   .     A
C1153  C1182   1.448   .     S
C1154  C1191   1.525   .     S
C1154  C2115   1.430   .     S
C1154  N1501   1.397   .     S
C1155  N1310   1.385   .     A
C1155  C1194   1.526   .     S
C1155  C578    1.430   1_455 S
C1156  C1198   1.528   .     S
C1156  N1309   1.389   .     A
C1156  C2000   1.434   .     S
C1157  C1201   1.545   .     S
C1157  N928    1.405   1_565 S
C1158  N1311   1.382   .     A
C1158  C1204   1.520   .     S
C1158  C1927   1.437   .     S
C1159  C1207   1.519   .     S
C1159  N1312   1.383   .     A
C1160  C1211   1.544   .     S
C1160  C1925   1.450   .     S
C1160  N927    1.388   1_565 S
C1161  C1214   1.493   .     S
C1161  C1172   1.403   .     A
C1161  C1180   1.410   .     A
C1162  C1179   1.425   .     A
C1162  C1215   1.486   .     S
C1162  C1173   1.404   .     A
C1163  C1170   1.403   .     A
C1163  C1216   1.495   .     S
C1163  C1179   1.407   .     A
C1164  C1181   1.480   .     S
C1164  O1324   1.301   .     A
C1164  O1335   1.331   .     A
C1165  C1217   1.492   .     S
C1165  C1171   1.407   .     A
C1165  C1180   1.416   .     A
C1166  C1182   1.405   .     A
C1166  C1218   1.493   .     S
C1166  C1177   1.397   .     A
C1167  C1181   1.422   .     A
C1167  C1178   1.401   .     A
C1167  C1220   1.486   .     S
C1168  C1181   1.402   .     A
C1168  C1174   1.405   .     A
C1168  C1221   1.492   .     S
C1169  C1222   1.491   .     S
C1169  C1182   1.417   .     A
C1169  C1176   1.410   .     A
C1170  C1184   1.415   .     A
C1170  C1223   1.498   .     S
C1171  C1183   1.411   .     A
C1171  C1224   1.493   .     S
C1172  C1183   1.414   .     A
C1172  C1225   1.485   .     S
C1173  C1184   1.409   .     A
C1173  C1226   1.497   .     S
C1174  C1187   1.421   .     A
C1174  C1227   1.497   .     S
C1175  O1343   1.303   .     A
C1175  O1340   1.312   .     A
C1175  C1180   1.454   .     S
C1176  C1228   1.489   .     S
C1176  C1185   1.411   .     A
C1177  C1229   1.472   .     S
C1177  C1185   1.412   .     A
C1178  C1231   1.495   .     S
C1178  C1187   1.409   .     A
C1179  C1186   1.479   .     S
C1183  C1230   1.453   .     S
C1184  C1219   1.476   .     S
C1185  C1208   1.460   .     S
C1186  O1342   1.327   .     A
C1186  O1341   1.304   .     A
C1187  C1197   1.477   .     S
C1188  C1189   1.542   .     S
C1188  H1303   1.084   .     S
C1188  C1424   1.511   .     S
C1188  H1484   1.105   .     S
C1189  C1190   1.523   .     S
C1189  H1281   1.112   .     S
C1190  H1259   1.110   .     S
C1190  H1237   1.105   .     S
C1190  H1248   1.111   .     S
C1191  H1242   1.103   .     S
C1191  C1192   1.541   .     S
C1191  H1241   1.095   .     S
C1192  C1193   1.524   .     S
C1192  H1431   1.101   .     S
C1192  H1432   1.102   .     S
C1193  H1308   1.110   .     S
C1193  H1238   1.111   .     S
C1193  H1307   1.102   .     S
C1194  H1250   1.103   .     S
C1194  H1249   1.095   .     S
C1194  C1195   1.538   .     S
C1195  C1196   1.523   .     S
C1195  H1438   1.103   1_455 S
C1195  H1439   1.102   1_455 S
C1196  H1245   1.111   .     S
C1196  H1243   1.104   .     S
C1196  H1244   1.111   .     S
C1197  O1316   1.327   .     A
C1197  O1344   1.303   .     A
C1198  H1257   1.114   .     S
C1198  H1256   1.103   .     S
C1198  C1199   1.547   .     S
C1199  H1254   1.103   .     S
C1199  C1200   1.527   .     S
C1199  H1255   1.100   .     S
C1200  H1253   1.111   .     S
C1200  H1251   1.107   .     S
C1200  H1252   1.111   .     S
C1201  H1265   1.086   .     S
C1201  H1264   1.091   .     S
C1201  C1202   1.546   .     S
C1202  H1263   1.097   .     S
C1202  H1262   1.099   .     S
C1202  C1203   1.531   .     S
C1203  H1260   1.112   .     S
C1203  H1261   1.111   .     S
C1203  H1258   1.111   .     S
C1204  H1273   1.102   .     S
C1204  H1272   1.088   .     S
C1204  C1205   1.541   .     S
C1205  C1206   1.527   .     S
C1205  H1269   1.111   .     S
C1205  H1271   1.108   .     S
C1206  H1268   1.110   .     S
C1206  H1267   1.111   .     S
C1206  H1266   1.109   .     S
C1207  H1279   1.079   .     S
C1207  C1209   1.542   .     S
C1207  H1280   1.106   .     S
C1208  O1315   1.306   .     A
C1208  O1314   1.313   .     A
C1209  H1277   1.110   .     S
C1209  H1278   1.109   .     S
C1209  C1210   1.526   .     S
C1210  H1275   1.111   .     S
C1210  H1274   1.108   .     S
C1210  H1276   1.111   .     S
C1211  H1288   1.098   .     S
C1211  H1287   1.070   .     S
C1211  C1212   1.533   .     S
C1212  C1213   1.529   .     S
C1212  H1286   1.104   .     S
C1212  H1285   1.098   .     S
C1213  H1284   1.109   .     S
C1213  H1282   1.110   .     S
C1213  H1283   1.111   .     S
C1214  H1289   1.080   .     S
C1214  O1321   1.221   .     D
C1215  H1290   1.079   .     S
C1215  O1322   1.221   .     D
C1216  O1323   1.221   .     D
C1216  H1291   1.084   .     S
C1217  H1293   1.078   .     S
C1217  O1325   1.221   .     D
C1218  H1294   1.081   .     S
C1218  O1326   1.220   .     D
C1219  O1320   1.323   .     A
C1219  O1317   1.306   .     A
C1220  H1295   1.077   .     S
C1220  O1327   1.220   .     D
C1221  H1296   1.084   .     S
C1221  O1328   1.221   .     D
C1222  H1297   1.079   .     S
C1222  O1329   1.221   .     D
C1223  O1330   1.221   .     D
C1223  H1298   1.080   .     S
C1224  H1299   1.082   .     S
C1224  O1331   1.221   .     D
C1225  O1332   1.218   .     D
C1225  H1300   1.085   .     S
C1226  O1333   1.221   .     D
C1226  H1301   1.082   .     S
C1227  H1302   1.081   .     S
C1227  O1334   1.221   .     D
C1228  H1304   1.081   .     S
C1228  O1336   1.221   .     D
C1229  O1337   1.220   .     D
C1229  H1305   1.079   .     S
C1230  O1318   1.307   .     A
C1230  O1319   1.307   .     A
C1231  O1338   1.220   .     D
C1231  H1306   1.082   .     S
C1232  N1310   1.382   .     A
C1232  C1380   1.511   1_455 S
Cu1233 Cu1234  2.738   .     S
Cu1233 O1341   1.966   .     S
Cu1233 O1313   1.964   .     S
Cu1233 N1309   2.058   .     S
Cu1233 O1527   1.961   1_455 S
Cu1233 O1535   1.958   1_455 S
Cu1234 N1310   2.058   .     S
Cu1234 O1342   1.958   .     S
Cu1234 O1339   1.961   .     S
Cu1234 O1516   1.964   1_455 S
Cu1234 O1532   1.966   1_455 S
Cu1235 Cu1236  2.738   .     S
Cu1235 O1318   1.966   .     S
Cu1235 O1315   1.961   .     S
Cu1235 N1311   2.058   .     S
Cu1236 N1312   2.058   .     S
Cu1236 O1314   1.964   .     S
Cu1236 O1319   1.958   .     S
H1239  C1384   1.101   1_455 S
H1240  C1384   1.102   1_455 S
H1246  C1387   1.103   .     S
H1247  C1387   1.102   .     S
H1270  C1957   1.109   .     S
H1292  C1380   1.105   1_455 S
N1309  C1346   1.397   1_455 S
O1316  Cu852   1.961   1_565 S
O1317  Cu852   1.966   1_565 S
O1320  Cu851   1.958   1_565 S
O1324  Cu1426  1.964   .     S
O1335  Cu1425  1.961   .     S
O1340  Cu1426  1.966   .     S
O1343  Cu1425  1.958   .     S
O1344  Cu851   1.964   1_565 S
C1345  O1505   1.312   .     A
C1345  O1531   1.301   .     A
C1345  C1374   1.448   .     S
C1346  C1383   1.525   .     S
C1346  C1923   1.430   1_655 S
C1346  N1309   1.397   1_655 S
C1347  N1502   1.385   .     A
C1347  C1386   1.526   .     S
C1348  C1390   1.528   .     S
C1348  N1501   1.389   .     A
C1348  C2192   1.434   .     S
C1349  C1393   1.545   .     S
C1349  N1120   1.405   1_565 S
C1350  N1503   1.382   .     A
C1350  C1396   1.520   .     S
C1350  C2119   1.437   .     S
C1351  C1399   1.519   .     S
C1351  N1504   1.383   .     A
C1352  C1403   1.544   .     S
C1352  C2117   1.450   .     S
C1352  N1119   1.388   1_565 S
C1353  C1406   1.493   .     S
C1353  C1364   1.403   .     A
C1353  C1372   1.410   .     A
C1354  C1371   1.425   .     A
C1354  C1407   1.486   .     S
C1354  C1365   1.404   .     A
C1355  C1362   1.403   .     A
C1355  C1408   1.495   .     S
C1355  C1371   1.407   .     A
C1356  C1373   1.480   .     S
C1356  O1516   1.301   .     A
C1356  O1527   1.331   .     A
C1357  C1409   1.492   .     S
C1357  C1363   1.407   .     A
C1357  C1372   1.416   .     A
C1358  C1374   1.405   .     A
C1358  C1410   1.493   .     S
C1358  C1369   1.397   .     A
C1359  C1373   1.422   .     A
C1359  C1370   1.401   .     A
C1359  C1412   1.486   .     S
C1360  C1373   1.402   .     A
C1360  C1366   1.405   .     A
C1360  C1413   1.492   .     S
C1361  C1414   1.491   .     S
C1361  C1374   1.417   .     A
C1361  C1368   1.410   .     A
C1362  C1376   1.415   .     A
C1362  C1415   1.498   .     S
C1363  C1375   1.411   .     A
C1363  C1416   1.493   .     S
C1364  C1375   1.414   .     A
C1364  C1417   1.485   .     S
C1365  C1376   1.409   .     A
C1365  C1418   1.497   .     S
C1366  C1379   1.421   .     A
C1366  C1419   1.497   .     S
C1367  O1535   1.303   .     A
C1367  O1532   1.312   .     A
C1367  C1372   1.454   .     S
C1368  C1420   1.489   .     S
C1368  C1377   1.411   .     A
C1369  C1421   1.472   .     S
C1369  C1377   1.412   .     A
C1370  C1423   1.495   .     S
C1370  C1379   1.409   .     A
C1371  C1378   1.479   .     S
C1375  C1422   1.453   .     S
C1376  C1411   1.476   .     S
C1377  C1400   1.460   .     S
C1378  O1534   1.327   .     A
C1378  O1533   1.304   .     A
C1379  C1389   1.477   .     S
C1380  C1381   1.542   .     S
C1380  H1495   1.084   .     S
C1380  C1232   1.511   1_655 S
C1380  H1292   1.105   1_655 S
C1381  C1382   1.523   .     S
C1381  H1473   1.112   .     S
C1382  H1451   1.110   .     S
C1382  H1429   1.105   .     S
C1382  H1440   1.111   .     S
C1383  H1434   1.103   .     S
C1383  C1384   1.541   .     S
C1383  H1433   1.095   .     S
C1384  C1385   1.524   .     S
C1384  H1239   1.101   1_655 S
C1384  H1240   1.102   1_655 S
C1385  H1500   1.110   .     S
C1385  H1430   1.111   .     S
C1385  H1499   1.102   .     S
C1386  H1442   1.103   .     S
C1386  H1441   1.095   .     S
C1386  C1387   1.538   .     S
C1387  C1388   1.523   .     S
C1388  H1437   1.111   .     S
C1388  H1435   1.104   .     S
C1388  H1436   1.111   .     S
C1389  O1508   1.327   .     A
C1389  O1536   1.303   .     A
C1390  H1449   1.114   .     S
C1390  H1448   1.103   .     S
C1390  C1391   1.547   .     S
C1391  H1446   1.103   .     S
C1391  C1392   1.527   .     S
C1391  H1447   1.100   .     S
C1392  H1445   1.111   .     S
C1392  H1443   1.107   .     S
C1392  H1444   1.111   .     S
C1393  H1457   1.086   .     S
C1393  H1456   1.091   .     S
C1393  C1394   1.546   .     S
C1394  H1455   1.097   .     S
C1394  H1454   1.099   .     S
C1394  C1395   1.531   .     S
C1395  H1452   1.112   .     S
C1395  H1453   1.111   .     S
C1395  H1450   1.111   .     S
C1396  H1465   1.102   .     S
C1396  H1464   1.088   .     S
C1396  C1397   1.541   .     S
C1397  C1398   1.527   .     S
C1397  H1461   1.111   .     S
C1397  H1463   1.108   .     S
C1398  H1460   1.110   .     S
C1398  H1459   1.111   .     S
C1398  H1458   1.109   .     S
C1399  H1471   1.079   .     S
C1399  C1401   1.542   .     S
C1399  H1472   1.106   .     S
C1400  O1507   1.306   .     A
C1400  O1506   1.313   .     A
C1401  H1469   1.110   .     S
C1401  H1470   1.109   .     S
C1401  C1402   1.526   .     S
C1402  H1467   1.111   .     S
C1402  H1466   1.108   .     S
C1402  H1468   1.111   .     S
C1403  H1480   1.098   .     S
C1403  H1479   1.070   .     S
C1403  C1404   1.533   .     S
C1404  C1405   1.529   .     S
C1404  H1478   1.104   .     S
C1404  H1477   1.098   .     S
C1405  H1476   1.109   .     S
C1405  H1474   1.110   .     S
C1405  H1475   1.111   .     S
C1406  H1481   1.080   .     S
C1406  O1513   1.221   .     D
C1407  H1482   1.079   .     S
C1407  O1514   1.221   .     D
C1408  O1515   1.221   .     D
C1408  H1483   1.084   .     S
C1409  H1485   1.078   .     S
C1409  O1517   1.221   .     D
C1410  H1486   1.081   .     S
C1410  O1518   1.220   .     D
C1411  O1512   1.323   .     A
C1411  O1509   1.306   .     A
C1412  H1487   1.077   .     S
C1412  O1519   1.220   .     D
C1413  H1488   1.084   .     S
C1413  O1520   1.221   .     D
C1414  H1489   1.079   .     S
C1414  O1521   1.221   .     D
C1415  O1522   1.221   .     D
C1415  H1490   1.080   .     S
C1416  H1491   1.082   .     S
C1416  O1523   1.221   .     D
C1417  O1524   1.218   .     D
C1417  H1492   1.085   .     S
C1418  O1525   1.221   .     D
C1418  H1493   1.082   .     S
C1419  H1494   1.081   .     S
C1419  O1526   1.221   .     D
C1420  H1496   1.081   .     S
C1420  O1528   1.221   .     D
C1421  O1529   1.220   .     D
C1421  H1497   1.079   .     S
C1422  O1510   1.307   .     A
C1422  O1511   1.307   .     A
C1423  O1530   1.220   .     D
C1423  H1498   1.082   .     S
C1424  N1502   1.382   .     A
Cu1425 Cu1426  2.738   .     S
Cu1425 O1533   1.966   .     S
Cu1425 O1505   1.964   .     S
Cu1425 N1501   2.058   .     S
Cu1426 N1502   2.058   .     S
Cu1426 O1534   1.958   .     S
Cu1426 O1531   1.961   .     S
Cu1427 Cu1428  2.738   .     S
Cu1427 O1510   1.966   .     S
Cu1427 O1507   1.961   .     S
Cu1427 N1503   2.058   .     S
Cu1428 N1504   2.058   .     S
Cu1428 O1506   1.964   .     S
Cu1428 O1511   1.958   .     S
H1438  C1195   1.103   1_655 S
H1439  C1195   1.102   1_655 S
H1462  C2149   1.109   .     S
O1508  Cu1044  1.961   1_565 S
O1509  Cu1044  1.966   1_565 S
O1512  Cu1043  1.958   1_565 S
O1516  Cu1234  1.964   1_655 S
O1527  Cu1233  1.961   1_655 S
O1532  Cu1234  1.966   1_655 S
O1535  Cu1233  1.958   1_655 S
O1536  Cu1043  1.964   1_565 S
C1537  O1697   1.312   .     A
C1537  O1723   1.301   .     A
C1537  C1566   1.448   .     S
C1538  C1575   1.525   .     S
C1538  C195    1.430   1_556 S
C1538  N1885   1.397   .     S
C1539  N1694   1.385   .     A
C1539  C1578   1.526   .     S
C1539  C962    1.430   1_455 S
C1540  C1582   1.528   .     S
C1540  N1693   1.389   .     A
C1540  C80     1.434   1_556 S
C1541  C1585   1.545   .     S
C1541  N2080   1.405   .     S
C1542  N1695   1.382   .     A
C1542  C1588   1.520   .     S
C1542  C7      1.437   1_556 S
C1543  C1591   1.519   .     S
C1543  N1696   1.383   .     A
C1544  C1595   1.544   .     S
C1544  C5      1.450   1_556 S
C1544  N2079   1.388   .     S
C1545  C1598   1.493   .     S
C1545  C1556   1.403   .     A
C1545  C1564   1.410   .     A
C1546  C1563   1.425   .     A
C1546  C1599   1.486   .     S
C1546  C1557   1.404   .     A
C1547  C1554   1.403   .     A
C1547  C1600   1.495   .     S
C1547  C1563   1.407   .     A
C1548  C1565   1.480   .     S
C1548  O1708   1.301   .     A
C1548  O1719   1.331   .     A
C1549  C1601   1.492   .     S
C1549  C1555   1.407   .     A
C1549  C1564   1.416   .     A
C1550  C1566   1.405   .     A
C1550  C1602   1.493   .     S
C1550  C1561   1.397   .     A
C1551  C1565   1.422   .     A
C1551  C1562   1.401   .     A
C1551  C1604   1.486   .     S
C1552  C1565   1.402   .     A
C1552  C1558   1.405   .     A
C1552  C1605   1.492   .     S
C1553  C1606   1.491   .     S
C1553  C1566   1.417   .     A
C1553  C1560   1.410   .     A
C1554  C1568   1.415   .     A
C1554  C1607   1.498   .     S
C1555  C1567   1.411   .     A
C1555  C1608   1.493   .     S
C1556  C1567   1.414   .     A
C1556  C1609   1.485   .     S
C1557  C1568   1.409   .     A
C1557  C1610   1.497   .     S
C1558  C1571   1.421   .     A
C1558  C1611   1.497   .     S
C1559  O1727   1.303   .     A
C1559  O1724   1.312   .     A
C1559  C1564   1.454   .     S
C1560  C1612   1.489   .     S
C1560  C1569   1.411   .     A
C1561  C1613   1.472   .     S
C1561  C1569   1.412   .     A
C1562  C1615   1.495   .     S
C1562  C1571   1.409   .     A
C1563  C1570   1.479   .     S
C1567  C1614   1.453   .     S
C1568  C1603   1.476   .     S
C1569  C1592   1.460   .     S
C1570  O1726   1.327   .     A
C1570  O1725   1.304   .     A
C1571  C1581   1.477   .     S
C1572  C1573   1.542   .     S
C1572  H1687   1.084   .     S
C1572  C1808   1.511   .     S
C1572  H1868   1.105   .     S
C1573  C1574   1.523   .     S
C1573  H1665   1.112   .     S
C1574  H1643   1.110   .     S
C1574  H1621   1.105   .     S
C1574  H1632   1.111   .     S
C1575  H1626   1.103   .     S
C1575  C1576   1.541   .     S
C1575  H1625   1.095   .     S
C1576  C1577   1.524   .     S
C1576  H1815   1.101   .     S
C1576  H1816   1.102   .     S
C1577  H1692   1.110   .     S
C1577  H1622   1.111   .     S
C1577  H1691   1.102   .     S
C1578  H1634   1.103   .     S
C1578  H1633   1.095   .     S
C1578  C1579   1.538   .     S
C1579  C1580   1.523   .     S
C1579  H1822   1.103   1_455 S
C1579  H1823   1.102   1_455 S
C1580  H1629   1.111   .     S
C1580  H1627   1.104   .     S
C1580  H1628   1.111   .     S
C1581  O1700   1.327   .     A
C1581  O1728   1.303   .     A
C1582  H1641   1.114   .     S
C1582  H1640   1.103   .     S
C1582  C1583   1.547   .     S
C1583  H1638   1.103   .     S
C1583  C1584   1.527   .     S
C1583  H1639   1.100   .     S
C1584  H1637   1.111   .     S
C1584  H1635   1.107   .     S
C1584  H1636   1.111   .     S
C1585  H1649   1.086   .     S
C1585  H1648   1.091   .     S
C1585  C1586   1.546   .     S
C1586  H1647   1.097   .     S
C1586  H1646   1.099   .     S
C1586  C1587   1.531   .     S
C1587  H1644   1.112   .     S
C1587  H1645   1.111   .     S
C1587  H1642   1.111   .     S
C1588  H1657   1.102   .     S
C1588  H1656   1.088   .     S
C1588  C1589   1.541   .     S
C1589  C1590   1.527   .     S
C1589  H1653   1.111   .     S
C1589  H1655   1.108   .     S
C1590  H1652   1.110   .     S
C1590  H1651   1.111   .     S
C1590  H1650   1.109   .     S
C1591  H1663   1.079   .     S
C1591  C1593   1.542   .     S
C1591  H1664   1.106   .     S
C1592  O1699   1.306   .     A
C1592  O1698   1.313   .     A
C1593  H1661   1.110   .     S
C1593  H1662   1.109   .     S
C1593  C1594   1.526   .     S
C1594  H1659   1.111   .     S
C1594  H1658   1.108   .     S
C1594  H1660   1.111   .     S
C1595  H1672   1.098   .     S
C1595  H1671   1.070   .     S
C1595  C1596   1.533   .     S
C1596  C1597   1.529   .     S
C1596  H1670   1.104   .     S
C1596  H1669   1.098   .     S
C1597  H1668   1.109   .     S
C1597  H1666   1.110   .     S
C1597  H1667   1.111   .     S
C1598  H1673   1.080   .     S
C1598  O1705   1.221   .     D
C1599  H1674   1.079   .     S
C1599  O1706   1.221   .     D
C1600  O1707   1.221   .     D
C1600  H1675   1.084   .     S
C1601  H1677   1.078   .     S
C1601  O1709   1.221   .     D
C1602  H1678   1.081   .     S
C1602  O1710   1.220   .     D
C1603  O1704   1.323   .     A
C1603  O1701   1.306   .     A
C1604  H1679   1.077   .     S
C1604  O1711   1.220   .     D
C1605  H1680   1.084   .     S
C1605  O1712   1.221   .     D
C1606  H1681   1.079   .     S
C1606  O1713   1.221   .     D
C1607  O1714   1.221   .     D
C1607  H1682   1.080   .     S
C1608  H1683   1.082   .     S
C1608  O1715   1.221   .     D
C1609  O1716   1.218   .     D
C1609  H1684   1.085   .     S
C1610  O1717   1.221   .     D
C1610  H1685   1.082   .     S
C1611  H1686   1.081   .     S
C1611  O1718   1.221   .     D
C1612  H1688   1.081   .     S
C1612  O1720   1.221   .     D
C1613  O1721   1.220   .     D
C1613  H1689   1.079   .     S
C1614  O1702   1.307   .     A
C1614  O1703   1.307   .     A
C1615  O1722   1.220   .     D
C1615  H1690   1.082   .     S
C1616  N1694   1.382   .     A
C1616  C1764   1.511   1_455 S
Cu1617 Cu1618  2.738   .     S
Cu1617 O1725   1.966   .     S
Cu1617 O1697   1.964   .     S
Cu1617 N1693   2.058   .     S
Cu1617 O1911   1.961   1_455 S
Cu1617 O1919   1.958   1_455 S
Cu1618 N1694   2.058   .     S
Cu1618 O1726   1.958   .     S
Cu1618 O1723   1.961   .     S
Cu1618 O1900   1.964   1_455 S
Cu1618 O1916   1.966   1_455 S
Cu1619 Cu1620  2.738   .     S
Cu1619 O1702   1.966   .     S
Cu1619 O1699   1.961   .     S
Cu1619 N1695   2.058   .     S
Cu1619 O2088   1.958   1_545 S
Cu1619 O2112   1.964   1_545 S
Cu1620 N1696   2.058   .     S
Cu1620 O1698   1.964   .     S
Cu1620 O1703   1.958   .     S
Cu1620 O2084   1.961   1_545 S
Cu1620 O2085   1.966   1_545 S
H1623  C1768   1.101   1_455 S
H1624  C1768   1.102   1_455 S
H1630  C1771   1.103   .     S
H1631  C1771   1.102   .     S
H1654  C37     1.109   1_556 S
H1676  C1764   1.105   1_455 S
N1693  C1730   1.397   1_455 S
N1695  C1928   1.388   1_545 S
N1696  C1925   1.405   1_545 S
O1700  Cu2004  1.961   .     S
O1701  Cu2004  1.966   .     S
O1704  Cu2003  1.958   .     S
O1708  Cu1810  1.964   .     S
O1719  Cu1809  1.961   .     S
O1724  Cu1810  1.966   .     S
O1727  Cu1809  1.958   .     S
O1728  Cu2003  1.964   .     S
C1729  O1889   1.312   .     A
C1729  O1915   1.301   .     A
C1729  C1758   1.448   .     S
C1730  C1767   1.525   .     S
C1730  C3      1.430   1_656 S
C1730  N1693   1.397   1_655 S
C1731  N1886   1.385   .     A
C1731  C1770   1.526   .     S
C1732  C1774   1.528   .     S
C1732  N1885   1.389   .     A
C1732  C272    1.434   1_556 S
C1733  C1777   1.545   .     S
C1733  N2272   1.405   .     S
C1734  N1887   1.382   .     A
C1734  C1780   1.520   .     S
C1734  C199    1.437   1_556 S
C1735  C1783   1.519   .     S
C1735  N1888   1.383   .     A
C1736  C1787   1.544   .     S
C1736  C197    1.450   1_556 S
C1736  N2271   1.388   .     S
C1737  C1790   1.493   .     S
C1737  C1748   1.403   .     A
C1737  C1756   1.410   .     A
C1738  C1755   1.425   .     A
C1738  C1791   1.486   .     S
C1738  C1749   1.404   .     A
C1739  C1746   1.403   .     A
C1739  C1792   1.495   .     S
C1739  C1755   1.407   .     A
C1740  C1757   1.480   .     S
C1740  O1900   1.301   .     A
C1740  O1911   1.331   .     A
C1741  C1793   1.492   .     S
C1741  C1747   1.407   .     A
C1741  C1756   1.416   .     A
C1742  C1758   1.405   .     A
C1742  C1794   1.493   .     S
C1742  C1753   1.397   .     A
C1743  C1757   1.422   .     A
C1743  C1754   1.401   .     A
C1743  C1796   1.486   .     S
C1744  C1757   1.402   .     A
C1744  C1750   1.405   .     A
C1744  C1797   1.492   .     S
C1745  C1798   1.491   .     S
C1745  C1758   1.417   .     A
C1745  C1752   1.410   .     A
C1746  C1760   1.415   .     A
C1746  C1799   1.498   .     S
C1747  C1759   1.411   .     A
C1747  C1800   1.493   .     S
C1748  C1759   1.414   .     A
C1748  C1801   1.485   .     S
C1749  C1760   1.409   .     A
C1749  C1802   1.497   .     S
C1750  C1763   1.421   .     A
C1750  C1803   1.497   .     S
C1751  O1919   1.303   .     A
C1751  O1916   1.312   .     A
C1751  C1756   1.454   .     S
C1752  C1804   1.489   .     S
C1752  C1761   1.411   .     A
C1753  C1805   1.472   .     S
C1753  C1761   1.412   .     A
C1754  C1807   1.495   .     S
C1754  C1763   1.409   .     A
C1755  C1762   1.479   .     S
C1759  C1806   1.453   .     S
C1760  C1795   1.476   .     S
C1761  C1784   1.460   .     S
C1762  O1918   1.327   .     A
C1762  O1917   1.304   .     A
C1763  C1773   1.477   .     S
C1764  C1765   1.542   .     S
C1764  H1879   1.084   .     S
C1764  C1616   1.511   1_655 S
C1764  H1676   1.105   1_655 S
C1765  C1766   1.523   .     S
C1765  H1857   1.112   .     S
C1766  H1835   1.110   .     S
C1766  H1813   1.105   .     S
C1766  H1824   1.111   .     S
C1767  H1818   1.103   .     S
C1767  C1768   1.541   .     S
C1767  H1817   1.095   .     S
C1768  C1769   1.524   .     S
C1768  H1623   1.101   1_655 S
C1768  H1624   1.102   1_655 S
C1769  H1884   1.110   .     S
C1769  H1814   1.111   .     S
C1769  H1883   1.102   .     S
C1770  H1826   1.103   .     S
C1770  H1825   1.095   .     S
C1770  C1771   1.538   .     S
C1771  C1772   1.523   .     S
C1772  H1821   1.111   .     S
C1772  H1819   1.104   .     S
C1772  H1820   1.111   .     S
C1773  O1892   1.327   .     A
C1773  O1920   1.303   .     A
C1774  H1833   1.114   .     S
C1774  H1832   1.103   .     S
C1774  C1775   1.547   .     S
C1775  H1830   1.103   .     S
C1775  C1776   1.527   .     S
C1775  H1831   1.100   .     S
C1776  H1829   1.111   .     S
C1776  H1827   1.107   .     S
C1776  H1828   1.111   .     S
C1777  H1841   1.086   .     S
C1777  H1840   1.091   .     S
C1777  C1778   1.546   .     S
C1778  H1839   1.097   .     S
C1778  H1838   1.099   .     S
C1778  C1779   1.531   .     S
C1779  H1836   1.112   .     S
C1779  H1837   1.111   .     S
C1779  H1834   1.111   .     S
C1780  H1849   1.102   .     S
C1780  H1848   1.088   .     S
C1780  C1781   1.541   .     S
C1781  C1782   1.527   .     S
C1781  H1845   1.111   .     S
C1781  H1847   1.108   .     S
C1782  H1844   1.110   .     S
C1782  H1843   1.111   .     S
C1782  H1842   1.109   .     S
C1783  H1855   1.079   .     S
C1783  C1785   1.542   .     S
C1783  H1856   1.106   .     S
C1784  O1891   1.306   .     A
C1784  O1890   1.313   .     A
C1785  H1853   1.110   .     S
C1785  H1854   1.109   .     S
C1785  C1786   1.526   .     S
C1786  H1851   1.111   .     S
C1786  H1850   1.108   .     S
C1786  H1852   1.111   .     S
C1787  H1864   1.098   .     S
C1787  H1863   1.070   .     S
C1787  C1788   1.533   .     S
C1788  C1789   1.529   .     S
C1788  H1862   1.104   .     S
C1788  H1861   1.098   .     S
C1789  H1860   1.109   .     S
C1789  H1858   1.110   .     S
C1789  H1859   1.111   .     S
C1790  H1865   1.080   .     S
C1790  O1897   1.221   .     D
C1791  H1866   1.079   .     S
C1791  O1898   1.221   .     D
C1792  O1899   1.221   .     D
C1792  H1867   1.084   .     S
C1793  H1869   1.078   .     S
C1793  O1901   1.221   .     D
C1794  H1870   1.081   .     S
C1794  O1902   1.220   .     D
C1795  O1896   1.323   .     A
C1795  O1893   1.306   .     A
C1796  H1871   1.077   .     S
C1796  O1903   1.220   .     D
C1797  H1872   1.084   .     S
C1797  O1904   1.221   .     D
C1798  H1873   1.079   .     S
C1798  O1905   1.221   .     D
C1799  O1906   1.221   .     D
C1799  H1874   1.080   .     S
C1800  H1875   1.082   .     S
C1800  O1907   1.221   .     D
C1801  O1908   1.218   .     D
C1801  H1876   1.085   .     S
C1802  O1909   1.221   .     D
C1802  H1877   1.082   .     S
C1803  H1878   1.081   .     S
C1803  O1910   1.221   .     D
C1804  H1880   1.081   .     S
C1804  O1912   1.221   .     D
C1805  O1913   1.220   .     D
C1805  H1881   1.079   .     S
C1806  O1894   1.307   .     A
C1806  O1895   1.307   .     A
C1807  O1914   1.220   .     D
C1807  H1882   1.082   .     S
C1808  N1886   1.382   .     A
Cu1809 Cu1810  2.738   .     S
Cu1809 O1917   1.966   .     S
Cu1809 O1889   1.964   .     S
Cu1809 N1885   2.058   .     S
Cu1810 N1886   2.058   .     S
Cu1810 O1918   1.958   .     S
Cu1810 O1915   1.961   .     S
Cu1811 Cu1812  2.738   .     S
Cu1811 O1894   1.966   .     S
Cu1811 O1891   1.961   .     S
Cu1811 N1887   2.058   .     S
Cu1811 O2280   1.958   1_545 S
Cu1811 O2304   1.964   1_545 S
Cu1812 N1888   2.058   .     S
Cu1812 O1890   1.964   .     S
Cu1812 O1895   1.958   .     S
Cu1812 O2276   1.961   1_545 S
Cu1812 O2277   1.966   1_545 S
H1822  C1579   1.103   1_655 S
H1823  C1579   1.102   1_655 S
H1846  C229    1.109   1_556 S
N1887  C2120   1.388   1_545 S
N1888  C2117   1.405   1_545 S
O1892  Cu2196  1.961   .     S
O1893  Cu2196  1.966   .     S
O1896  Cu2195  1.958   .     S
O1900  Cu1618  1.964   1_655 S
O1911  Cu1617  1.961   1_655 S
O1916  Cu1618  1.966   1_655 S
O1919  Cu1617  1.958   1_655 S
O1920  Cu2195  1.964   .     S
C1921  O2081   1.312   .     A
C1921  O2107   1.301   .     A
C1921  C1950   1.448   .     S
C1922  C1959   1.525   .     S
C1922  C579    1.430   1_556 S
C1922  N2269   1.397   .     S
C1923  N2078   1.385   .     A
C1923  C1962   1.526   .     S
C1923  C1346   1.430   1_455 S
C1924  C1966   1.528   .     S
C1924  N2077   1.389   .     A
C1924  C464    1.434   1_556 S
C1925  C1969   1.545   .     S
C1925  N1696   1.405   1_565 S
C1926  N2079   1.382   .     A
C1926  C1972   1.520   .     S
C1926  C391    1.437   1_556 S
C1927  C1975   1.519   .     S
C1927  N2080   1.383   .     A
C1928  C1979   1.544   .     S
C1928  C389    1.450   1_556 S
C1928  N1695   1.388   1_565 S
C1929  C1982   1.493   .     S
C1929  C1940   1.403   .     A
C1929  C1948   1.410   .     A
C1930  C1947   1.425   .     A
C1930  C1983   1.486   .     S
C1930  C1941   1.404   .     A
C1931  C1938   1.403   .     A
C1931  C1984   1.495   .     S
C1931  C1947   1.407   .     A
C1932  C1949   1.480   .     S
C1932  O2092   1.301   .     A
C1932  O2103   1.331   .     A
C1933  C1985   1.492   .     S
C1933  C1939   1.407   .     A
C1933  C1948   1.416   .     A
C1934  C1950   1.405   .     A
C1934  C1986   1.493   .     S
C1934  C1945   1.397   .     A
C1935  C1949   1.422   .     A
C1935  C1946   1.401   .     A
C1935  C1988   1.486   .     S
C1936  C1949   1.402   .     A
C1936  C1942   1.405   .     A
C1936  C1989   1.492   .     S
C1937  C1990   1.491   .     S
C1937  C1950   1.417   .     A
C1937  C1944   1.410   .     A
C1938  C1952   1.415   .     A
C1938  C1991   1.498   .     S
C1939  C1951   1.411   .     A
C1939  C1992   1.493   .     S
C1940  C1951   1.414   .     A
C1940  C1993   1.485   .     S
C1941  C1952   1.409   .     A
C1941  C1994   1.497   .     S
C1942  C1955   1.421   .     A
C1942  C1995   1.497   .     S
C1943  O2111   1.303   .     A
C1943  O2108   1.312   .     A
C1943  C1948   1.454   .     S
C1944  C1996   1.489   .     S
C1944  C1953   1.411   .     A
C1945  C1997   1.472   .     S
C1945  C1953   1.412   .     A
C1946  C1999   1.495   .     S
C1946  C1955   1.409   .     A
C1947  C1954   1.479   .     S
C1951  C1998   1.453   .     S
C1952  C1987   1.476   .     S
C1953  C1976   1.460   .     S
C1954  O2110   1.327   .     A
C1954  O2109   1.304   .     A
C1955  C1965   1.477   .     S
C1956  C1957   1.542   .     S
C1956  H2071   1.084   .     S
C1956  C2192   1.511   .     S
C1956  H2252   1.105   .     S
C1957  C1958   1.523   .     S
C1957  H2049   1.112   .     S
C1958  H2027   1.110   .     S
C1958  H2005   1.105   .     S
C1958  H2016   1.111   .     S
C1959  H2010   1.103   .     S
C1959  C1960   1.541   .     S
C1959  H2009   1.095   .     S
C1960  C1961   1.524   .     S
C1960  H2199   1.101   .     S
C1960  H2200   1.102   .     S
C1961  H2076   1.110   .     S
C1961  H2006   1.111   .     S
C1961  H2075   1.102   .     S
C1962  H2018   1.103   .     S
C1962  H2017   1.095   .     S
C1962  C1963   1.538   .     S
C1963  C1964   1.523   .     S
C1963  H2206   1.103   1_455 S
C1963  H2207   1.102   1_455 S
C1964  H2013   1.111   .     S
C1964  H2011   1.104   .     S
C1964  H2012   1.111   .     S
C1965  O2084   1.327   .     A
C1965  O2112   1.303   .     A
C1966  H2025   1.114   .     S
C1966  H2024   1.103   .     S
C1966  C1967   1.547   .     S
C1967  H2022   1.103   .     S
C1967  C1968   1.527   .     S
C1967  H2023   1.100   .     S
C1968  H2021   1.111   .     S
C1968  H2019   1.107   .     S
C1968  H2020   1.111   .     S
C1969  H2033   1.086   .     S
C1969  H2032   1.091   .     S
C1969  C1970   1.546   .     S
C1970  H2031   1.097   .     S
C1970  H2030   1.099   .     S
C1970  C1971   1.531   .     S
C1971  H2028   1.112   .     S
C1971  H2029   1.111   .     S
C1971  H2026   1.111   .     S
C1972  H2041   1.102   .     S
C1972  H2040   1.088   .     S
C1972  C1973   1.541   .     S
C1973  C1974   1.527   .     S
C1973  H2037   1.111   .     S
C1973  H2039   1.108   .     S
C1974  H2036   1.110   .     S
C1974  H2035   1.111   .     S
C1974  H2034   1.109   .     S
C1975  H2047   1.079   .     S
C1975  C1977   1.542   .     S
C1975  H2048   1.106   .     S
C1976  O2083   1.306   .     A
C1976  O2082   1.313   .     A
C1977  H2045   1.110   .     S
C1977  H2046   1.109   .     S
C1977  C1978   1.526   .     S
C1978  H2043   1.111   .     S
C1978  H2042   1.108   .     S
C1978  H2044   1.111   .     S
C1979  H2056   1.098   .     S
C1979  H2055   1.070   .     S
C1979  C1980   1.533   .     S
C1980  C1981   1.529   .     S
C1980  H2054   1.104   .     S
C1980  H2053   1.098   .     S
C1981  H2052   1.109   .     S
C1981  H2050   1.110   .     S
C1981  H2051   1.111   .     S
C1982  H2057   1.080   .     S
C1982  O2089   1.221   .     D
C1983  H2058   1.079   .     S
C1983  O2090   1.221   .     D
C1984  O2091   1.221   .     D
C1984  H2059   1.084   .     S
C1985  H2061   1.078   .     S
C1985  O2093   1.221   .     D
C1986  H2062   1.081   .     S
C1986  O2094   1.220   .     D
C1987  O2088   1.323   .     A
C1987  O2085   1.306   .     A
C1988  H2063   1.077   .     S
C1988  O2095   1.220   .     D
C1989  H2064   1.084   .     S
C1989  O2096   1.221   .     D
C1990  H2065   1.079   .     S
C1990  O2097   1.221   .     D
C1991  O2098   1.221   .     D
C1991  H2066   1.080   .     S
C1992  H2067   1.082   .     S
C1992  O2099   1.221   .     D
C1993  O2100   1.218   .     D
C1993  H2068   1.085   .     S
C1994  O2101   1.221   .     D
C1994  H2069   1.082   .     S
C1995  H2070   1.081   .     S
C1995  O2102   1.221   .     D
C1996  H2072   1.081   .     S
C1996  O2104   1.221   .     D
C1997  O2105   1.220   .     D
C1997  H2073   1.079   .     S
C1998  O2086   1.307   .     A
C1998  O2087   1.307   .     A
C1999  O2106   1.220   .     D
C1999  H2074   1.082   .     S
C2000  N2078   1.382   .     A
C2000  C2148   1.511   1_455 S
Cu2001 Cu2002  2.738   .     S
Cu2001 O2109   1.966   .     S
Cu2001 O2081   1.964   .     S
Cu2001 N2077   2.058   .     S
Cu2001 O2295   1.961   1_455 S
Cu2001 O2303   1.958   1_455 S
Cu2002 N2078   2.058   .     S
Cu2002 O2110   1.958   .     S
Cu2002 O2107   1.961   .     S
Cu2002 O2284   1.964   1_455 S
Cu2002 O2300   1.966   1_455 S
Cu2003 Cu2004  2.738   .     S
Cu2003 O2086   1.966   .     S
Cu2003 O2083   1.961   .     S
Cu2003 N2079   2.058   .     S
Cu2004 N2080   2.058   .     S
Cu2004 O2082   1.964   .     S
Cu2004 O2087   1.958   .     S
H2007  C2152   1.101   1_455 S
H2008  C2152   1.102   1_455 S
H2014  C2155   1.103   .     S
H2015  C2155   1.102   .     S
H2038  C421    1.109   1_556 S
H2060  C2148   1.105   1_455 S
N2077  C2114   1.397   1_455 S
O2084  Cu1620  1.961   1_565 S
O2085  Cu1620  1.966   1_565 S
O2088  Cu1619  1.958   1_565 S
O2092  Cu2194  1.964   .     S
O2103  Cu2193  1.961   .     S
O2108  Cu2194  1.966   .     S
O2111  Cu2193  1.958   .     S
O2112  Cu1619  1.964   1_565 S
C2113  O2273   1.312   .     A
C2113  O2299   1.301   .     A
C2113  C2142   1.448   .     S
C2114  C2151   1.525   .     S
C2114  C387    1.430   1_656 S
C2114  N2077   1.397   1_655 S
C2115  N2270   1.385   .     A
C2115  C2154   1.526   .     S
C2116  C2158   1.528   .     S
C2116  N2269   1.389   .     A
C2116  C656    1.434   1_556 S
C2117  C2161   1.545   .     S
C2117  N1888   1.405   1_565 S
C2118  N2271   1.382   .     A
C2118  C2164   1.520   .     S
C2118  C583    1.437   1_556 S
C2119  C2167   1.519   .     S
C2119  N2272   1.383   .     A
C2120  C2171   1.544   .     S
C2120  C581    1.450   1_556 S
C2120  N1887   1.388   1_565 S
C2121  C2174   1.493   .     S
C2121  C2132   1.403   .     A
C2121  C2140   1.410   .     A
C2122  C2139   1.425   .     A
C2122  C2175   1.486   .     S
C2122  C2133   1.404   .     A
C2123  C2130   1.403   .     A
C2123  C2176   1.495   .     S
C2123  C2139   1.407   .     A
C2124  C2141   1.480   .     S
C2124  O2284   1.301   .     A
C2124  O2295   1.331   .     A
C2125  C2177   1.492   .     S
C2125  C2131   1.407   .     A
C2125  C2140   1.416   .     A
C2126  C2142   1.405   .     A
C2126  C2178   1.493   .     S
C2126  C2137   1.397   .     A
C2127  C2141   1.422   .     A
C2127  C2138   1.401   .     A
C2127  C2180   1.486   .     S
C2128  C2141   1.402   .     A
C2128  C2134   1.405   .     A
C2128  C2181   1.492   .     S
C2129  C2182   1.491   .     S
C2129  C2142   1.417   .     A
C2129  C2136   1.410   .     A
C2130  C2144   1.415   .     A
C2130  C2183   1.498   .     S
C2131  C2143   1.411   .     A
C2131  C2184   1.493   .     S
C2132  C2143   1.414   .     A
C2132  C2185   1.485   .     S
C2133  C2144   1.409   .     A
C2133  C2186   1.497   .     S
C2134  C2147   1.421   .     A
C2134  C2187   1.497   .     S
C2135  O2303   1.303   .     A
C2135  O2300   1.312   .     A
C2135  C2140   1.454   .     S
C2136  C2188   1.489   .     S
C2136  C2145   1.411   .     A
C2137  C2189   1.472   .     S
C2137  C2145   1.412   .     A
C2138  C2191   1.495   .     S
C2138  C2147   1.409   .     A
C2139  C2146   1.479   .     S
C2143  C2190   1.453   .     S
C2144  C2179   1.476   .     S
C2145  C2168   1.460   .     S
C2146  O2302   1.327   .     A
C2146  O2301   1.304   .     A
C2147  C2157   1.477   .     S
C2148  C2149   1.542   .     S
C2148  H2263   1.084   .     S
C2148  C2000   1.511   1_655 S
C2148  H2060   1.105   1_655 S
C2149  C2150   1.523   .     S
C2149  H2241   1.112   .     S
C2150  H2219   1.110   .     S
C2150  H2197   1.105   .     S
C2150  H2208   1.111   .     S
C2151  H2202   1.103   .     S
C2151  C2152   1.541   .     S
C2151  H2201   1.095   .     S
C2152  C2153   1.524   .     S
C2152  H2007   1.101   1_655 S
C2152  H2008   1.102   1_655 S
C2153  H2268   1.110   .     S
C2153  H2198   1.111   .     S
C2153  H2267   1.102   .     S
C2154  H2210   1.103   .     S
C2154  H2209   1.095   .     S
C2154  C2155   1.538   .     S
C2155  C2156   1.523   .     S
C2156  H2205   1.111   .     S
C2156  H2203   1.104   .     S
C2156  H2204   1.111   .     S
C2157  O2276   1.327   .     A
C2157  O2304   1.303   .     A
C2158  H2217   1.114   .     S
C2158  H2216   1.103   .     S
C2158  C2159   1.547   .     S
C2159  H2214   1.103   .     S
C2159  C2160   1.527   .     S
C2159  H2215   1.100   .     S
C2160  H2213   1.111   .     S
C2160  H2211   1.107   .     S
C2160  H2212   1.111   .     S
C2161  H2225   1.086   .     S
C2161  H2224   1.091   .     S
C2161  C2162   1.546   .     S
C2162  H2223   1.097   .     S
C2162  H2222   1.099   .     S
C2162  C2163   1.531   .     S
C2163  H2220   1.112   .     S
C2163  H2221   1.111   .     S
C2163  H2218   1.111   .     S
C2164  H2233   1.102   .     S
C2164  H2232   1.088   .     S
C2164  C2165   1.541   .     S
C2165  C2166   1.527   .     S
C2165  H2229   1.111   .     S
C2165  H2231   1.108   .     S
C2166  H2228   1.110   .     S
C2166  H2227   1.111   .     S
C2166  H2226   1.109   .     S
C2167  H2239   1.079   .     S
C2167  C2169   1.542   .     S
C2167  H2240   1.106   .     S
C2168  O2275   1.306   .     A
C2168  O2274   1.313   .     A
C2169  H2237   1.110   .     S
C2169  H2238   1.109   .     S
C2169  C2170   1.526   .     S
C2170  H2235   1.111   .     S
C2170  H2234   1.108   .     S
C2170  H2236   1.111   .     S
C2171  H2248   1.098   .     S
C2171  H2247   1.070   .     S
C2171  C2172   1.533   .     S
C2172  C2173   1.529   .     S
C2172  H2246   1.104   .     S
C2172  H2245   1.098   .     S
C2173  H2244   1.109   .     S
C2173  H2242   1.110   .     S
C2173  H2243   1.111   .     S
C2174  H2249   1.080   .     S
C2174  O2281   1.221   .     D
C2175  H2250   1.079   .     S
C2175  O2282   1.221   .     D
C2176  O2283   1.221   .     D
C2176  H2251   1.084   .     S
C2177  H2253   1.078   .     S
C2177  O2285   1.221   .     D
C2178  H2254   1.081   .     S
C2178  O2286   1.220   .     D
C2179  O2280   1.323   .     A
C2179  O2277   1.306   .     A
C2180  H2255   1.077   .     S
C2180  O2287   1.220   .     D
C2181  H2256   1.084   .     S
C2181  O2288   1.221   .     D
C2182  H2257   1.079   .     S
C2182  O2289   1.221   .     D
C2183  O2290   1.221   .     D
C2183  H2258   1.080   .     S
C2184  H2259   1.082   .     S
C2184  O2291   1.221   .     D
C2185  O2292   1.218   .     D
C2185  H2260   1.085   .     S
C2186  O2293   1.221   .     D
C2186  H2261   1.082   .     S
C2187  H2262   1.081   .     S
C2187  O2294   1.221   .     D
C2188  H2264   1.081   .     S
C2188  O2296   1.221   .     D
C2189  O2297   1.220   .     D
C2189  H2265   1.079   .     S
C2190  O2278   1.307   .     A
C2190  O2279   1.307   .     A
C2191  O2298   1.220   .     D
C2191  H2266   1.082   .     S
C2192  N2270   1.382   .     A
Cu2193 Cu2194  2.738   .     S
Cu2193 O2301   1.966   .     S
Cu2193 O2273   1.964   .     S
Cu2193 N2269   2.058   .     S
Cu2194 N2270   2.058   .     S
Cu2194 O2302   1.958   .     S
Cu2194 O2299   1.961   .     S
Cu2195 Cu2196  2.738   .     S
Cu2195 O2278   1.966   .     S
Cu2195 O2275   1.961   .     S
Cu2195 N2271   2.058   .     S
Cu2196 N2272   2.058   .     S
Cu2196 O2274   1.964   .     S
Cu2196 O2279   1.958   .     S
H2206  C1963   1.103   1_655 S
H2207  C1963   1.102   1_655 S
H2230  C613    1.109   1_556 S
O2276  Cu1812  1.961   1_565 S
O2277  Cu1812  1.966   1_565 S
O2280  Cu1811  1.958   1_565 S
O2284  Cu2002  1.964   1_655 S
O2295  Cu2001  1.961   1_655 S
O2300  Cu2002  1.966   1_655 S
O2303  Cu2001  1.958   1_655 S
O2304  Cu1811  1.964   1_565 S
