data_str_m1_o1_o17_pcu_sym.23
_audit_creation_date              2020-01-03
_audit_creation_method            'Materials Studio'
_symmetry_space_group_name_H-M    'P1'
_symmetry_Int_Tables_number       1
_symmetry_cell_setting            triclinic
loop_
_symmetry_equiv_pos_as_xyz
  x,y,z
_cell_length_a                    36.5495
_cell_length_b                    36.5211
_cell_length_c                    34.4608
_cell_angle_alpha                 89.9801
_cell_angle_beta                  90.0302
_cell_angle_gamma                 89.9916
loop_
_atom_site_label
_atom_site_type_symbol
_atom_site_fract_x
_atom_site_fract_y
_atom_site_fract_z
_atom_site_U_iso_or_equiv
_atom_site_adp_type
_atom_site_occupancy
Zn1    Zn    0.20660  -0.00000   0.21735   0.00000  Uiso   1.00
Zn2    Zn    0.29341  -0.00000   0.78265   0.00000  Uiso   1.00
Zn3    Zn    0.00000   0.20659   0.21735   0.00000  Uiso   1.00
Zn4    Zn    0.00000   0.29340   0.78265   0.00000  Uiso   1.00
Zn5    Zn    0.29341  -0.00000   0.21735   0.00000  Uiso   1.00
Zn6    Zn    0.20660  -0.00000   0.78265   0.00000  Uiso   1.00
Zn7    Zn    0.00000   0.29341   0.21735   0.00000  Uiso   1.00
Zn8    Zn    0.00000   0.20659   0.78265   0.00000  Uiso   1.00
Zn9    Zn    0.45660   0.25000   0.71735   0.00000  Uiso   1.00
Zn10   Zn    0.04341   0.25000   0.28265   0.00000  Uiso   1.00
Zn11   Zn    0.25000   0.45659   0.71735   0.00000  Uiso   1.00
Zn12   Zn    0.25000   0.04340   0.28265   0.00000  Uiso   1.00
Zn13   Zn    0.04341   0.25000   0.71735   0.00000  Uiso   1.00
Zn14   Zn    0.45660   0.25000   0.28265   0.00000  Uiso   1.00
Zn15   Zn    0.25000   0.04340   0.71735   0.00000  Uiso   1.00
Zn16   Zn    0.25000   0.45659   0.28265   0.00000  Uiso   1.00
C17    C     0.00859   0.28265   0.41788   0.00000  Uiso   1.00
C18    C     0.49142   0.21733   0.58213   0.00000  Uiso   1.00
C19    C     0.21720   0.49203   0.41786   0.00000  Uiso   1.00
C20    C     0.28278   0.00799   0.58213   0.00000  Uiso   1.00
C21    C     0.49136   0.21735   0.41790   0.00000  Uiso   1.00
C22    C     0.00867   0.28263   0.58211   0.00000  Uiso   1.00
C23    C     0.28281   0.00785   0.41789   0.00000  Uiso   1.00
C24    C     0.21717   0.49218   0.58211   0.00000  Uiso   1.00
C25    C     0.25878   0.03260   0.91788   0.00000  Uiso   1.00
C26    C     0.24124   0.46739   0.08212   0.00000  Uiso   1.00
C27    C     0.46703   0.24278   0.91786   0.00000  Uiso   1.00
C28    C     0.03297   0.25722   0.08214   0.00000  Uiso   1.00
C29    C     0.24116   0.46740   0.91790   0.00000  Uiso   1.00
C30    C     0.25883   0.03259   0.08210   0.00000  Uiso   1.00
C31    C     0.03299   0.25706   0.91788   0.00000  Uiso   1.00
C32    C     0.46700   0.24293   0.08212   0.00000  Uiso   1.00
C33    C     0.00000   0.25000   0.39787   0.00000  Uiso   1.00
C34    C     0.00000   0.24999   0.60214   0.00000  Uiso   1.00
C35    C     0.25000   0.49996   0.39786   0.00000  Uiso   1.00
C36    C     0.24999   0.00005   0.60213   0.00000  Uiso   1.00
C37    C     0.25000  -0.00000   0.89786   0.00000  Uiso   1.00
C38    C     0.25000  -0.00000   0.10213   0.00000  Uiso   1.00
C39    C     0.00000   0.24995   0.89786   0.00000  Uiso   1.00
C40    C     0.49999   0.25004   0.10214   0.00000  Uiso   1.00
O41    O     0.25000  -0.00000   0.25000   0.00000  Uiso   1.00
O42    O     0.25000  -0.00000   0.75000   0.00000  Uiso   1.00
O43    O     0.00000   0.25000   0.25000   0.00000  Uiso   1.00
O44    O     0.00000   0.25000   0.75000   0.00000  Uiso   1.00
O45    O     0.25000   0.46963   0.33755   0.00000  Uiso   1.00
O46    O     0.25000   0.03036   0.66245   0.00000  Uiso   1.00
O47    O     0.03037   0.25000   0.33755   0.00000  Uiso   1.00
O48    O     0.46964   0.25000   0.66245   0.00000  Uiso   1.00
O49    O     0.25000   0.03036   0.33755   0.00000  Uiso   1.00
O50    O     0.25000   0.46963   0.66245   0.00000  Uiso   1.00
O51    O     0.46964   0.25000   0.33755   0.00000  Uiso   1.00
O52    O     0.03037   0.25000   0.66245   0.00000  Uiso   1.00
O53    O     0.00000   0.21963   0.83755   0.00000  Uiso   1.00
O54    O     0.00000   0.28036   0.16245   0.00000  Uiso   1.00
O55    O     0.28037  -0.00000   0.83755   0.00000  Uiso   1.00
O56    O     0.21964  -0.00000   0.16245   0.00000  Uiso   1.00
O57    O     0.00000   0.28036   0.83755   0.00000  Uiso   1.00
O58    O     0.00000   0.21963   0.16245   0.00000  Uiso   1.00
O59    O     0.21964  -0.00000   0.83755   0.00000  Uiso   1.00
O60    O     0.28037  -0.00000   0.16245   0.00000  Uiso   1.00
H61    H     0.47397   0.16071   0.46584   0.00000  Uiso   1.00
H62    H     0.02609   0.33926   0.53417   0.00000  Uiso   1.00
H63    H     0.33983   0.02382   0.46584   0.00000  Uiso   1.00
H64    H     0.16014   0.47624   0.53416   0.00000  Uiso   1.00
H65    H     0.02605   0.33927   0.46579   0.00000  Uiso   1.00
H66    H     0.47402   0.16069   0.53422   0.00000  Uiso   1.00
H67    H     0.16016   0.47617   0.46578   0.00000  Uiso   1.00
H68    H     0.33981   0.02390   0.53422   0.00000  Uiso   1.00
H69    H     0.22336   0.41089   0.96584   0.00000  Uiso   1.00
H70    H     0.27665   0.08910   0.03416   0.00000  Uiso   1.00
H71    H     0.09047   0.27130   0.96584   0.00000  Uiso   1.00
H72    H     0.40953   0.22870   0.03416   0.00000  Uiso   1.00
H73    H     0.27662   0.08910   0.96578   0.00000  Uiso   1.00
H74    H     0.22340   0.41088   0.03422   0.00000  Uiso   1.00
H75    H     0.40954   0.22863   0.96578   0.00000  Uiso   1.00
H76    H     0.09045   0.27138   0.03422   0.00000  Uiso   1.00
O77    O     0.20725   0.07307   0.27302   0.00000  Uiso   1.00
O78    O     0.29276   0.42692   0.72698   0.00000  Uiso   1.00
O79    O     0.42693   0.20724   0.27302   0.00000  Uiso   1.00
O80    O     0.07308   0.29276   0.72698   0.00000  Uiso   1.00
O81    O     0.29276   0.42692   0.27302   0.00000  Uiso   1.00
O82    O     0.20725   0.07307   0.72698   0.00000  Uiso   1.00
O83    O     0.07308   0.29276   0.27302   0.00000  Uiso   1.00
O84    O     0.42693   0.20724   0.72698   0.00000  Uiso   1.00
O85    O     0.20725   0.42692   0.72698   0.00000  Uiso   1.00
O86    O     0.29276   0.07307   0.27302   0.00000  Uiso   1.00
O87    O     0.42693   0.29275   0.72698   0.00000  Uiso   1.00
O88    O     0.07308   0.20724   0.27302   0.00000  Uiso   1.00
O89    O     0.29276   0.07307   0.72698   0.00000  Uiso   1.00
O90    O     0.20725   0.42692   0.27302   0.00000  Uiso   1.00
O91    O     0.07308   0.20724   0.72698   0.00000  Uiso   1.00
O92    O     0.42693   0.29275   0.27302   0.00000  Uiso   1.00
O93    O     0.45725   0.32307   0.77302   0.00000  Uiso   1.00
O94    O     0.04276   0.17693   0.22698   0.00000  Uiso   1.00
O95    O     0.17693   0.45724   0.77302   0.00000  Uiso   1.00
O96    O     0.32308   0.04275   0.22698   0.00000  Uiso   1.00
O97    O     0.04276   0.17693   0.77302   0.00000  Uiso   1.00
O98    O     0.45725   0.32307   0.22698   0.00000  Uiso   1.00
O99    O     0.32308   0.04275   0.77302   0.00000  Uiso   1.00
O100   O     0.17693   0.45724   0.22698   0.00000  Uiso   1.00
O101   O     0.45725   0.17692   0.22698   0.00000  Uiso   1.00
O102   O     0.04276   0.32308   0.77302   0.00000  Uiso   1.00
O103   O     0.17693   0.04275   0.22698   0.00000  Uiso   1.00
O104   O     0.32308   0.45724   0.77302   0.00000  Uiso   1.00
O105   O     0.04276   0.32308   0.22698   0.00000  Uiso   1.00
O106   O     0.45725   0.17692   0.77302   0.00000  Uiso   1.00
O107   O     0.32308   0.45724   0.22698   0.00000  Uiso   1.00
O108   O     0.17693   0.04275   0.77302   0.00000  Uiso   1.00
C109   C     0.48154   0.18603   0.47995   0.00000  Uiso   1.00
C110   C     0.01851   0.31394   0.52006   0.00000  Uiso   1.00
C111   C     0.31434   0.01691   0.47995   0.00000  Uiso   1.00
C112   C     0.18564   0.48314   0.52005   0.00000  Uiso   1.00
C113   C     0.01849   0.31395   0.47991   0.00000  Uiso   1.00
C114   C     0.48157   0.18602   0.52009   0.00000  Uiso   1.00
C115   C     0.18564   0.48310   0.47990   0.00000  Uiso   1.00
C116   C     0.31433   0.01696   0.52009   0.00000  Uiso   1.00
C117   C     0.23110   0.43616   0.97995   0.00000  Uiso   1.00
C118   C     0.26891   0.06383   0.02005   0.00000  Uiso   1.00
C119   C     0.06478   0.26513   0.97995   0.00000  Uiso   1.00
C120   C     0.43521   0.23487   0.02005   0.00000  Uiso   1.00
C121   C     0.26889   0.06383   0.97991   0.00000  Uiso   1.00
C122   C     0.23113   0.43615   0.02009   0.00000  Uiso   1.00
C123   C     0.43522   0.23482   0.97990   0.00000  Uiso   1.00
C124   C     0.06478   0.26518   0.02009   0.00000  Uiso   1.00
C125   C     0.25000   0.49999   0.35570   0.00000  Uiso   1.00
C126   C     0.25000   0.00001   0.64430   0.00000  Uiso   1.00
C127   C     0.00000   0.25000   0.35570   0.00000  Uiso   1.00
C128   C    -0.00000   0.24999   0.64430   0.00000  Uiso   1.00
C129   C     0.49999   0.24999   0.85570   0.00000  Uiso   1.00
C130   C     0.00000   0.25001   0.14430   0.00000  Uiso   1.00
C131   C     0.25000   0.49999   0.85570   0.00000  Uiso   1.00
C132   C     0.25000   0.00000   0.14430   0.00000  Uiso   1.00
C133   C     0.18003   0.06995   0.25000   0.00000  Uiso   1.00
C134   C     0.31997   0.43005   0.75000   0.00000  Uiso   1.00
C135   C     0.43004   0.18004   0.24995   0.00000  Uiso   1.00
C136   C     0.06996   0.31996   0.75005   0.00000  Uiso   1.00
C137   C     0.31995   0.43003   0.25003   0.00000  Uiso   1.00
C138   C     0.18005   0.06997   0.74997   0.00000  Uiso   1.00
C139   C     0.06996   0.31997   0.24996   0.00000  Uiso   1.00
C140   C     0.43003   0.18003   0.75000   0.00000  Uiso   1.00
C141   C     0.18004   0.43004   0.74995   0.00000  Uiso   1.00
C142   C     0.31996   0.06996   0.25005   0.00000  Uiso   1.00
C143   C     0.43003   0.31995   0.75000   0.00000  Uiso   1.00
C144   C     0.06997   0.18005   0.25000   0.00000  Uiso   1.00
C145   C     0.31995   0.06997   0.75001   0.00000  Uiso   1.00
C146   C     0.18004   0.43003   0.25003   0.00000  Uiso   1.00
C147   C     0.06995   0.18003   0.75003   0.00000  Uiso   1.00
C148   C     0.43005   0.31997   0.24997   0.00000  Uiso   1.00
C149   C     0.15082   0.37624   0.21908   0.00000  Uiso   1.00
C150   C     0.34920   0.12356   0.78092   0.00000  Uiso   1.00
C151   C     0.09112   0.11816   0.26909   0.00000  Uiso   1.00
C152   C     0.40887   0.38183   0.73089   0.00000  Uiso   1.00
C153   C     0.37319   0.09934   0.28096   0.00000  Uiso   1.00
C154   C     0.12632   0.40116   0.71949   0.00000  Uiso   1.00
C155   C     0.37584   0.34834   0.21997   0.00000  Uiso   1.00
C156   C     0.09816   0.12525   0.72002   0.00000  Uiso   1.00
C157   C     0.12572   0.09823   0.72009   0.00000  Uiso   1.00
C158   C     0.34827   0.37536   0.21990   0.00000  Uiso   1.00
C159   C     0.09868   0.37423   0.71951   0.00000  Uiso   1.00
C160   C     0.40086   0.12623   0.28091   0.00000  Uiso   1.00
C161   C     0.38151   0.40906   0.73125   0.00000  Uiso   1.00
C162   C     0.11848   0.09093   0.26871   0.00000  Uiso   1.00
C163   C     0.37686   0.15047   0.78114   0.00000  Uiso   1.00
C164   C     0.12320   0.34929   0.21909   0.00000  Uiso   1.00
C165   C     0.40042   0.12684   0.71886   0.00000  Uiso   1.00
C166   C     0.09918   0.37375   0.28092   0.00000  Uiso   1.00
C167   C     0.34114   0.36817   0.76911   0.00000  Uiso   1.00
C168   C     0.15888   0.13184   0.23091   0.00000  Uiso   1.00
C169   C     0.12368   0.34883   0.78052   0.00000  Uiso   1.00
C170   C     0.37681   0.15067   0.21904   0.00000  Uiso   1.00
C171   C     0.15184   0.12475   0.77999   0.00000  Uiso   1.00
C172   C     0.37416   0.40166   0.28003   0.00000  Uiso   1.00
C173   C     0.40173   0.37463   0.28009   0.00000  Uiso   1.00
C174   C     0.12428   0.15177   0.77992   0.00000  Uiso   1.00
C175   C     0.34914   0.12377   0.21909   0.00000  Uiso   1.00
C176   C     0.15132   0.37577   0.78049   0.00000  Uiso   1.00
C177   C     0.13152   0.15907   0.23129   0.00000  Uiso   1.00
C178   C     0.36849   0.34095   0.76874   0.00000  Uiso   1.00
C179   C     0.12680   0.40070   0.28091   0.00000  Uiso   1.00
C180   C     0.37354   0.09916   0.71911   0.00000  Uiso   1.00
C181   C     0.49087   0.21762   0.45888   0.00000  Uiso   1.00
C182   C     0.00917   0.28236   0.54113   0.00000  Uiso   1.00
C183   C     0.28256   0.00834   0.45887   0.00000  Uiso   1.00
C184   C     0.21742   0.49170   0.54112   0.00000  Uiso   1.00
C185   C     0.00913   0.28237   0.45886   0.00000  Uiso   1.00
C186   C     0.49091   0.21761   0.54115   0.00000  Uiso   1.00
C187   C     0.21744   0.49162   0.45885   0.00000  Uiso   1.00
C188   C     0.28254   0.00843   0.54115   0.00000  Uiso   1.00
C189   C     0.24065   0.46768   0.95887   0.00000  Uiso   1.00
C190   C     0.25935   0.03231   0.04112   0.00000  Uiso   1.00
C191   C     0.03277   0.25747   0.95887   0.00000  Uiso   1.00
C192   C     0.46723   0.24253   0.04113   0.00000  Uiso   1.00
C193   C     0.25932   0.03231   0.95885   0.00000  Uiso   1.00
C194   C     0.24069   0.46768   0.04114   0.00000  Uiso   1.00
C195   C     0.46724   0.24244   0.95885   0.00000  Uiso   1.00
C196   C     0.03276   0.25755   0.04115   0.00000  Uiso   1.00
C197   C     0.09789   0.34825   0.25006   0.00000  Uiso   1.00
C198   C     0.40189   0.15189   0.75000   0.00000  Uiso   1.00
C199   C     0.15200   0.09814   0.24978   0.00000  Uiso   1.00
C200   C     0.34800   0.40186   0.75021   0.00000  Uiso   1.00
C201   C     0.40213   0.15173   0.25003   0.00000  Uiso   1.00
C202   C     0.09788   0.34826   0.74996   0.00000  Uiso   1.00
C203   C     0.34790   0.40176   0.24992   0.00000  Uiso   1.00
C204   C     0.15210   0.09823   0.75008   0.00000  Uiso   1.00
C205   C     0.09790   0.15177   0.74993   0.00000  Uiso   1.00
C206   C     0.40210   0.34823   0.25007   0.00000  Uiso   1.00
C207   C     0.15212   0.40174   0.75004   0.00000  Uiso   1.00
C208   C     0.34787   0.09828   0.24997   0.00000  Uiso   1.00
C209   C     0.40200   0.34814   0.74978   0.00000  Uiso   1.00
C210   C     0.09800   0.15186   0.25022   0.00000  Uiso   1.00
C211   C     0.34803   0.09803   0.75001   0.00000  Uiso   1.00
C212   C     0.15211   0.40174   0.24994   0.00000  Uiso   1.00
C213   C     0.00001   0.24999   0.47937   0.00000  Uiso   1.00
C214   C     0.00003   0.24999   0.52063   0.00000  Uiso   1.00
C215   C     0.24999   0.00000   0.47937   0.00000  Uiso   1.00
C216   C     0.24998   0.00004   0.52063   0.00000  Uiso   1.00
C217   C     0.25000  -0.00000   0.97937   0.00000  Uiso   1.00
C218   C     0.25001   0.49999   0.02063   0.00000  Uiso   1.00
C219   C     0.00000   0.24998   0.97937   0.00000  Uiso   1.00
C220   C     0.49999   0.25002   0.02063   0.00000  Uiso   1.00
C221   C     0.17901   0.37713   0.18664   0.00000  Uiso   1.00
H222   H     0.20014   0.39861   0.18993   0.00000  Uiso   1.00
H223   H     0.19395   0.35067   0.18567   0.00000  Uiso   1.00
H224   H     0.16516   0.38210   0.15844   0.00000  Uiso   1.00
C225   C     0.32092   0.12269   0.81329   0.00000  Uiso   1.00
H226   H     0.29956   0.10147   0.80979   0.00000  Uiso   1.00
H227   H     0.33466   0.11739   0.84148   0.00000  Uiso   1.00
H228   H     0.30625   0.14930   0.81445   0.00000  Uiso   1.00
C229   C     0.05517   0.11129   0.29007   0.00000  Uiso   1.00
H230   H     0.03582   0.13460   0.28930   0.00000  Uiso   1.00
H231   H     0.04091   0.08759   0.27671   0.00000  Uiso   1.00
H232   H     0.06058   0.10562   0.32120   0.00000  Uiso   1.00
C233   C     0.44481   0.38869   0.70988   0.00000  Uiso   1.00
H234   H     0.46417   0.36539   0.71068   0.00000  Uiso   1.00
H235   H     0.43939   0.39433   0.67874   0.00000  Uiso   1.00
H236   H     0.45907   0.41241   0.72321   0.00000  Uiso   1.00
C237   C     0.37010   0.07113   0.31335   0.00000  Uiso   1.00
H238   H     0.37210   0.04312   0.30098   0.00000  Uiso   1.00
H239   H     0.39130   0.07327   0.33611   0.00000  Uiso   1.00
H240   H     0.34329   0.07412   0.32813   0.00000  Uiso   1.00
C241   C     0.12891   0.42990   0.68757   0.00000  Uiso   1.00
H242   H     0.12702   0.45769   0.70048   0.00000  Uiso   1.00
H243   H     0.15553   0.42720   0.67234   0.00000  Uiso   1.00
H244   H     0.10739   0.42807   0.66511   0.00000  Uiso   1.00
C245   C     0.37783   0.31897   0.18867   0.00000  Uiso   1.00
H246   H     0.40425   0.32117   0.17296   0.00000  Uiso   1.00
H247   H     0.37597   0.29146   0.20226   0.00000  Uiso   1.00
H248   H     0.35598   0.32048   0.16654   0.00000  Uiso   1.00
C249   C     0.06903   0.12526   0.68848   0.00000  Uiso   1.00
H250   H     0.04828   0.14718   0.69143   0.00000  Uiso   1.00
H251   H     0.08211   0.12896   0.65968   0.00000  Uiso   1.00
H252   H     0.05380   0.09896   0.68913   0.00000  Uiso   1.00
C253   C     0.12758   0.06873   0.68892   0.00000  Uiso   1.00
H254   H     0.12575   0.04127   0.70264   0.00000  Uiso   1.00
H255   H     0.10566   0.07016   0.66686   0.00000  Uiso   1.00
H256   H     0.15396   0.07084   0.67310   0.00000  Uiso   1.00
C257   C     0.31925   0.37548   0.18826   0.00000  Uiso   1.00
H258   H     0.29848   0.39736   0.19122   0.00000  Uiso   1.00
H259   H     0.33243   0.37931   0.15952   0.00000  Uiso   1.00
H260   H     0.30404   0.34917   0.18872   0.00000  Uiso   1.00
C261   C     0.06995   0.37383   0.68757   0.00000  Uiso   1.00
H262   H     0.04888   0.35230   0.69087   0.00000  Uiso   1.00
H263   H     0.05502   0.40031   0.68729   0.00000  Uiso   1.00
H264   H     0.08333   0.36929   0.65905   0.00000  Uiso   1.00
C265   C     0.42917   0.12704   0.31326   0.00000  Uiso   1.00
H266   H     0.45041   0.14839   0.30985   0.00000  Uiso   1.00
H267   H     0.41544   0.13214   0.34149   0.00000  Uiso   1.00
H268   H     0.44397   0.10050   0.31428   0.00000  Uiso   1.00
C269   C     0.38695   0.44590   0.71135   0.00000  Uiso   1.00
H270   H     0.38503   0.46822   0.73311   0.00000  Uiso   1.00
H271   H     0.41355   0.44919   0.69652   0.00000  Uiso   1.00
H272   H     0.36534   0.44995   0.68907   0.00000  Uiso   1.00
C273   C     0.11302   0.05407   0.28856   0.00000  Uiso   1.00
H274   H     0.11493   0.03177   0.26677   0.00000  Uiso   1.00
H275   H     0.13461   0.04999   0.31084   0.00000  Uiso   1.00
H276   H     0.08642   0.05077   0.30338   0.00000  Uiso   1.00
C277   C     0.38010   0.17848   0.81368   0.00000  Uiso   1.00
H278   H     0.40702   0.17548   0.82825   0.00000  Uiso   1.00
H279   H     0.37792   0.20656   0.80150   0.00000  Uiso   1.00
H280   H     0.35907   0.17611   0.83658   0.00000  Uiso   1.00
C281   C     0.12019   0.32096   0.18681   0.00000  Uiso   1.00
H282   H     0.09338   0.32386   0.17196   0.00000  Uiso   1.00
H283   H     0.14141   0.32306   0.16409   0.00000  Uiso   1.00
H284   H     0.12223   0.29300   0.19932   0.00000  Uiso   1.00
C285   C     0.42829   0.13013   0.68622   0.00000  Uiso   1.00
H286   H     0.45639   0.12800   0.69830   0.00000  Uiso   1.00
H287   H     0.42588   0.10911   0.66331   0.00000  Uiso   1.00
H288   H     0.42520   0.15708   0.67169   0.00000  Uiso   1.00
C289   C     0.07099   0.37286   0.31335   0.00000  Uiso   1.00
H290   H     0.04986   0.35138   0.31007   0.00000  Uiso   1.00
H291   H     0.08484   0.36789   0.34155   0.00000  Uiso   1.00
H292   H     0.05606   0.39932   0.31433   0.00000  Uiso   1.00
C293   C     0.30519   0.36131   0.79011   0.00000  Uiso   1.00
H294   H     0.28583   0.38461   0.78932   0.00000  Uiso   1.00
H295   H     0.29093   0.33760   0.77678   0.00000  Uiso   1.00
H296   H     0.31061   0.35567   0.82125   0.00000  Uiso   1.00
C297   C     0.19483   0.13871   0.20993   0.00000  Uiso   1.00
H298   H     0.21419   0.11541   0.21071   0.00000  Uiso   1.00
H299   H     0.18942   0.14437   0.17879   0.00000  Uiso   1.00
H300   H     0.20909   0.16242   0.22329   0.00000  Uiso   1.00
C301   C     0.12111   0.32008   0.81242   0.00000  Uiso   1.00
H302   H     0.12302   0.29229   0.79949   0.00000  Uiso   1.00
H303   H     0.14262   0.32190   0.83488   0.00000  Uiso   1.00
H304   H     0.09449   0.32274   0.82765   0.00000  Uiso   1.00
C305   C     0.37989   0.17890   0.18666   0.00000  Uiso   1.00
H306   H     0.37787   0.20690   0.19904   0.00000  Uiso   1.00
H307   H     0.40670   0.17593   0.17188   0.00000  Uiso   1.00
H308   H     0.35869   0.17675   0.16390   0.00000  Uiso   1.00
C309   C     0.18096   0.12473   0.81153   0.00000  Uiso   1.00
H310   H     0.20170   0.10282   0.80858   0.00000  Uiso   1.00
H311   H     0.19619   0.15103   0.81089   0.00000  Uiso   1.00
H312   H     0.16787   0.12103   0.84033   0.00000  Uiso   1.00
C313   C     0.37218   0.43103   0.31132   0.00000  Uiso   1.00
H314   H     0.34576   0.42884   0.32703   0.00000  Uiso   1.00
H315   H     0.39403   0.42953   0.33345   0.00000  Uiso   1.00
H316   H     0.37404   0.45854   0.29772   0.00000  Uiso   1.00
C317   C     0.43075   0.37452   0.31174   0.00000  Uiso   1.00
H318   H     0.45152   0.35263   0.30878   0.00000  Uiso   1.00
H319   H     0.44596   0.40083   0.31128   0.00000  Uiso   1.00
H320   H     0.41756   0.37069   0.34048   0.00000  Uiso   1.00
C321   C     0.12241   0.18127   0.81109   0.00000  Uiso   1.00
H322   H     0.12424   0.20873   0.79737   0.00000  Uiso   1.00
H323   H     0.09604   0.17915   0.82690   0.00000  Uiso   1.00
H324   H     0.14433   0.17984   0.83315   0.00000  Uiso   1.00
C325   C     0.32083   0.12296   0.18673   0.00000  Uiso   1.00
H326   H     0.29959   0.10161   0.19015   0.00000  Uiso   1.00
H327   H     0.30603   0.14950   0.18572   0.00000  Uiso   1.00
H328   H     0.33456   0.11787   0.15851   0.00000  Uiso   1.00
C329   C     0.18005   0.37616   0.81243   0.00000  Uiso   1.00
H330   H     0.20112   0.39770   0.80913   0.00000  Uiso   1.00
H331   H     0.16668   0.38070   0.84095   0.00000  Uiso   1.00
H332   H     0.19499   0.34968   0.81271   0.00000  Uiso   1.00
C333   C     0.13697   0.19593   0.21142   0.00000  Uiso   1.00
H334   H     0.13506   0.21823   0.23321   0.00000  Uiso   1.00
H335   H     0.16358   0.19922   0.19660   0.00000  Uiso   1.00
H336   H     0.11538   0.20000   0.18914   0.00000  Uiso   1.00
C337   C     0.36305   0.30410   0.78864   0.00000  Uiso   1.00
H338   H     0.36496   0.28178   0.76687   0.00000  Uiso   1.00
H339   H     0.38466   0.30004   0.81091   0.00000  Uiso   1.00
H340   H     0.33646   0.30081   0.80347   0.00000  Uiso   1.00
C341   C     0.12983   0.42901   0.31320   0.00000  Uiso   1.00
H342   H     0.15663   0.42608   0.32804   0.00000  Uiso   1.00
H343   H     0.12781   0.45698   0.30071   0.00000  Uiso   1.00
H344   H     0.10860   0.42692   0.33591   0.00000  Uiso   1.00
C345   C     0.37271   0.07076   0.68682   0.00000  Uiso   1.00
H346   H     0.35158   0.04932   0.69041   0.00000  Uiso   1.00
H347   H     0.36733   0.08441   0.65860   0.00000  Uiso   1.00
H348   H     0.39933   0.05614   0.68567   0.00000  Uiso   1.00
C349   C     0.01655   0.31799   0.39589   0.00000  Uiso   1.00
H350   H     0.01353   0.31588   0.36401   0.00000  Uiso   1.00
H351   H     0.49718   0.33966   0.40530   0.00000  Uiso   1.00
H352   H     0.04506   0.32692   0.40176   0.00000  Uiso   1.00
C353   C     0.48344   0.18200   0.60412   0.00000  Uiso   1.00
H354   H     0.48636   0.18411   0.63601   0.00000  Uiso   1.00
H355   H     0.45496   0.17304   0.59817   0.00000  Uiso   1.00
H356   H     0.00285   0.16034   0.59477   0.00000  Uiso   1.00
C357   C     0.18179   0.48456   0.39586   0.00000  Uiso   1.00
H358   H     0.18403   0.48710   0.36394   0.00000  Uiso   1.00
H359   H     0.17227   0.45628   0.40207   0.00000  Uiso   1.00
H360   H     0.16052   0.00449   0.40495   0.00000  Uiso   1.00
C361   C     0.31819   0.01547   0.60413   0.00000  Uiso   1.00
H362   H     0.31595   0.01285   0.63604   0.00000  Uiso   1.00
H363   H     0.33948   0.49557   0.59500   0.00000  Uiso   1.00
H364   H     0.32768   0.04376   0.59798   0.00000  Uiso   1.00
C365   C     0.48326   0.18205   0.39593   0.00000  Uiso   1.00
H366   H     0.48617   0.18417   0.36404   0.00000  Uiso   1.00
H367   H     0.00260   0.16032   0.40529   0.00000  Uiso   1.00
H368   H     0.45475   0.17319   0.40186   0.00000  Uiso   1.00
C369   C     0.01679   0.31793   0.60408   0.00000  Uiso   1.00
H370   H     0.01389   0.31582   0.63596   0.00000  Uiso   1.00
H371   H     0.04530   0.32678   0.59813   0.00000  Uiso   1.00
H372   H     0.49745   0.33967   0.59472   0.00000  Uiso   1.00
C373   C     0.31826   0.01516   0.39591   0.00000  Uiso   1.00
H374   H     0.31603   0.01249   0.36400   0.00000  Uiso   1.00
H375   H     0.32784   0.04343   0.40199   0.00000  Uiso   1.00
H376   H     0.33948   0.49521   0.40514   0.00000  Uiso   1.00
C377   C     0.18173   0.48487   0.60409   0.00000  Uiso   1.00
H378   H     0.18396   0.48754   0.63600   0.00000  Uiso   1.00
H379   H     0.16051   0.00483   0.59486   0.00000  Uiso   1.00
H380   H     0.17214   0.45660   0.59800   0.00000  Uiso   1.00
C381   C     0.26691   0.06790   0.89589   0.00000  Uiso   1.00
H382   H     0.26383   0.06583   0.86402   0.00000  Uiso   1.00
H383   H     0.24769   0.08969   0.90533   0.00000  Uiso   1.00
H384   H     0.29548   0.07665   0.90172   0.00000  Uiso   1.00
C385   C     0.23312   0.43209   0.10411   0.00000  Uiso   1.00
H386   H     0.23621   0.43416   0.13598   0.00000  Uiso   1.00
H387   H     0.20455   0.42332   0.09829   0.00000  Uiso   1.00
H388   H     0.25235   0.41030   0.09466   0.00000  Uiso   1.00
C389   C     0.43149   0.23597   0.89584   0.00000  Uiso   1.00
H390   H     0.43385   0.23814   0.86390   0.00000  Uiso   1.00
H391   H     0.42128   0.20799   0.90230   0.00000  Uiso   1.00
H392   H     0.41068   0.25648   0.90469   0.00000  Uiso   1.00
C393   C     0.06851   0.26402   0.10416   0.00000  Uiso   1.00
H394   H     0.06614   0.26184   0.13610   0.00000  Uiso   1.00
H395   H     0.08932   0.24351   0.09529   0.00000  Uiso   1.00
H396   H     0.07872   0.29200   0.09771   0.00000  Uiso   1.00
C397   C     0.23287   0.43214   0.89593   0.00000  Uiso   1.00
H398   H     0.23583   0.43422   0.86405   0.00000  Uiso   1.00
H399   H     0.25206   0.41030   0.90533   0.00000  Uiso   1.00
H400   H     0.20429   0.42346   0.90183   0.00000  Uiso   1.00
C401   C     0.26708   0.06786   0.10406   0.00000  Uiso   1.00
H402   H     0.26407   0.06579   0.13594   0.00000  Uiso   1.00
H403   H     0.29566   0.07655   0.09820   0.00000  Uiso   1.00
H404   H     0.24789   0.08970   0.09463   0.00000  Uiso   1.00
C405   C     0.06856   0.26368   0.89589   0.00000  Uiso   1.00
H406   H     0.07886   0.29165   0.90221   0.00000  Uiso   1.00
H407   H     0.08931   0.24314   0.90489   0.00000  Uiso   1.00
H408   H     0.06621   0.26136   0.86396   0.00000  Uiso   1.00
C409   C     0.43144   0.23629   0.10411   0.00000  Uiso   1.00
H410   H     0.42115   0.20831   0.09777   0.00000  Uiso   1.00
H411   H     0.43379   0.23858   0.13604   0.00000  Uiso   1.00
H412   H     0.41069   0.25683   0.09513   0.00000  Uiso   1.00
Zn413  Zn    0.70660  -0.00000   0.21735   0.00000  Uiso   1.00
Zn414  Zn    0.79341  -0.00000   0.78265   0.00000  Uiso   1.00
Zn415  Zn    0.50000   0.20659   0.21735   0.00000  Uiso   1.00
Zn416  Zn    0.50000   0.29340   0.78265   0.00000  Uiso   1.00
Zn417  Zn    0.79341  -0.00000   0.21735   0.00000  Uiso   1.00
Zn418  Zn    0.70660  -0.00000   0.78265   0.00000  Uiso   1.00
Zn419  Zn    0.50000   0.29341   0.21735   0.00000  Uiso   1.00
Zn420  Zn    0.50000   0.20659   0.78265   0.00000  Uiso   1.00
Zn421  Zn    0.95660   0.25000   0.71735   0.00000  Uiso   1.00
Zn422  Zn    0.54341   0.25000   0.28265   0.00000  Uiso   1.00
Zn423  Zn    0.75000   0.45659   0.71735   0.00000  Uiso   1.00
Zn424  Zn    0.75000   0.04340   0.28265   0.00000  Uiso   1.00
Zn425  Zn    0.54341   0.25000   0.71735   0.00000  Uiso   1.00
Zn426  Zn    0.95660   0.25000   0.28265   0.00000  Uiso   1.00
Zn427  Zn    0.75000   0.04340   0.71735   0.00000  Uiso   1.00
Zn428  Zn    0.75000   0.45659   0.28265   0.00000  Uiso   1.00
C429   C     0.50859   0.28265   0.41788   0.00000  Uiso   1.00
C430   C     0.99142   0.21733   0.58213   0.00000  Uiso   1.00
C431   C     0.71720   0.49203   0.41786   0.00000  Uiso   1.00
C432   C     0.78278   0.00799   0.58213   0.00000  Uiso   1.00
C433   C     0.99136   0.21735   0.41790   0.00000  Uiso   1.00
C434   C     0.50867   0.28263   0.58211   0.00000  Uiso   1.00
C435   C     0.78281   0.00785   0.41789   0.00000  Uiso   1.00
C436   C     0.71717   0.49218   0.58211   0.00000  Uiso   1.00
C437   C     0.75878   0.03260   0.91788   0.00000  Uiso   1.00
C438   C     0.74124   0.46739   0.08212   0.00000  Uiso   1.00
C439   C     0.96703   0.24278   0.91786   0.00000  Uiso   1.00
C440   C     0.53297   0.25722   0.08214   0.00000  Uiso   1.00
C441   C     0.74116   0.46740   0.91790   0.00000  Uiso   1.00
C442   C     0.75883   0.03259   0.08210   0.00000  Uiso   1.00
C443   C     0.53299   0.25706   0.91788   0.00000  Uiso   1.00
C444   C     0.96700   0.24293   0.08212   0.00000  Uiso   1.00
C445   C     0.50000   0.25000   0.39787   0.00000  Uiso   1.00
C446   C     0.50000   0.24999   0.60214   0.00000  Uiso   1.00
C447   C     0.75000   0.49996   0.39786   0.00000  Uiso   1.00
C448   C     0.74999   0.00005   0.60213   0.00000  Uiso   1.00
C449   C     0.75000  -0.00000   0.89786   0.00000  Uiso   1.00
C450   C     0.75000  -0.00000   0.10213   0.00000  Uiso   1.00
C451   C     0.50000   0.24995   0.89786   0.00000  Uiso   1.00
C452   C     0.99999   0.25004   0.10214   0.00000  Uiso   1.00
O453   O     0.75000  -0.00000   0.25000   0.00000  Uiso   1.00
O454   O     0.75000  -0.00000   0.75000   0.00000  Uiso   1.00
O455   O     0.50000   0.25000   0.25000   0.00000  Uiso   1.00
O456   O     0.50000   0.25000   0.75000   0.00000  Uiso   1.00
O457   O     0.75000   0.46963   0.33755   0.00000  Uiso   1.00
O458   O     0.75000   0.03036   0.66245   0.00000  Uiso   1.00
O459   O     0.53037   0.25000   0.33755   0.00000  Uiso   1.00
O460   O     0.96964   0.25000   0.66245   0.00000  Uiso   1.00
O461   O     0.75000   0.03036   0.33755   0.00000  Uiso   1.00
O462   O     0.75000   0.46963   0.66245   0.00000  Uiso   1.00
O463   O     0.96964   0.25000   0.33755   0.00000  Uiso   1.00
O464   O     0.53037   0.25000   0.66245   0.00000  Uiso   1.00
O465   O     0.50000   0.21963   0.83755   0.00000  Uiso   1.00
O466   O     0.50000   0.28036   0.16245   0.00000  Uiso   1.00
O467   O     0.78037  -0.00000   0.83755   0.00000  Uiso   1.00
O468   O     0.71964  -0.00000   0.16245   0.00000  Uiso   1.00
O469   O     0.50000   0.28036   0.83755   0.00000  Uiso   1.00
O470   O     0.50000   0.21963   0.16245   0.00000  Uiso   1.00
O471   O     0.71964  -0.00000   0.83755   0.00000  Uiso   1.00
O472   O     0.78037  -0.00000   0.16245   0.00000  Uiso   1.00
H473   H     0.97397   0.16071   0.46584   0.00000  Uiso   1.00
H474   H     0.52609   0.33926   0.53417   0.00000  Uiso   1.00
H475   H     0.83983   0.02382   0.46584   0.00000  Uiso   1.00
H476   H     0.66014   0.47624   0.53416   0.00000  Uiso   1.00
H477   H     0.52605   0.33927   0.46579   0.00000  Uiso   1.00
H478   H     0.97402   0.16069   0.53422   0.00000  Uiso   1.00
H479   H     0.66016   0.47617   0.46578   0.00000  Uiso   1.00
H480   H     0.83981   0.02390   0.53422   0.00000  Uiso   1.00
H481   H     0.72336   0.41089   0.96584   0.00000  Uiso   1.00
H482   H     0.77665   0.08910   0.03416   0.00000  Uiso   1.00
H483   H     0.59047   0.27130   0.96584   0.00000  Uiso   1.00
H484   H     0.90953   0.22870   0.03416   0.00000  Uiso   1.00
H485   H     0.77662   0.08910   0.96578   0.00000  Uiso   1.00
H486   H     0.72340   0.41088   0.03422   0.00000  Uiso   1.00
H487   H     0.90954   0.22863   0.96578   0.00000  Uiso   1.00
H488   H     0.59045   0.27138   0.03422   0.00000  Uiso   1.00
O489   O     0.70725   0.07307   0.27302   0.00000  Uiso   1.00
O490   O     0.79276   0.42692   0.72698   0.00000  Uiso   1.00
O491   O     0.92693   0.20724   0.27302   0.00000  Uiso   1.00
O492   O     0.57308   0.29276   0.72698   0.00000  Uiso   1.00
O493   O     0.79276   0.42692   0.27302   0.00000  Uiso   1.00
O494   O     0.70725   0.07307   0.72698   0.00000  Uiso   1.00
O495   O     0.57308   0.29276   0.27302   0.00000  Uiso   1.00
O496   O     0.92693   0.20724   0.72698   0.00000  Uiso   1.00
O497   O     0.70725   0.42692   0.72698   0.00000  Uiso   1.00
O498   O     0.79276   0.07307   0.27302   0.00000  Uiso   1.00
O499   O     0.92693   0.29275   0.72698   0.00000  Uiso   1.00
O500   O     0.57308   0.20724   0.27302   0.00000  Uiso   1.00
O501   O     0.79276   0.07307   0.72698   0.00000  Uiso   1.00
O502   O     0.70725   0.42692   0.27302   0.00000  Uiso   1.00
O503   O     0.57308   0.20724   0.72698   0.00000  Uiso   1.00
O504   O     0.92693   0.29275   0.27302   0.00000  Uiso   1.00
O505   O     0.95725   0.32307   0.77302   0.00000  Uiso   1.00
O506   O     0.54276   0.17693   0.22698   0.00000  Uiso   1.00
O507   O     0.67693   0.45724   0.77302   0.00000  Uiso   1.00
O508   O     0.82308   0.04275   0.22698   0.00000  Uiso   1.00
O509   O     0.54276   0.17693   0.77302   0.00000  Uiso   1.00
O510   O     0.95725   0.32307   0.22698   0.00000  Uiso   1.00
O511   O     0.82308   0.04275   0.77302   0.00000  Uiso   1.00
O512   O     0.67693   0.45724   0.22698   0.00000  Uiso   1.00
O513   O     0.95725   0.17692   0.22698   0.00000  Uiso   1.00
O514   O     0.54276   0.32308   0.77302   0.00000  Uiso   1.00
O515   O     0.67693   0.04275   0.22698   0.00000  Uiso   1.00
O516   O     0.82308   0.45724   0.77302   0.00000  Uiso   1.00
O517   O     0.54276   0.32308   0.22698   0.00000  Uiso   1.00
O518   O     0.95725   0.17692   0.77302   0.00000  Uiso   1.00
O519   O     0.82308   0.45724   0.22698   0.00000  Uiso   1.00
O520   O     0.67693   0.04275   0.77302   0.00000  Uiso   1.00
C521   C     0.98154   0.18603   0.47995   0.00000  Uiso   1.00
C522   C     0.51851   0.31394   0.52006   0.00000  Uiso   1.00
C523   C     0.81434   0.01691   0.47995   0.00000  Uiso   1.00
C524   C     0.68564   0.48314   0.52005   0.00000  Uiso   1.00
C525   C     0.51849   0.31395   0.47991   0.00000  Uiso   1.00
C526   C     0.98157   0.18602   0.52009   0.00000  Uiso   1.00
C527   C     0.68564   0.48310   0.47990   0.00000  Uiso   1.00
C528   C     0.81433   0.01696   0.52009   0.00000  Uiso   1.00
C529   C     0.73110   0.43616   0.97995   0.00000  Uiso   1.00
C530   C     0.76891   0.06383   0.02005   0.00000  Uiso   1.00
C531   C     0.56478   0.26513   0.97995   0.00000  Uiso   1.00
C532   C     0.93521   0.23487   0.02005   0.00000  Uiso   1.00
C533   C     0.76889   0.06383   0.97991   0.00000  Uiso   1.00
C534   C     0.73113   0.43615   0.02009   0.00000  Uiso   1.00
C535   C     0.93522   0.23482   0.97990   0.00000  Uiso   1.00
C536   C     0.56478   0.26518   0.02009   0.00000  Uiso   1.00
C537   C     0.75000   0.49999   0.35570   0.00000  Uiso   1.00
C538   C     0.75000   0.00001   0.64430   0.00000  Uiso   1.00
C539   C     0.50000   0.25000   0.35570   0.00000  Uiso   1.00
C540   C     0.50000   0.24999   0.64430   0.00000  Uiso   1.00
C541   C     0.99999   0.24999   0.85570   0.00000  Uiso   1.00
C542   C     0.50000   0.25001   0.14430   0.00000  Uiso   1.00
C543   C     0.75000   0.49999   0.85570   0.00000  Uiso   1.00
C544   C     0.75000   0.00000   0.14430   0.00000  Uiso   1.00
C545   C     0.68003   0.06995   0.25000   0.00000  Uiso   1.00
C546   C     0.81997   0.43005   0.75000   0.00000  Uiso   1.00
C547   C     0.93004   0.18004   0.24995   0.00000  Uiso   1.00
C548   C     0.56996   0.31996   0.75005   0.00000  Uiso   1.00
C549   C     0.81995   0.43003   0.25003   0.00000  Uiso   1.00
C550   C     0.68005   0.06997   0.74997   0.00000  Uiso   1.00
C551   C     0.56996   0.31997   0.24996   0.00000  Uiso   1.00
C552   C     0.93003   0.18003   0.75000   0.00000  Uiso   1.00
C553   C     0.68004   0.43004   0.74995   0.00000  Uiso   1.00
C554   C     0.81996   0.06996   0.25005   0.00000  Uiso   1.00
C555   C     0.93003   0.31995   0.75000   0.00000  Uiso   1.00
C556   C     0.56997   0.18005   0.25000   0.00000  Uiso   1.00
C557   C     0.81995   0.06997   0.75001   0.00000  Uiso   1.00
C558   C     0.68004   0.43003   0.25003   0.00000  Uiso   1.00
C559   C     0.56995   0.18003   0.75003   0.00000  Uiso   1.00
C560   C     0.93005   0.31997   0.24997   0.00000  Uiso   1.00
C561   C     0.65082   0.37624   0.21908   0.00000  Uiso   1.00
C562   C     0.84920   0.12356   0.78092   0.00000  Uiso   1.00
C563   C     0.59112   0.11816   0.26909   0.00000  Uiso   1.00
C564   C     0.90887   0.38183   0.73089   0.00000  Uiso   1.00
C565   C     0.87319   0.09934   0.28096   0.00000  Uiso   1.00
C566   C     0.62632   0.40116   0.71949   0.00000  Uiso   1.00
C567   C     0.87584   0.34834   0.21997   0.00000  Uiso   1.00
C568   C     0.59816   0.12525   0.72002   0.00000  Uiso   1.00
C569   C     0.62572   0.09823   0.72009   0.00000  Uiso   1.00
C570   C     0.84827   0.37536   0.21990   0.00000  Uiso   1.00
C571   C     0.59868   0.37423   0.71951   0.00000  Uiso   1.00
C572   C     0.90086   0.12623   0.28091   0.00000  Uiso   1.00
C573   C     0.88151   0.40906   0.73125   0.00000  Uiso   1.00
C574   C     0.61848   0.09093   0.26871   0.00000  Uiso   1.00
C575   C     0.87686   0.15047   0.78114   0.00000  Uiso   1.00
C576   C     0.62320   0.34929   0.21909   0.00000  Uiso   1.00
C577   C     0.90042   0.12684   0.71886   0.00000  Uiso   1.00
C578   C     0.59918   0.37375   0.28092   0.00000  Uiso   1.00
C579   C     0.84114   0.36817   0.76911   0.00000  Uiso   1.00
C580   C     0.65888   0.13184   0.23091   0.00000  Uiso   1.00
C581   C     0.62368   0.34883   0.78052   0.00000  Uiso   1.00
C582   C     0.87681   0.15067   0.21904   0.00000  Uiso   1.00
C583   C     0.65184   0.12475   0.77999   0.00000  Uiso   1.00
C584   C     0.87416   0.40166   0.28003   0.00000  Uiso   1.00
C585   C     0.90173   0.37463   0.28009   0.00000  Uiso   1.00
C586   C     0.62428   0.15177   0.77992   0.00000  Uiso   1.00
C587   C     0.84914   0.12377   0.21909   0.00000  Uiso   1.00
C588   C     0.65132   0.37577   0.78049   0.00000  Uiso   1.00
C589   C     0.63152   0.15907   0.23129   0.00000  Uiso   1.00
C590   C     0.86849   0.34095   0.76874   0.00000  Uiso   1.00
C591   C     0.62680   0.40070   0.28091   0.00000  Uiso   1.00
C592   C     0.87354   0.09916   0.71911   0.00000  Uiso   1.00
C593   C     0.99087   0.21762   0.45888   0.00000  Uiso   1.00
C594   C     0.50917   0.28236   0.54113   0.00000  Uiso   1.00
C595   C     0.78256   0.00834   0.45887   0.00000  Uiso   1.00
C596   C     0.71742   0.49170   0.54112   0.00000  Uiso   1.00
C597   C     0.50913   0.28237   0.45886   0.00000  Uiso   1.00
C598   C     0.99091   0.21761   0.54115   0.00000  Uiso   1.00
C599   C     0.71744   0.49162   0.45885   0.00000  Uiso   1.00
C600   C     0.78254   0.00843   0.54115   0.00000  Uiso   1.00
C601   C     0.74065   0.46768   0.95887   0.00000  Uiso   1.00
C602   C     0.75935   0.03231   0.04112   0.00000  Uiso   1.00
C603   C     0.53277   0.25747   0.95887   0.00000  Uiso   1.00
C604   C     0.96723   0.24253   0.04113   0.00000  Uiso   1.00
C605   C     0.75932   0.03231   0.95885   0.00000  Uiso   1.00
C606   C     0.74069   0.46768   0.04114   0.00000  Uiso   1.00
C607   C     0.96724   0.24244   0.95885   0.00000  Uiso   1.00
C608   C     0.53276   0.25755   0.04115   0.00000  Uiso   1.00
C609   C     0.59789   0.34825   0.25006   0.00000  Uiso   1.00
C610   C     0.90189   0.15189   0.75000   0.00000  Uiso   1.00
C611   C     0.65200   0.09814   0.24978   0.00000  Uiso   1.00
C612   C     0.84800   0.40186   0.75021   0.00000  Uiso   1.00
C613   C     0.90213   0.15173   0.25003   0.00000  Uiso   1.00
C614   C     0.59788   0.34826   0.74996   0.00000  Uiso   1.00
C615   C     0.84790   0.40176   0.24992   0.00000  Uiso   1.00
C616   C     0.65210   0.09823   0.75008   0.00000  Uiso   1.00
C617   C     0.59790   0.15177   0.74993   0.00000  Uiso   1.00
C618   C     0.90210   0.34823   0.25007   0.00000  Uiso   1.00
C619   C     0.65212   0.40174   0.75004   0.00000  Uiso   1.00
C620   C     0.84787   0.09828   0.24997   0.00000  Uiso   1.00
C621   C     0.90200   0.34814   0.74978   0.00000  Uiso   1.00
C622   C     0.59800   0.15186   0.25022   0.00000  Uiso   1.00
C623   C     0.84803   0.09803   0.75001   0.00000  Uiso   1.00
C624   C     0.65211   0.40174   0.24994   0.00000  Uiso   1.00
C625   C     0.50001   0.24999   0.47937   0.00000  Uiso   1.00
C626   C     0.50003   0.24999   0.52063   0.00000  Uiso   1.00
C627   C     0.74999   0.00000   0.47937   0.00000  Uiso   1.00
C628   C     0.74998   0.00004   0.52063   0.00000  Uiso   1.00
C629   C     0.75000  -0.00000   0.97937   0.00000  Uiso   1.00
C630   C     0.75001   0.49999   0.02063   0.00000  Uiso   1.00
C631   C     0.50000   0.24998   0.97937   0.00000  Uiso   1.00
C632   C     0.99999   0.25002   0.02063   0.00000  Uiso   1.00
C633   C     0.67901   0.37713   0.18664   0.00000  Uiso   1.00
H634   H     0.70014   0.39861   0.18993   0.00000  Uiso   1.00
H635   H     0.69395   0.35067   0.18567   0.00000  Uiso   1.00
H636   H     0.66516   0.38210   0.15844   0.00000  Uiso   1.00
C637   C     0.82092   0.12269   0.81329   0.00000  Uiso   1.00
H638   H     0.79956   0.10147   0.80979   0.00000  Uiso   1.00
H639   H     0.83466   0.11739   0.84148   0.00000  Uiso   1.00
H640   H     0.80625   0.14930   0.81445   0.00000  Uiso   1.00
C641   C     0.55517   0.11129   0.29007   0.00000  Uiso   1.00
H642   H     0.53582   0.13460   0.28930   0.00000  Uiso   1.00
H643   H     0.54091   0.08759   0.27671   0.00000  Uiso   1.00
H644   H     0.56058   0.10562   0.32120   0.00000  Uiso   1.00
C645   C     0.94481   0.38869   0.70988   0.00000  Uiso   1.00
H646   H     0.96417   0.36539   0.71068   0.00000  Uiso   1.00
H647   H     0.93939   0.39433   0.67874   0.00000  Uiso   1.00
H648   H     0.95907   0.41241   0.72321   0.00000  Uiso   1.00
C649   C     0.87010   0.07113   0.31335   0.00000  Uiso   1.00
H650   H     0.87210   0.04312   0.30098   0.00000  Uiso   1.00
H651   H     0.89130   0.07327   0.33611   0.00000  Uiso   1.00
H652   H     0.84329   0.07412   0.32813   0.00000  Uiso   1.00
C653   C     0.62891   0.42990   0.68757   0.00000  Uiso   1.00
H654   H     0.62702   0.45769   0.70048   0.00000  Uiso   1.00
H655   H     0.65553   0.42720   0.67234   0.00000  Uiso   1.00
H656   H     0.60739   0.42807   0.66511   0.00000  Uiso   1.00
C657   C     0.87783   0.31897   0.18867   0.00000  Uiso   1.00
H658   H     0.90425   0.32117   0.17296   0.00000  Uiso   1.00
H659   H     0.87597   0.29146   0.20226   0.00000  Uiso   1.00
H660   H     0.85598   0.32048   0.16654   0.00000  Uiso   1.00
C661   C     0.56903   0.12526   0.68848   0.00000  Uiso   1.00
H662   H     0.54828   0.14718   0.69143   0.00000  Uiso   1.00
H663   H     0.58211   0.12896   0.65968   0.00000  Uiso   1.00
H664   H     0.55380   0.09896   0.68913   0.00000  Uiso   1.00
C665   C     0.62758   0.06873   0.68892   0.00000  Uiso   1.00
H666   H     0.62575   0.04127   0.70264   0.00000  Uiso   1.00
H667   H     0.60566   0.07016   0.66686   0.00000  Uiso   1.00
H668   H     0.65396   0.07084   0.67310   0.00000  Uiso   1.00
C669   C     0.81925   0.37548   0.18826   0.00000  Uiso   1.00
H670   H     0.79848   0.39736   0.19122   0.00000  Uiso   1.00
H671   H     0.83243   0.37931   0.15952   0.00000  Uiso   1.00
H672   H     0.80404   0.34917   0.18872   0.00000  Uiso   1.00
C673   C     0.56995   0.37383   0.68757   0.00000  Uiso   1.00
H674   H     0.54888   0.35230   0.69087   0.00000  Uiso   1.00
H675   H     0.55502   0.40031   0.68729   0.00000  Uiso   1.00
H676   H     0.58333   0.36929   0.65905   0.00000  Uiso   1.00
C677   C     0.92917   0.12704   0.31326   0.00000  Uiso   1.00
H678   H     0.95041   0.14839   0.30985   0.00000  Uiso   1.00
H679   H     0.91544   0.13214   0.34149   0.00000  Uiso   1.00
H680   H     0.94397   0.10050   0.31428   0.00000  Uiso   1.00
C681   C     0.88695   0.44590   0.71135   0.00000  Uiso   1.00
H682   H     0.88503   0.46822   0.73311   0.00000  Uiso   1.00
H683   H     0.91355   0.44919   0.69652   0.00000  Uiso   1.00
H684   H     0.86534   0.44995   0.68907   0.00000  Uiso   1.00
C685   C     0.61302   0.05407   0.28856   0.00000  Uiso   1.00
H686   H     0.61493   0.03177   0.26677   0.00000  Uiso   1.00
H687   H     0.63461   0.04999   0.31084   0.00000  Uiso   1.00
H688   H     0.58642   0.05077   0.30338   0.00000  Uiso   1.00
C689   C     0.88010   0.17848   0.81368   0.00000  Uiso   1.00
H690   H     0.90702   0.17548   0.82825   0.00000  Uiso   1.00
H691   H     0.87792   0.20656   0.80150   0.00000  Uiso   1.00
H692   H     0.85907   0.17611   0.83658   0.00000  Uiso   1.00
C693   C     0.62019   0.32096   0.18681   0.00000  Uiso   1.00
H694   H     0.59338   0.32386   0.17196   0.00000  Uiso   1.00
H695   H     0.64141   0.32306   0.16409   0.00000  Uiso   1.00
H696   H     0.62223   0.29300   0.19932   0.00000  Uiso   1.00
C697   C     0.92829   0.13013   0.68622   0.00000  Uiso   1.00
H698   H     0.95639   0.12800   0.69830   0.00000  Uiso   1.00
H699   H     0.92588   0.10911   0.66331   0.00000  Uiso   1.00
H700   H     0.92520   0.15708   0.67169   0.00000  Uiso   1.00
C701   C     0.57099   0.37286   0.31335   0.00000  Uiso   1.00
H702   H     0.54986   0.35138   0.31007   0.00000  Uiso   1.00
H703   H     0.58484   0.36789   0.34155   0.00000  Uiso   1.00
H704   H     0.55606   0.39932   0.31433   0.00000  Uiso   1.00
C705   C     0.80519   0.36131   0.79011   0.00000  Uiso   1.00
H706   H     0.78583   0.38461   0.78932   0.00000  Uiso   1.00
H707   H     0.79093   0.33760   0.77678   0.00000  Uiso   1.00
H708   H     0.81061   0.35567   0.82125   0.00000  Uiso   1.00
C709   C     0.69483   0.13871   0.20993   0.00000  Uiso   1.00
H710   H     0.71419   0.11541   0.21071   0.00000  Uiso   1.00
H711   H     0.68942   0.14437   0.17879   0.00000  Uiso   1.00
H712   H     0.70909   0.16242   0.22329   0.00000  Uiso   1.00
C713   C     0.62111   0.32008   0.81242   0.00000  Uiso   1.00
H714   H     0.62302   0.29229   0.79949   0.00000  Uiso   1.00
H715   H     0.64262   0.32190   0.83488   0.00000  Uiso   1.00
H716   H     0.59449   0.32274   0.82765   0.00000  Uiso   1.00
C717   C     0.87989   0.17890   0.18666   0.00000  Uiso   1.00
H718   H     0.87787   0.20690   0.19904   0.00000  Uiso   1.00
H719   H     0.90670   0.17593   0.17188   0.00000  Uiso   1.00
H720   H     0.85869   0.17675   0.16390   0.00000  Uiso   1.00
C721   C     0.68096   0.12473   0.81153   0.00000  Uiso   1.00
H722   H     0.70170   0.10282   0.80858   0.00000  Uiso   1.00
H723   H     0.69619   0.15103   0.81089   0.00000  Uiso   1.00
H724   H     0.66787   0.12103   0.84033   0.00000  Uiso   1.00
C725   C     0.87218   0.43103   0.31132   0.00000  Uiso   1.00
H726   H     0.84576   0.42884   0.32703   0.00000  Uiso   1.00
H727   H     0.89403   0.42953   0.33345   0.00000  Uiso   1.00
H728   H     0.87404   0.45854   0.29772   0.00000  Uiso   1.00
C729   C     0.93075   0.37452   0.31174   0.00000  Uiso   1.00
H730   H     0.95152   0.35263   0.30878   0.00000  Uiso   1.00
H731   H     0.94596   0.40083   0.31128   0.00000  Uiso   1.00
H732   H     0.91756   0.37069   0.34048   0.00000  Uiso   1.00
C733   C     0.62241   0.18127   0.81109   0.00000  Uiso   1.00
H734   H     0.62424   0.20873   0.79737   0.00000  Uiso   1.00
H735   H     0.59604   0.17915   0.82690   0.00000  Uiso   1.00
H736   H     0.64433   0.17984   0.83315   0.00000  Uiso   1.00
C737   C     0.82083   0.12296   0.18673   0.00000  Uiso   1.00
H738   H     0.79959   0.10161   0.19015   0.00000  Uiso   1.00
H739   H     0.80603   0.14950   0.18572   0.00000  Uiso   1.00
H740   H     0.83456   0.11787   0.15851   0.00000  Uiso   1.00
C741   C     0.68005   0.37616   0.81243   0.00000  Uiso   1.00
H742   H     0.70112   0.39770   0.80913   0.00000  Uiso   1.00
H743   H     0.66668   0.38070   0.84095   0.00000  Uiso   1.00
H744   H     0.69499   0.34968   0.81271   0.00000  Uiso   1.00
C745   C     0.63697   0.19593   0.21142   0.00000  Uiso   1.00
H746   H     0.63506   0.21823   0.23321   0.00000  Uiso   1.00
H747   H     0.66358   0.19922   0.19660   0.00000  Uiso   1.00
H748   H     0.61538   0.20000   0.18914   0.00000  Uiso   1.00
C749   C     0.86305   0.30410   0.78864   0.00000  Uiso   1.00
H750   H     0.86496   0.28178   0.76687   0.00000  Uiso   1.00
H751   H     0.88466   0.30004   0.81091   0.00000  Uiso   1.00
H752   H     0.83646   0.30081   0.80347   0.00000  Uiso   1.00
C753   C     0.62983   0.42901   0.31320   0.00000  Uiso   1.00
H754   H     0.65663   0.42608   0.32804   0.00000  Uiso   1.00
H755   H     0.62781   0.45698   0.30071   0.00000  Uiso   1.00
H756   H     0.60860   0.42692   0.33591   0.00000  Uiso   1.00
C757   C     0.87271   0.07076   0.68682   0.00000  Uiso   1.00
H758   H     0.85158   0.04932   0.69041   0.00000  Uiso   1.00
H759   H     0.86733   0.08441   0.65860   0.00000  Uiso   1.00
H760   H     0.89933   0.05614   0.68567   0.00000  Uiso   1.00
C761   C     0.51655   0.31799   0.39589   0.00000  Uiso   1.00
H762   H     0.51353   0.31588   0.36401   0.00000  Uiso   1.00
H763   H     0.99718   0.33966   0.40530   0.00000  Uiso   1.00
H764   H     0.54506   0.32692   0.40176   0.00000  Uiso   1.00
C765   C     0.98344   0.18200   0.60412   0.00000  Uiso   1.00
H766   H     0.98636   0.18411   0.63601   0.00000  Uiso   1.00
H767   H     0.95496   0.17304   0.59817   0.00000  Uiso   1.00
H768   H     0.50285   0.16034   0.59477   0.00000  Uiso   1.00
C769   C     0.68179   0.48456   0.39586   0.00000  Uiso   1.00
H770   H     0.68403   0.48710   0.36394   0.00000  Uiso   1.00
H771   H     0.67227   0.45628   0.40207   0.00000  Uiso   1.00
H772   H     0.66052   0.00449   0.40495   0.00000  Uiso   1.00
C773   C     0.81819   0.01547   0.60413   0.00000  Uiso   1.00
H774   H     0.81595   0.01285   0.63604   0.00000  Uiso   1.00
H775   H     0.83948   0.49557   0.59500   0.00000  Uiso   1.00
H776   H     0.82768   0.04376   0.59798   0.00000  Uiso   1.00
C777   C     0.98326   0.18205   0.39593   0.00000  Uiso   1.00
H778   H     0.98617   0.18417   0.36404   0.00000  Uiso   1.00
H779   H     0.50260   0.16032   0.40529   0.00000  Uiso   1.00
H780   H     0.95475   0.17319   0.40186   0.00000  Uiso   1.00
C781   C     0.51679   0.31793   0.60408   0.00000  Uiso   1.00
H782   H     0.51389   0.31582   0.63596   0.00000  Uiso   1.00
H783   H     0.54530   0.32678   0.59813   0.00000  Uiso   1.00
H784   H     0.99745   0.33967   0.59472   0.00000  Uiso   1.00
C785   C     0.81826   0.01516   0.39591   0.00000  Uiso   1.00
H786   H     0.81603   0.01249   0.36400   0.00000  Uiso   1.00
H787   H     0.82784   0.04343   0.40199   0.00000  Uiso   1.00
H788   H     0.83948   0.49521   0.40514   0.00000  Uiso   1.00
C789   C     0.68173   0.48487   0.60409   0.00000  Uiso   1.00
H790   H     0.68396   0.48754   0.63600   0.00000  Uiso   1.00
H791   H     0.66051   0.00483   0.59486   0.00000  Uiso   1.00
H792   H     0.67214   0.45660   0.59800   0.00000  Uiso   1.00
C793   C     0.76691   0.06790   0.89589   0.00000  Uiso   1.00
H794   H     0.76383   0.06583   0.86402   0.00000  Uiso   1.00
H795   H     0.74769   0.08969   0.90533   0.00000  Uiso   1.00
H796   H     0.79548   0.07665   0.90172   0.00000  Uiso   1.00
C797   C     0.73312   0.43209   0.10411   0.00000  Uiso   1.00
H798   H     0.73621   0.43416   0.13598   0.00000  Uiso   1.00
H799   H     0.70455   0.42332   0.09829   0.00000  Uiso   1.00
H800   H     0.75235   0.41030   0.09466   0.00000  Uiso   1.00
C801   C     0.93149   0.23597   0.89584   0.00000  Uiso   1.00
H802   H     0.93385   0.23814   0.86390   0.00000  Uiso   1.00
H803   H     0.92128   0.20799   0.90230   0.00000  Uiso   1.00
H804   H     0.91068   0.25648   0.90469   0.00000  Uiso   1.00
C805   C     0.56851   0.26402   0.10416   0.00000  Uiso   1.00
H806   H     0.56614   0.26184   0.13610   0.00000  Uiso   1.00
H807   H     0.58932   0.24351   0.09529   0.00000  Uiso   1.00
H808   H     0.57872   0.29200   0.09771   0.00000  Uiso   1.00
C809   C     0.73287   0.43214   0.89593   0.00000  Uiso   1.00
H810   H     0.73583   0.43422   0.86405   0.00000  Uiso   1.00
H811   H     0.75206   0.41030   0.90533   0.00000  Uiso   1.00
H812   H     0.70429   0.42346   0.90183   0.00000  Uiso   1.00
C813   C     0.76708   0.06786   0.10406   0.00000  Uiso   1.00
H814   H     0.76407   0.06579   0.13594   0.00000  Uiso   1.00
H815   H     0.79566   0.07655   0.09820   0.00000  Uiso   1.00
H816   H     0.74789   0.08970   0.09463   0.00000  Uiso   1.00
C817   C     0.56856   0.26368   0.89589   0.00000  Uiso   1.00
H818   H     0.57886   0.29165   0.90221   0.00000  Uiso   1.00
H819   H     0.58931   0.24314   0.90489   0.00000  Uiso   1.00
H820   H     0.56621   0.26136   0.86396   0.00000  Uiso   1.00
C821   C     0.93144   0.23629   0.10411   0.00000  Uiso   1.00
H822   H     0.92115   0.20831   0.09777   0.00000  Uiso   1.00
H823   H     0.93379   0.23858   0.13604   0.00000  Uiso   1.00
H824   H     0.91069   0.25683   0.09513   0.00000  Uiso   1.00
Zn825  Zn    0.20660   0.50000   0.21735   0.00000  Uiso   1.00
Zn826  Zn    0.29341   0.50000   0.78265   0.00000  Uiso   1.00
Zn827  Zn    0.00000   0.70659   0.21735   0.00000  Uiso   1.00
Zn828  Zn    0.00000   0.79340   0.78265   0.00000  Uiso   1.00
Zn829  Zn    0.29341   0.50000   0.21735   0.00000  Uiso   1.00
Zn830  Zn    0.20660   0.50000   0.78265   0.00000  Uiso   1.00
Zn831  Zn    0.00000   0.79341   0.21735   0.00000  Uiso   1.00
Zn832  Zn    0.00000   0.70659   0.78265   0.00000  Uiso   1.00
Zn833  Zn    0.45660   0.75000   0.71735   0.00000  Uiso   1.00
Zn834  Zn    0.04341   0.75000   0.28265   0.00000  Uiso   1.00
Zn835  Zn    0.25000   0.95659   0.71735   0.00000  Uiso   1.00
Zn836  Zn    0.25000   0.54340   0.28265   0.00000  Uiso   1.00
Zn837  Zn    0.04341   0.75000   0.71735   0.00000  Uiso   1.00
Zn838  Zn    0.45660   0.75000   0.28265   0.00000  Uiso   1.00
Zn839  Zn    0.25000   0.54340   0.71735   0.00000  Uiso   1.00
Zn840  Zn    0.25000   0.95659   0.28265   0.00000  Uiso   1.00
C841   C     0.00859   0.78265   0.41788   0.00000  Uiso   1.00
C842   C     0.49142   0.71733   0.58213   0.00000  Uiso   1.00
C843   C     0.21720   0.99203   0.41786   0.00000  Uiso   1.00
C844   C     0.28278   0.50799   0.58213   0.00000  Uiso   1.00
C845   C     0.49136   0.71735   0.41790   0.00000  Uiso   1.00
C846   C     0.00867   0.78263   0.58211   0.00000  Uiso   1.00
C847   C     0.28281   0.50785   0.41789   0.00000  Uiso   1.00
C848   C     0.21717   0.99218   0.58211   0.00000  Uiso   1.00
C849   C     0.25878   0.53260   0.91788   0.00000  Uiso   1.00
C850   C     0.24124   0.96739   0.08212   0.00000  Uiso   1.00
C851   C     0.46703   0.74278   0.91786   0.00000  Uiso   1.00
C852   C     0.03297   0.75722   0.08214   0.00000  Uiso   1.00
C853   C     0.24116   0.96740   0.91790   0.00000  Uiso   1.00
C854   C     0.25883   0.53259   0.08210   0.00000  Uiso   1.00
C855   C     0.03299   0.75706   0.91788   0.00000  Uiso   1.00
C856   C     0.46700   0.74293   0.08212   0.00000  Uiso   1.00
C857   C     0.00000   0.75000   0.39787   0.00000  Uiso   1.00
C858   C     0.00000   0.74999   0.60214   0.00000  Uiso   1.00
C859   C     0.25000   0.99996   0.39786   0.00000  Uiso   1.00
C860   C     0.24999   0.50005   0.60213   0.00000  Uiso   1.00
C861   C     0.25000   0.50000   0.89786   0.00000  Uiso   1.00
C862   C     0.25000   0.50000   0.10213   0.00000  Uiso   1.00
C863   C     0.00000   0.74995   0.89786   0.00000  Uiso   1.00
C864   C     0.49999   0.75004   0.10214   0.00000  Uiso   1.00
O865   O     0.25000   0.50000   0.25000   0.00000  Uiso   1.00
O866   O     0.25000   0.50000   0.75000   0.00000  Uiso   1.00
O867   O     0.00000   0.75000   0.25000   0.00000  Uiso   1.00
O868   O     0.00000   0.75000   0.75000   0.00000  Uiso   1.00
O869   O     0.25000   0.96963   0.33755   0.00000  Uiso   1.00
O870   O     0.25000   0.53036   0.66245   0.00000  Uiso   1.00
O871   O     0.03037   0.75000   0.33755   0.00000  Uiso   1.00
O872   O     0.46964   0.75000   0.66245   0.00000  Uiso   1.00
O873   O     0.25000   0.53036   0.33755   0.00000  Uiso   1.00
O874   O     0.25000   0.96963   0.66245   0.00000  Uiso   1.00
O875   O     0.46964   0.75000   0.33755   0.00000  Uiso   1.00
O876   O     0.03037   0.75000   0.66245   0.00000  Uiso   1.00
O877   O     0.00000   0.71963   0.83755   0.00000  Uiso   1.00
O878   O     0.00000   0.78036   0.16245   0.00000  Uiso   1.00
O879   O     0.28037   0.50000   0.83755   0.00000  Uiso   1.00
O880   O     0.21964   0.50000   0.16245   0.00000  Uiso   1.00
O881   O     0.00000   0.78036   0.83755   0.00000  Uiso   1.00
O882   O     0.00000   0.71963   0.16245   0.00000  Uiso   1.00
O883   O     0.21964   0.50000   0.83755   0.00000  Uiso   1.00
O884   O     0.28037   0.50000   0.16245   0.00000  Uiso   1.00
H885   H     0.47397   0.66071   0.46584   0.00000  Uiso   1.00
H886   H     0.02609   0.83926   0.53417   0.00000  Uiso   1.00
H887   H     0.33983   0.52382   0.46584   0.00000  Uiso   1.00
H888   H     0.16014   0.97624   0.53416   0.00000  Uiso   1.00
H889   H     0.02605   0.83927   0.46579   0.00000  Uiso   1.00
H890   H     0.47402   0.66069   0.53422   0.00000  Uiso   1.00
H891   H     0.16016   0.97617   0.46578   0.00000  Uiso   1.00
H892   H     0.33981   0.52390   0.53422   0.00000  Uiso   1.00
H893   H     0.22336   0.91089   0.96584   0.00000  Uiso   1.00
H894   H     0.27665   0.58910   0.03416   0.00000  Uiso   1.00
H895   H     0.09047   0.77130   0.96584   0.00000  Uiso   1.00
H896   H     0.40953   0.72870   0.03416   0.00000  Uiso   1.00
H897   H     0.27662   0.58910   0.96578   0.00000  Uiso   1.00
H898   H     0.22340   0.91088   0.03422   0.00000  Uiso   1.00
H899   H     0.40954   0.72863   0.96578   0.00000  Uiso   1.00
H900   H     0.09045   0.77138   0.03422   0.00000  Uiso   1.00
O901   O     0.20725   0.57307   0.27302   0.00000  Uiso   1.00
O902   O     0.29276   0.92692   0.72698   0.00000  Uiso   1.00
O903   O     0.42693   0.70724   0.27302   0.00000  Uiso   1.00
O904   O     0.07308   0.79276   0.72698   0.00000  Uiso   1.00
O905   O     0.29276   0.92692   0.27302   0.00000  Uiso   1.00
O906   O     0.20725   0.57307   0.72698   0.00000  Uiso   1.00
O907   O     0.07308   0.79276   0.27302   0.00000  Uiso   1.00
O908   O     0.42693   0.70724   0.72698   0.00000  Uiso   1.00
O909   O     0.20725   0.92692   0.72698   0.00000  Uiso   1.00
O910   O     0.29276   0.57307   0.27302   0.00000  Uiso   1.00
O911   O     0.42693   0.79275   0.72698   0.00000  Uiso   1.00
O912   O     0.07308   0.70724   0.27302   0.00000  Uiso   1.00
O913   O     0.29276   0.57307   0.72698   0.00000  Uiso   1.00
O914   O     0.20725   0.92692   0.27302   0.00000  Uiso   1.00
O915   O     0.07308   0.70724   0.72698   0.00000  Uiso   1.00
O916   O     0.42693   0.79275   0.27302   0.00000  Uiso   1.00
O917   O     0.45725   0.82307   0.77302   0.00000  Uiso   1.00
O918   O     0.04276   0.67693   0.22698   0.00000  Uiso   1.00
O919   O     0.17693   0.95724   0.77302   0.00000  Uiso   1.00
O920   O     0.32308   0.54275   0.22698   0.00000  Uiso   1.00
O921   O     0.04276   0.67693   0.77302   0.00000  Uiso   1.00
O922   O     0.45725   0.82307   0.22698   0.00000  Uiso   1.00
O923   O     0.32308   0.54275   0.77302   0.00000  Uiso   1.00
O924   O     0.17693   0.95724   0.22698   0.00000  Uiso   1.00
O925   O     0.45725   0.67692   0.22698   0.00000  Uiso   1.00
O926   O     0.04276   0.82308   0.77302   0.00000  Uiso   1.00
O927   O     0.17693   0.54275   0.22698   0.00000  Uiso   1.00
O928   O     0.32308   0.95724   0.77302   0.00000  Uiso   1.00
O929   O     0.04276   0.82308   0.22698   0.00000  Uiso   1.00
O930   O     0.45725   0.67692   0.77302   0.00000  Uiso   1.00
O931   O     0.32308   0.95724   0.22698   0.00000  Uiso   1.00
O932   O     0.17693   0.54275   0.77302   0.00000  Uiso   1.00
C933   C     0.48154   0.68603   0.47995   0.00000  Uiso   1.00
C934   C     0.01851   0.81394   0.52006   0.00000  Uiso   1.00
C935   C     0.31434   0.51691   0.47995   0.00000  Uiso   1.00
C936   C     0.18564   0.98314   0.52005   0.00000  Uiso   1.00
C937   C     0.01849   0.81395   0.47991   0.00000  Uiso   1.00
C938   C     0.48157   0.68602   0.52009   0.00000  Uiso   1.00
C939   C     0.18564   0.98310   0.47990   0.00000  Uiso   1.00
C940   C     0.31433   0.51696   0.52009   0.00000  Uiso   1.00
C941   C     0.23110   0.93616   0.97995   0.00000  Uiso   1.00
C942   C     0.26891   0.56383   0.02005   0.00000  Uiso   1.00
C943   C     0.06478   0.76513   0.97995   0.00000  Uiso   1.00
C944   C     0.43521   0.73487   0.02005   0.00000  Uiso   1.00
C945   C     0.26889   0.56383   0.97991   0.00000  Uiso   1.00
C946   C     0.23113   0.93615   0.02009   0.00000  Uiso   1.00
C947   C     0.43522   0.73482   0.97990   0.00000  Uiso   1.00
C948   C     0.06478   0.76518   0.02009   0.00000  Uiso   1.00
C949   C     0.25000   0.99999   0.35570   0.00000  Uiso   1.00
C950   C     0.25000   0.50001   0.64430   0.00000  Uiso   1.00
C951   C     0.00000   0.75000   0.35570   0.00000  Uiso   1.00
C952   C    -0.00000   0.74999   0.64430   0.00000  Uiso   1.00
C953   C     0.49999   0.74999   0.85570   0.00000  Uiso   1.00
C954   C     0.00000   0.75001   0.14430   0.00000  Uiso   1.00
C955   C     0.25000   0.99999   0.85570   0.00000  Uiso   1.00
C956   C     0.25000   0.50000   0.14430   0.00000  Uiso   1.00
C957   C     0.18003   0.56995   0.25000   0.00000  Uiso   1.00
C958   C     0.31997   0.93005   0.75000   0.00000  Uiso   1.00
C959   C     0.43004   0.68004   0.24995   0.00000  Uiso   1.00
C960   C     0.06996   0.81996   0.75005   0.00000  Uiso   1.00
C961   C     0.31995   0.93003   0.25003   0.00000  Uiso   1.00
C962   C     0.18005   0.56997   0.74997   0.00000  Uiso   1.00
C963   C     0.06996   0.81997   0.24996   0.00000  Uiso   1.00
C964   C     0.43003   0.68003   0.75000   0.00000  Uiso   1.00
C965   C     0.18004   0.93004   0.74995   0.00000  Uiso   1.00
C966   C     0.31996   0.56996   0.25005   0.00000  Uiso   1.00
C967   C     0.43003   0.81995   0.75000   0.00000  Uiso   1.00
C968   C     0.06997   0.68005   0.25000   0.00000  Uiso   1.00
C969   C     0.31995   0.56997   0.75001   0.00000  Uiso   1.00
C970   C     0.18004   0.93003   0.25003   0.00000  Uiso   1.00
C971   C     0.06995   0.68003   0.75003   0.00000  Uiso   1.00
C972   C     0.43005   0.81997   0.24997   0.00000  Uiso   1.00
C973   C     0.15082   0.87624   0.21908   0.00000  Uiso   1.00
C974   C     0.34920   0.62356   0.78092   0.00000  Uiso   1.00
C975   C     0.09112   0.61816   0.26909   0.00000  Uiso   1.00
C976   C     0.40887   0.88183   0.73089   0.00000  Uiso   1.00
C977   C     0.37319   0.59934   0.28096   0.00000  Uiso   1.00
C978   C     0.12632   0.90116   0.71949   0.00000  Uiso   1.00
C979   C     0.37584   0.84834   0.21997   0.00000  Uiso   1.00
C980   C     0.09816   0.62525   0.72002   0.00000  Uiso   1.00
C981   C     0.12572   0.59823   0.72009   0.00000  Uiso   1.00
C982   C     0.34827   0.87536   0.21990   0.00000  Uiso   1.00
C983   C     0.09868   0.87423   0.71951   0.00000  Uiso   1.00
C984   C     0.40086   0.62623   0.28091   0.00000  Uiso   1.00
C985   C     0.38151   0.90906   0.73125   0.00000  Uiso   1.00
C986   C     0.11848   0.59093   0.26871   0.00000  Uiso   1.00
C987   C     0.37686   0.65047   0.78114   0.00000  Uiso   1.00
C988   C     0.12320   0.84929   0.21909   0.00000  Uiso   1.00
C989   C     0.40042   0.62684   0.71886   0.00000  Uiso   1.00
C990   C     0.09918   0.87375   0.28092   0.00000  Uiso   1.00
C991   C     0.34114   0.86817   0.76911   0.00000  Uiso   1.00
C992   C     0.15888   0.63184   0.23091   0.00000  Uiso   1.00
C993   C     0.12368   0.84883   0.78052   0.00000  Uiso   1.00
C994   C     0.37681   0.65067   0.21904   0.00000  Uiso   1.00
C995   C     0.15184   0.62475   0.77999   0.00000  Uiso   1.00
C996   C     0.37416   0.90166   0.28003   0.00000  Uiso   1.00
C997   C     0.40173   0.87463   0.28009   0.00000  Uiso   1.00
C998   C     0.12428   0.65177   0.77992   0.00000  Uiso   1.00
C999   C     0.34914   0.62377   0.21909   0.00000  Uiso   1.00
C1000  C     0.15132   0.87577   0.78049   0.00000  Uiso   1.00
C1001  C     0.13152   0.65907   0.23129   0.00000  Uiso   1.00
C1002  C     0.36849   0.84095   0.76874   0.00000  Uiso   1.00
C1003  C     0.12680   0.90070   0.28091   0.00000  Uiso   1.00
C1004  C     0.37354   0.59916   0.71911   0.00000  Uiso   1.00
C1005  C     0.49087   0.71762   0.45888   0.00000  Uiso   1.00
C1006  C     0.00917   0.78236   0.54113   0.00000  Uiso   1.00
C1007  C     0.28256   0.50834   0.45887   0.00000  Uiso   1.00
C1008  C     0.21742   0.99170   0.54112   0.00000  Uiso   1.00
C1009  C     0.00913   0.78237   0.45886   0.00000  Uiso   1.00
C1010  C     0.49091   0.71761   0.54115   0.00000  Uiso   1.00
C1011  C     0.21744   0.99162   0.45885   0.00000  Uiso   1.00
C1012  C     0.28254   0.50843   0.54115   0.00000  Uiso   1.00
C1013  C     0.24065   0.96768   0.95887   0.00000  Uiso   1.00
C1014  C     0.25935   0.53231   0.04112   0.00000  Uiso   1.00
C1015  C     0.03277   0.75747   0.95887   0.00000  Uiso   1.00
C1016  C     0.46723   0.74253   0.04113   0.00000  Uiso   1.00
C1017  C     0.25932   0.53231   0.95885   0.00000  Uiso   1.00
C1018  C     0.24069   0.96768   0.04114   0.00000  Uiso   1.00
C1019  C     0.46724   0.74244   0.95885   0.00000  Uiso   1.00
C1020  C     0.03276   0.75755   0.04115   0.00000  Uiso   1.00
C1021  C     0.09789   0.84825   0.25006   0.00000  Uiso   1.00
C1022  C     0.40189   0.65189   0.75000   0.00000  Uiso   1.00
C1023  C     0.15200   0.59814   0.24978   0.00000  Uiso   1.00
C1024  C     0.34800   0.90186   0.75021   0.00000  Uiso   1.00
C1025  C     0.40213   0.65173   0.25003   0.00000  Uiso   1.00
C1026  C     0.09788   0.84826   0.74996   0.00000  Uiso   1.00
C1027  C     0.34790   0.90176   0.24992   0.00000  Uiso   1.00
C1028  C     0.15210   0.59823   0.75008   0.00000  Uiso   1.00
C1029  C     0.09790   0.65177   0.74993   0.00000  Uiso   1.00
C1030  C     0.40210   0.84823   0.25007   0.00000  Uiso   1.00
C1031  C     0.15212   0.90174   0.75004   0.00000  Uiso   1.00
C1032  C     0.34787   0.59828   0.24997   0.00000  Uiso   1.00
C1033  C     0.40200   0.84814   0.74978   0.00000  Uiso   1.00
C1034  C     0.09800   0.65186   0.25022   0.00000  Uiso   1.00
C1035  C     0.34803   0.59803   0.75001   0.00000  Uiso   1.00
C1036  C     0.15211   0.90174   0.24994   0.00000  Uiso   1.00
C1037  C     0.00001   0.74999   0.47937   0.00000  Uiso   1.00
C1038  C     0.00003   0.74999   0.52063   0.00000  Uiso   1.00
C1039  C     0.24999   0.50000   0.47937   0.00000  Uiso   1.00
C1040  C     0.24998   0.50004   0.52063   0.00000  Uiso   1.00
C1041  C     0.25000   0.50000   0.97937   0.00000  Uiso   1.00
C1042  C     0.25001   0.99999   0.02063   0.00000  Uiso   1.00
C1043  C     0.00000   0.74998   0.97937   0.00000  Uiso   1.00
C1044  C     0.49999   0.75002   0.02063   0.00000  Uiso   1.00
C1045  C     0.17901   0.87713   0.18664   0.00000  Uiso   1.00
H1046  H     0.20014   0.89861   0.18993   0.00000  Uiso   1.00
H1047  H     0.19395   0.85067   0.18567   0.00000  Uiso   1.00
H1048  H     0.16516   0.88210   0.15844   0.00000  Uiso   1.00
C1049  C     0.32092   0.62269   0.81329   0.00000  Uiso   1.00
H1050  H     0.29956   0.60147   0.80979   0.00000  Uiso   1.00
H1051  H     0.33466   0.61739   0.84148   0.00000  Uiso   1.00
H1052  H     0.30625   0.64930   0.81445   0.00000  Uiso   1.00
C1053  C     0.05517   0.61129   0.29007   0.00000  Uiso   1.00
H1054  H     0.03582   0.63460   0.28930   0.00000  Uiso   1.00
H1055  H     0.04091   0.58759   0.27671   0.00000  Uiso   1.00
H1056  H     0.06058   0.60562   0.32120   0.00000  Uiso   1.00
C1057  C     0.44481   0.88869   0.70988   0.00000  Uiso   1.00
H1058  H     0.46417   0.86539   0.71068   0.00000  Uiso   1.00
H1059  H     0.43939   0.89433   0.67874   0.00000  Uiso   1.00
H1060  H     0.45907   0.91241   0.72321   0.00000  Uiso   1.00
C1061  C     0.37010   0.57113   0.31335   0.00000  Uiso   1.00
H1062  H     0.37210   0.54312   0.30098   0.00000  Uiso   1.00
H1063  H     0.39130   0.57327   0.33611   0.00000  Uiso   1.00
H1064  H     0.34329   0.57412   0.32813   0.00000  Uiso   1.00
C1065  C     0.12891   0.92990   0.68757   0.00000  Uiso   1.00
H1066  H     0.12702   0.95769   0.70048   0.00000  Uiso   1.00
H1067  H     0.15553   0.92720   0.67234   0.00000  Uiso   1.00
H1068  H     0.10739   0.92807   0.66511   0.00000  Uiso   1.00
C1069  C     0.37783   0.81897   0.18867   0.00000  Uiso   1.00
H1070  H     0.40425   0.82117   0.17296   0.00000  Uiso   1.00
H1071  H     0.37597   0.79146   0.20226   0.00000  Uiso   1.00
H1072  H     0.35598   0.82048   0.16654   0.00000  Uiso   1.00
C1073  C     0.06903   0.62526   0.68848   0.00000  Uiso   1.00
H1074  H     0.04828   0.64718   0.69143   0.00000  Uiso   1.00
H1075  H     0.08211   0.62896   0.65968   0.00000  Uiso   1.00
H1076  H     0.05380   0.59896   0.68913   0.00000  Uiso   1.00
C1077  C     0.12758   0.56873   0.68892   0.00000  Uiso   1.00
H1078  H     0.12575   0.54127   0.70264   0.00000  Uiso   1.00
H1079  H     0.10566   0.57016   0.66686   0.00000  Uiso   1.00
H1080  H     0.15396   0.57084   0.67310   0.00000  Uiso   1.00
C1081  C     0.31925   0.87548   0.18826   0.00000  Uiso   1.00
H1082  H     0.29848   0.89736   0.19122   0.00000  Uiso   1.00
H1083  H     0.33243   0.87931   0.15952   0.00000  Uiso   1.00
H1084  H     0.30404   0.84917   0.18872   0.00000  Uiso   1.00
C1085  C     0.06995   0.87383   0.68757   0.00000  Uiso   1.00
H1086  H     0.04888   0.85230   0.69087   0.00000  Uiso   1.00
H1087  H     0.05502   0.90031   0.68729   0.00000  Uiso   1.00
H1088  H     0.08333   0.86929   0.65905   0.00000  Uiso   1.00
C1089  C     0.42917   0.62704   0.31326   0.00000  Uiso   1.00
H1090  H     0.45041   0.64839   0.30985   0.00000  Uiso   1.00
H1091  H     0.41544   0.63214   0.34149   0.00000  Uiso   1.00
H1092  H     0.44397   0.60050   0.31428   0.00000  Uiso   1.00
C1093  C     0.38695   0.94590   0.71135   0.00000  Uiso   1.00
H1094  H     0.38503   0.96822   0.73311   0.00000  Uiso   1.00
H1095  H     0.41355   0.94919   0.69652   0.00000  Uiso   1.00
H1096  H     0.36534   0.94995   0.68907   0.00000  Uiso   1.00
C1097  C     0.11302   0.55407   0.28856   0.00000  Uiso   1.00
H1098  H     0.11493   0.53177   0.26677   0.00000  Uiso   1.00
H1099  H     0.13461   0.54999   0.31084   0.00000  Uiso   1.00
H1100  H     0.08642   0.55077   0.30338   0.00000  Uiso   1.00
C1101  C     0.38010   0.67848   0.81368   0.00000  Uiso   1.00
H1102  H     0.40702   0.67548   0.82825   0.00000  Uiso   1.00
H1103  H     0.37792   0.70656   0.80150   0.00000  Uiso   1.00
H1104  H     0.35907   0.67611   0.83658   0.00000  Uiso   1.00
C1105  C     0.12019   0.82096   0.18681   0.00000  Uiso   1.00
H1106  H     0.09338   0.82386   0.17196   0.00000  Uiso   1.00
H1107  H     0.14141   0.82306   0.16409   0.00000  Uiso   1.00
H1108  H     0.12223   0.79300   0.19932   0.00000  Uiso   1.00
C1109  C     0.42829   0.63013   0.68622   0.00000  Uiso   1.00
H1110  H     0.45639   0.62800   0.69830   0.00000  Uiso   1.00
H1111  H     0.42588   0.60911   0.66331   0.00000  Uiso   1.00
H1112  H     0.42520   0.65708   0.67169   0.00000  Uiso   1.00
C1113  C     0.07099   0.87286   0.31335   0.00000  Uiso   1.00
H1114  H     0.04986   0.85138   0.31007   0.00000  Uiso   1.00
H1115  H     0.08484   0.86789   0.34155   0.00000  Uiso   1.00
H1116  H     0.05606   0.89932   0.31433   0.00000  Uiso   1.00
C1117  C     0.30519   0.86131   0.79011   0.00000  Uiso   1.00
H1118  H     0.28583   0.88461   0.78932   0.00000  Uiso   1.00
H1119  H     0.29093   0.83760   0.77678   0.00000  Uiso   1.00
H1120  H     0.31061   0.85567   0.82125   0.00000  Uiso   1.00
C1121  C     0.19483   0.63871   0.20993   0.00000  Uiso   1.00
H1122  H     0.21419   0.61541   0.21071   0.00000  Uiso   1.00
H1123  H     0.18942   0.64437   0.17879   0.00000  Uiso   1.00
H1124  H     0.20909   0.66242   0.22329   0.00000  Uiso   1.00
C1125  C     0.12111   0.82008   0.81242   0.00000  Uiso   1.00
H1126  H     0.12302   0.79229   0.79949   0.00000  Uiso   1.00
H1127  H     0.14262   0.82190   0.83488   0.00000  Uiso   1.00
H1128  H     0.09449   0.82274   0.82765   0.00000  Uiso   1.00
C1129  C     0.37989   0.67890   0.18666   0.00000  Uiso   1.00
H1130  H     0.37787   0.70690   0.19904   0.00000  Uiso   1.00
H1131  H     0.40670   0.67593   0.17188   0.00000  Uiso   1.00
H1132  H     0.35869   0.67675   0.16390   0.00000  Uiso   1.00
C1133  C     0.18096   0.62473   0.81153   0.00000  Uiso   1.00
H1134  H     0.20170   0.60282   0.80858   0.00000  Uiso   1.00
H1135  H     0.19619   0.65103   0.81089   0.00000  Uiso   1.00
H1136  H     0.16787   0.62103   0.84033   0.00000  Uiso   1.00
C1137  C     0.37218   0.93103   0.31132   0.00000  Uiso   1.00
H1138  H     0.34576   0.92884   0.32703   0.00000  Uiso   1.00
H1139  H     0.39403   0.92953   0.33345   0.00000  Uiso   1.00
H1140  H     0.37404   0.95854   0.29772   0.00000  Uiso   1.00
C1141  C     0.43075   0.87452   0.31174   0.00000  Uiso   1.00
H1142  H     0.45152   0.85263   0.30878   0.00000  Uiso   1.00
H1143  H     0.44596   0.90083   0.31128   0.00000  Uiso   1.00
H1144  H     0.41756   0.87069   0.34048   0.00000  Uiso   1.00
C1145  C     0.12241   0.68127   0.81109   0.00000  Uiso   1.00
H1146  H     0.12424   0.70873   0.79737   0.00000  Uiso   1.00
H1147  H     0.09604   0.67915   0.82690   0.00000  Uiso   1.00
H1148  H     0.14433   0.67984   0.83315   0.00000  Uiso   1.00
C1149  C     0.32083   0.62296   0.18673   0.00000  Uiso   1.00
H1150  H     0.29959   0.60161   0.19015   0.00000  Uiso   1.00
H1151  H     0.30603   0.64950   0.18572   0.00000  Uiso   1.00
H1152  H     0.33456   0.61787   0.15851   0.00000  Uiso   1.00
C1153  C     0.18005   0.87616   0.81243   0.00000  Uiso   1.00
H1154  H     0.20112   0.89770   0.80913   0.00000  Uiso   1.00
H1155  H     0.16668   0.88070   0.84095   0.00000  Uiso   1.00
H1156  H     0.19499   0.84968   0.81271   0.00000  Uiso   1.00
C1157  C     0.13697   0.69593   0.21142   0.00000  Uiso   1.00
H1158  H     0.13506   0.71823   0.23321   0.00000  Uiso   1.00
H1159  H     0.16358   0.69922   0.19660   0.00000  Uiso   1.00
H1160  H     0.11538   0.70000   0.18914   0.00000  Uiso   1.00
C1161  C     0.36305   0.80410   0.78864   0.00000  Uiso   1.00
H1162  H     0.36496   0.78178   0.76687   0.00000  Uiso   1.00
H1163  H     0.38466   0.80004   0.81091   0.00000  Uiso   1.00
H1164  H     0.33646   0.80081   0.80347   0.00000  Uiso   1.00
C1165  C     0.12983   0.92901   0.31320   0.00000  Uiso   1.00
H1166  H     0.15663   0.92608   0.32804   0.00000  Uiso   1.00
H1167  H     0.12781   0.95698   0.30071   0.00000  Uiso   1.00
H1168  H     0.10860   0.92692   0.33591   0.00000  Uiso   1.00
C1169  C     0.37271   0.57076   0.68682   0.00000  Uiso   1.00
H1170  H     0.35158   0.54932   0.69041   0.00000  Uiso   1.00
H1171  H     0.36733   0.58441   0.65860   0.00000  Uiso   1.00
H1172  H     0.39933   0.55614   0.68567   0.00000  Uiso   1.00
C1173  C     0.01655   0.81799   0.39589   0.00000  Uiso   1.00
H1174  H     0.01353   0.81588   0.36401   0.00000  Uiso   1.00
H1175  H     0.49718   0.83966   0.40530   0.00000  Uiso   1.00
H1176  H     0.04506   0.82692   0.40176   0.00000  Uiso   1.00
C1177  C     0.48344   0.68200   0.60412   0.00000  Uiso   1.00
H1178  H     0.48636   0.68411   0.63601   0.00000  Uiso   1.00
H1179  H     0.45496   0.67304   0.59817   0.00000  Uiso   1.00
H1180  H     0.00285   0.66034   0.59477   0.00000  Uiso   1.00
C1181  C     0.18179   0.98456   0.39586   0.00000  Uiso   1.00
H1182  H     0.18403   0.98710   0.36394   0.00000  Uiso   1.00
H1183  H     0.17227   0.95628   0.40207   0.00000  Uiso   1.00
H1184  H     0.16052   0.50449   0.40495   0.00000  Uiso   1.00
C1185  C     0.31819   0.51547   0.60413   0.00000  Uiso   1.00
H1186  H     0.31595   0.51285   0.63604   0.00000  Uiso   1.00
H1187  H     0.33948   0.99557   0.59500   0.00000  Uiso   1.00
H1188  H     0.32768   0.54376   0.59798   0.00000  Uiso   1.00
C1189  C     0.48326   0.68205   0.39593   0.00000  Uiso   1.00
H1190  H     0.48617   0.68417   0.36404   0.00000  Uiso   1.00
H1191  H     0.00260   0.66032   0.40529   0.00000  Uiso   1.00
H1192  H     0.45475   0.67319   0.40186   0.00000  Uiso   1.00
C1193  C     0.01679   0.81793   0.60408   0.00000  Uiso   1.00
H1194  H     0.01389   0.81582   0.63596   0.00000  Uiso   1.00
H1195  H     0.04530   0.82678   0.59813   0.00000  Uiso   1.00
H1196  H     0.49745   0.83967   0.59472   0.00000  Uiso   1.00
C1197  C     0.31826   0.51516   0.39591   0.00000  Uiso   1.00
H1198  H     0.31603   0.51249   0.36400   0.00000  Uiso   1.00
H1199  H     0.32784   0.54343   0.40199   0.00000  Uiso   1.00
H1200  H     0.33948   0.99521   0.40514   0.00000  Uiso   1.00
C1201  C     0.18173   0.98487   0.60409   0.00000  Uiso   1.00
H1202  H     0.18396   0.98754   0.63600   0.00000  Uiso   1.00
H1203  H     0.16051   0.50483   0.59486   0.00000  Uiso   1.00
H1204  H     0.17214   0.95660   0.59800   0.00000  Uiso   1.00
C1205  C     0.26691   0.56790   0.89589   0.00000  Uiso   1.00
H1206  H     0.26383   0.56583   0.86402   0.00000  Uiso   1.00
H1207  H     0.24769   0.58969   0.90533   0.00000  Uiso   1.00
H1208  H     0.29548   0.57665   0.90172   0.00000  Uiso   1.00
C1209  C     0.23312   0.93209   0.10411   0.00000  Uiso   1.00
H1210  H     0.23621   0.93416   0.13598   0.00000  Uiso   1.00
H1211  H     0.20455   0.92332   0.09829   0.00000  Uiso   1.00
H1212  H     0.25235   0.91030   0.09466   0.00000  Uiso   1.00
C1213  C     0.43149   0.73597   0.89584   0.00000  Uiso   1.00
H1214  H     0.43385   0.73814   0.86390   0.00000  Uiso   1.00
H1215  H     0.42128   0.70799   0.90230   0.00000  Uiso   1.00
H1216  H     0.41068   0.75648   0.90469   0.00000  Uiso   1.00
C1217  C     0.06851   0.76402   0.10416   0.00000  Uiso   1.00
H1218  H     0.06614   0.76184   0.13610   0.00000  Uiso   1.00
H1219  H     0.08932   0.74351   0.09529   0.00000  Uiso   1.00
H1220  H     0.07872   0.79200   0.09771   0.00000  Uiso   1.00
C1221  C     0.23287   0.93214   0.89593   0.00000  Uiso   1.00
H1222  H     0.23583   0.93422   0.86405   0.00000  Uiso   1.00
H1223  H     0.25206   0.91030   0.90533   0.00000  Uiso   1.00
H1224  H     0.20429   0.92346   0.90183   0.00000  Uiso   1.00
C1225  C     0.26708   0.56786   0.10406   0.00000  Uiso   1.00
H1226  H     0.26407   0.56579   0.13594   0.00000  Uiso   1.00
H1227  H     0.29566   0.57655   0.09820   0.00000  Uiso   1.00
H1228  H     0.24789   0.58970   0.09463   0.00000  Uiso   1.00
C1229  C     0.06856   0.76368   0.89589   0.00000  Uiso   1.00
H1230  H     0.07886   0.79165   0.90221   0.00000  Uiso   1.00
H1231  H     0.08931   0.74314   0.90489   0.00000  Uiso   1.00
H1232  H     0.06621   0.76136   0.86396   0.00000  Uiso   1.00
C1233  C     0.43144   0.73629   0.10411   0.00000  Uiso   1.00
H1234  H     0.42115   0.70831   0.09777   0.00000  Uiso   1.00
H1235  H     0.43379   0.73858   0.13604   0.00000  Uiso   1.00
H1236  H     0.41069   0.75683   0.09513   0.00000  Uiso   1.00
Zn1237 Zn    0.70660   0.50000   0.21735   0.00000  Uiso   1.00
Zn1238 Zn    0.79341   0.50000   0.78265   0.00000  Uiso   1.00
Zn1239 Zn    0.50000   0.70659   0.21735   0.00000  Uiso   1.00
Zn1240 Zn    0.50000   0.79340   0.78265   0.00000  Uiso   1.00
Zn1241 Zn    0.79341   0.50000   0.21735   0.00000  Uiso   1.00
Zn1242 Zn    0.70660   0.50000   0.78265   0.00000  Uiso   1.00
Zn1243 Zn    0.50000   0.79341   0.21735   0.00000  Uiso   1.00
Zn1244 Zn    0.50000   0.70659   0.78265   0.00000  Uiso   1.00
Zn1245 Zn    0.95660   0.75000   0.71735   0.00000  Uiso   1.00
Zn1246 Zn    0.54341   0.75000   0.28265   0.00000  Uiso   1.00
Zn1247 Zn    0.75000   0.95659   0.71735   0.00000  Uiso   1.00
Zn1248 Zn    0.75000   0.54340   0.28265   0.00000  Uiso   1.00
Zn1249 Zn    0.54341   0.75000   0.71735   0.00000  Uiso   1.00
Zn1250 Zn    0.95660   0.75000   0.28265   0.00000  Uiso   1.00
Zn1251 Zn    0.75000   0.54340   0.71735   0.00000  Uiso   1.00
Zn1252 Zn    0.75000   0.95659   0.28265   0.00000  Uiso   1.00
C1253  C     0.50859   0.78265   0.41788   0.00000  Uiso   1.00
C1254  C     0.99142   0.71733   0.58213   0.00000  Uiso   1.00
C1255  C     0.71720   0.99203   0.41786   0.00000  Uiso   1.00
C1256  C     0.78278   0.50799   0.58213   0.00000  Uiso   1.00
C1257  C     0.99136   0.71735   0.41790   0.00000  Uiso   1.00
C1258  C     0.50867   0.78263   0.58211   0.00000  Uiso   1.00
C1259  C     0.78281   0.50785   0.41789   0.00000  Uiso   1.00
C1260  C     0.71717   0.99218   0.58211   0.00000  Uiso   1.00
C1261  C     0.75878   0.53260   0.91788   0.00000  Uiso   1.00
C1262  C     0.74124   0.96739   0.08212   0.00000  Uiso   1.00
C1263  C     0.96703   0.74278   0.91786   0.00000  Uiso   1.00
C1264  C     0.53297   0.75722   0.08214   0.00000  Uiso   1.00
C1265  C     0.74116   0.96740   0.91790   0.00000  Uiso   1.00
C1266  C     0.75883   0.53259   0.08210   0.00000  Uiso   1.00
C1267  C     0.53299   0.75706   0.91788   0.00000  Uiso   1.00
C1268  C     0.96700   0.74293   0.08212   0.00000  Uiso   1.00
C1269  C     0.50000   0.75000   0.39787   0.00000  Uiso   1.00
C1270  C     0.50000   0.74999   0.60214   0.00000  Uiso   1.00
C1271  C     0.75000   0.99996   0.39786   0.00000  Uiso   1.00
C1272  C     0.74999   0.50005   0.60213   0.00000  Uiso   1.00
C1273  C     0.75000   0.50000   0.89786   0.00000  Uiso   1.00
C1274  C     0.75000   0.50000   0.10213   0.00000  Uiso   1.00
C1275  C     0.50000   0.74995   0.89786   0.00000  Uiso   1.00
C1276  C     0.99999   0.75004   0.10214   0.00000  Uiso   1.00
O1277  O     0.75000   0.50000   0.25000   0.00000  Uiso   1.00
O1278  O     0.75000   0.50000   0.75000   0.00000  Uiso   1.00
O1279  O     0.50000   0.75000   0.25000   0.00000  Uiso   1.00
O1280  O     0.50000   0.75000   0.75000   0.00000  Uiso   1.00
O1281  O     0.75000   0.96963   0.33755   0.00000  Uiso   1.00
O1282  O     0.75000   0.53036   0.66245   0.00000  Uiso   1.00
O1283  O     0.53037   0.75000   0.33755   0.00000  Uiso   1.00
O1284  O     0.96964   0.75000   0.66245   0.00000  Uiso   1.00
O1285  O     0.75000   0.53036   0.33755   0.00000  Uiso   1.00
O1286  O     0.75000   0.96963   0.66245   0.00000  Uiso   1.00
O1287  O     0.96964   0.75000   0.33755   0.00000  Uiso   1.00
O1288  O     0.53037   0.75000   0.66245   0.00000  Uiso   1.00
O1289  O     0.50000   0.71963   0.83755   0.00000  Uiso   1.00
O1290  O     0.50000   0.78036   0.16245   0.00000  Uiso   1.00
O1291  O     0.78037   0.50000   0.83755   0.00000  Uiso   1.00
O1292  O     0.71964   0.50000   0.16245   0.00000  Uiso   1.00
O1293  O     0.50000   0.78036   0.83755   0.00000  Uiso   1.00
O1294  O     0.50000   0.71963   0.16245   0.00000  Uiso   1.00
O1295  O     0.71964   0.50000   0.83755   0.00000  Uiso   1.00
O1296  O     0.78037   0.50000   0.16245   0.00000  Uiso   1.00
H1297  H     0.97397   0.66071   0.46584   0.00000  Uiso   1.00
H1298  H     0.52609   0.83926   0.53417   0.00000  Uiso   1.00
H1299  H     0.83983   0.52382   0.46584   0.00000  Uiso   1.00
H1300  H     0.66014   0.97624   0.53416   0.00000  Uiso   1.00
H1301  H     0.52605   0.83927   0.46579   0.00000  Uiso   1.00
H1302  H     0.97402   0.66069   0.53422   0.00000  Uiso   1.00
H1303  H     0.66016   0.97617   0.46578   0.00000  Uiso   1.00
H1304  H     0.83981   0.52390   0.53422   0.00000  Uiso   1.00
H1305  H     0.72336   0.91089   0.96584   0.00000  Uiso   1.00
H1306  H     0.77665   0.58910   0.03416   0.00000  Uiso   1.00
H1307  H     0.59047   0.77130   0.96584   0.00000  Uiso   1.00
H1308  H     0.90953   0.72870   0.03416   0.00000  Uiso   1.00
H1309  H     0.77662   0.58910   0.96578   0.00000  Uiso   1.00
H1310  H     0.72340   0.91088   0.03422   0.00000  Uiso   1.00
H1311  H     0.90954   0.72863   0.96578   0.00000  Uiso   1.00
H1312  H     0.59045   0.77138   0.03422   0.00000  Uiso   1.00
O1313  O     0.70725   0.57307   0.27302   0.00000  Uiso   1.00
O1314  O     0.79276   0.92692   0.72698   0.00000  Uiso   1.00
O1315  O     0.92693   0.70724   0.27302   0.00000  Uiso   1.00
O1316  O     0.57308   0.79276   0.72698   0.00000  Uiso   1.00
O1317  O     0.79276   0.92692   0.27302   0.00000  Uiso   1.00
O1318  O     0.70725   0.57307   0.72698   0.00000  Uiso   1.00
O1319  O     0.57308   0.79276   0.27302   0.00000  Uiso   1.00
O1320  O     0.92693   0.70724   0.72698   0.00000  Uiso   1.00
O1321  O     0.70725   0.92692   0.72698   0.00000  Uiso   1.00
O1322  O     0.79276   0.57307   0.27302   0.00000  Uiso   1.00
O1323  O     0.92693   0.79275   0.72698   0.00000  Uiso   1.00
O1324  O     0.57308   0.70724   0.27302   0.00000  Uiso   1.00
O1325  O     0.79276   0.57307   0.72698   0.00000  Uiso   1.00
O1326  O     0.70725   0.92692   0.27302   0.00000  Uiso   1.00
O1327  O     0.57308   0.70724   0.72698   0.00000  Uiso   1.00
O1328  O     0.92693   0.79275   0.27302   0.00000  Uiso   1.00
O1329  O     0.95725   0.82307   0.77302   0.00000  Uiso   1.00
O1330  O     0.54276   0.67693   0.22698   0.00000  Uiso   1.00
O1331  O     0.67693   0.95724   0.77302   0.00000  Uiso   1.00
O1332  O     0.82308   0.54275   0.22698   0.00000  Uiso   1.00
O1333  O     0.54276   0.67693   0.77302   0.00000  Uiso   1.00
O1334  O     0.95725   0.82307   0.22698   0.00000  Uiso   1.00
O1335  O     0.82308   0.54275   0.77302   0.00000  Uiso   1.00
O1336  O     0.67693   0.95724   0.22698   0.00000  Uiso   1.00
O1337  O     0.95725   0.67692   0.22698   0.00000  Uiso   1.00
O1338  O     0.54276   0.82308   0.77302   0.00000  Uiso   1.00
O1339  O     0.67693   0.54275   0.22698   0.00000  Uiso   1.00
O1340  O     0.82308   0.95724   0.77302   0.00000  Uiso   1.00
O1341  O     0.54276   0.82308   0.22698   0.00000  Uiso   1.00
O1342  O     0.95725   0.67692   0.77302   0.00000  Uiso   1.00
O1343  O     0.82308   0.95724   0.22698   0.00000  Uiso   1.00
O1344  O     0.67693   0.54275   0.77302   0.00000  Uiso   1.00
C1345  C     0.98154   0.68603   0.47995   0.00000  Uiso   1.00
C1346  C     0.51851   0.81394   0.52006   0.00000  Uiso   1.00
C1347  C     0.81434   0.51691   0.47995   0.00000  Uiso   1.00
C1348  C     0.68564   0.98314   0.52005   0.00000  Uiso   1.00
C1349  C     0.51849   0.81395   0.47991   0.00000  Uiso   1.00
C1350  C     0.98157   0.68602   0.52009   0.00000  Uiso   1.00
C1351  C     0.68564   0.98310   0.47990   0.00000  Uiso   1.00
C1352  C     0.81433   0.51696   0.52009   0.00000  Uiso   1.00
C1353  C     0.73110   0.93616   0.97995   0.00000  Uiso   1.00
C1354  C     0.76891   0.56383   0.02005   0.00000  Uiso   1.00
C1355  C     0.56478   0.76513   0.97995   0.00000  Uiso   1.00
C1356  C     0.93521   0.73487   0.02005   0.00000  Uiso   1.00
C1357  C     0.76889   0.56383   0.97991   0.00000  Uiso   1.00
C1358  C     0.73113   0.93615   0.02009   0.00000  Uiso   1.00
C1359  C     0.93522   0.73482   0.97990   0.00000  Uiso   1.00
C1360  C     0.56478   0.76518   0.02009   0.00000  Uiso   1.00
C1361  C     0.75000   0.99999   0.35570   0.00000  Uiso   1.00
C1362  C     0.75000   0.50001   0.64430   0.00000  Uiso   1.00
C1363  C     0.50000   0.75000   0.35570   0.00000  Uiso   1.00
C1364  C     0.50000   0.74999   0.64430   0.00000  Uiso   1.00
C1365  C     0.99999   0.74999   0.85570   0.00000  Uiso   1.00
C1366  C     0.50000   0.75001   0.14430   0.00000  Uiso   1.00
C1367  C     0.75000   0.99999   0.85570   0.00000  Uiso   1.00
C1368  C     0.75000   0.50000   0.14430   0.00000  Uiso   1.00
C1369  C     0.68003   0.56995   0.25000   0.00000  Uiso   1.00
C1370  C     0.81997   0.93005   0.75000   0.00000  Uiso   1.00
C1371  C     0.93004   0.68004   0.24995   0.00000  Uiso   1.00
C1372  C     0.56996   0.81996   0.75005   0.00000  Uiso   1.00
C1373  C     0.81995   0.93003   0.25003   0.00000  Uiso   1.00
C1374  C     0.68005   0.56997   0.74997   0.00000  Uiso   1.00
C1375  C     0.56996   0.81997   0.24996   0.00000  Uiso   1.00
C1376  C     0.93003   0.68003   0.75000   0.00000  Uiso   1.00
C1377  C     0.68004   0.93004   0.74995   0.00000  Uiso   1.00
C1378  C     0.81996   0.56996   0.25005   0.00000  Uiso   1.00
C1379  C     0.93003   0.81995   0.75000   0.00000  Uiso   1.00
C1380  C     0.56997   0.68005   0.25000   0.00000  Uiso   1.00
C1381  C     0.81995   0.56997   0.75001   0.00000  Uiso   1.00
C1382  C     0.68004   0.93003   0.25003   0.00000  Uiso   1.00
C1383  C     0.56995   0.68003   0.75003   0.00000  Uiso   1.00
C1384  C     0.93005   0.81997   0.24997   0.00000  Uiso   1.00
C1385  C     0.65082   0.87624   0.21908   0.00000  Uiso   1.00
C1386  C     0.84920   0.62356   0.78092   0.00000  Uiso   1.00
C1387  C     0.59112   0.61816   0.26909   0.00000  Uiso   1.00
C1388  C     0.90887   0.88183   0.73089   0.00000  Uiso   1.00
C1389  C     0.87319   0.59934   0.28096   0.00000  Uiso   1.00
C1390  C     0.62632   0.90116   0.71949   0.00000  Uiso   1.00
C1391  C     0.87584   0.84834   0.21997   0.00000  Uiso   1.00
C1392  C     0.59816   0.62525   0.72002   0.00000  Uiso   1.00
C1393  C     0.62572   0.59823   0.72009   0.00000  Uiso   1.00
C1394  C     0.84827   0.87536   0.21990   0.00000  Uiso   1.00
C1395  C     0.59868   0.87423   0.71951   0.00000  Uiso   1.00
C1396  C     0.90086   0.62623   0.28091   0.00000  Uiso   1.00
C1397  C     0.88151   0.90906   0.73125   0.00000  Uiso   1.00
C1398  C     0.61848   0.59093   0.26871   0.00000  Uiso   1.00
C1399  C     0.87686   0.65047   0.78114   0.00000  Uiso   1.00
C1400  C     0.62320   0.84929   0.21909   0.00000  Uiso   1.00
C1401  C     0.90042   0.62684   0.71886   0.00000  Uiso   1.00
C1402  C     0.59918   0.87375   0.28092   0.00000  Uiso   1.00
C1403  C     0.84114   0.86817   0.76911   0.00000  Uiso   1.00
C1404  C     0.65888   0.63184   0.23091   0.00000  Uiso   1.00
C1405  C     0.62368   0.84883   0.78052   0.00000  Uiso   1.00
C1406  C     0.87681   0.65067   0.21904   0.00000  Uiso   1.00
C1407  C     0.65184   0.62475   0.77999   0.00000  Uiso   1.00
C1408  C     0.87416   0.90166   0.28003   0.00000  Uiso   1.00
C1409  C     0.90173   0.87463   0.28009   0.00000  Uiso   1.00
C1410  C     0.62428   0.65177   0.77992   0.00000  Uiso   1.00
C1411  C     0.84914   0.62377   0.21909   0.00000  Uiso   1.00
C1412  C     0.65132   0.87577   0.78049   0.00000  Uiso   1.00
C1413  C     0.63152   0.65907   0.23129   0.00000  Uiso   1.00
C1414  C     0.86849   0.84095   0.76874   0.00000  Uiso   1.00
C1415  C     0.62680   0.90070   0.28091   0.00000  Uiso   1.00
C1416  C     0.87354   0.59916   0.71911   0.00000  Uiso   1.00
C1417  C     0.99087   0.71762   0.45888   0.00000  Uiso   1.00
C1418  C     0.50917   0.78236   0.54113   0.00000  Uiso   1.00
C1419  C     0.78256   0.50834   0.45887   0.00000  Uiso   1.00
C1420  C     0.71742   0.99170   0.54112   0.00000  Uiso   1.00
C1421  C     0.50913   0.78237   0.45886   0.00000  Uiso   1.00
C1422  C     0.99091   0.71761   0.54115   0.00000  Uiso   1.00
C1423  C     0.71744   0.99162   0.45885   0.00000  Uiso   1.00
C1424  C     0.78254   0.50843   0.54115   0.00000  Uiso   1.00
C1425  C     0.74065   0.96768   0.95887   0.00000  Uiso   1.00
C1426  C     0.75935   0.53231   0.04112   0.00000  Uiso   1.00
C1427  C     0.53277   0.75747   0.95887   0.00000  Uiso   1.00
C1428  C     0.96723   0.74253   0.04113   0.00000  Uiso   1.00
C1429  C     0.75932   0.53231   0.95885   0.00000  Uiso   1.00
C1430  C     0.74069   0.96768   0.04114   0.00000  Uiso   1.00
C1431  C     0.96724   0.74244   0.95885   0.00000  Uiso   1.00
C1432  C     0.53276   0.75755   0.04115   0.00000  Uiso   1.00
C1433  C     0.59789   0.84825   0.25006   0.00000  Uiso   1.00
C1434  C     0.90189   0.65189   0.75000   0.00000  Uiso   1.00
C1435  C     0.65200   0.59814   0.24978   0.00000  Uiso   1.00
C1436  C     0.84800   0.90186   0.75021   0.00000  Uiso   1.00
C1437  C     0.90213   0.65173   0.25003   0.00000  Uiso   1.00
C1438  C     0.59788   0.84826   0.74996   0.00000  Uiso   1.00
C1439  C     0.84790   0.90176   0.24992   0.00000  Uiso   1.00
C1440  C     0.65210   0.59823   0.75008   0.00000  Uiso   1.00
C1441  C     0.59790   0.65177   0.74993   0.00000  Uiso   1.00
C1442  C     0.90210   0.84823   0.25007   0.00000  Uiso   1.00
C1443  C     0.65212   0.90174   0.75004   0.00000  Uiso   1.00
C1444  C     0.84787   0.59828   0.24997   0.00000  Uiso   1.00
C1445  C     0.90200   0.84814   0.74978   0.00000  Uiso   1.00
C1446  C     0.59800   0.65186   0.25022   0.00000  Uiso   1.00
C1447  C     0.84803   0.59803   0.75001   0.00000  Uiso   1.00
C1448  C     0.65211   0.90174   0.24994   0.00000  Uiso   1.00
C1449  C     0.50001   0.74999   0.47937   0.00000  Uiso   1.00
C1450  C     0.50003   0.74999   0.52063   0.00000  Uiso   1.00
C1451  C     0.74999   0.50000   0.47937   0.00000  Uiso   1.00
C1452  C     0.74998   0.50004   0.52063   0.00000  Uiso   1.00
C1453  C     0.75000   0.50000   0.97937   0.00000  Uiso   1.00
C1454  C     0.75001   0.99999   0.02063   0.00000  Uiso   1.00
C1455  C     0.50000   0.74998   0.97937   0.00000  Uiso   1.00
C1456  C     0.99999   0.75002   0.02063   0.00000  Uiso   1.00
C1457  C     0.67901   0.87713   0.18664   0.00000  Uiso   1.00
H1458  H     0.70014   0.89861   0.18993   0.00000  Uiso   1.00
H1459  H     0.69395   0.85067   0.18567   0.00000  Uiso   1.00
H1460  H     0.66516   0.88210   0.15844   0.00000  Uiso   1.00
C1461  C     0.82092   0.62269   0.81329   0.00000  Uiso   1.00
H1462  H     0.79956   0.60147   0.80979   0.00000  Uiso   1.00
H1463  H     0.83466   0.61739   0.84148   0.00000  Uiso   1.00
H1464  H     0.80625   0.64930   0.81445   0.00000  Uiso   1.00
C1465  C     0.55517   0.61129   0.29007   0.00000  Uiso   1.00
H1466  H     0.53582   0.63460   0.28930   0.00000  Uiso   1.00
H1467  H     0.54091   0.58759   0.27671   0.00000  Uiso   1.00
H1468  H     0.56058   0.60562   0.32120   0.00000  Uiso   1.00
C1469  C     0.94481   0.88869   0.70988   0.00000  Uiso   1.00
H1470  H     0.96417   0.86539   0.71068   0.00000  Uiso   1.00
H1471  H     0.93939   0.89433   0.67874   0.00000  Uiso   1.00
H1472  H     0.95907   0.91241   0.72321   0.00000  Uiso   1.00
C1473  C     0.87010   0.57113   0.31335   0.00000  Uiso   1.00
H1474  H     0.87210   0.54312   0.30098   0.00000  Uiso   1.00
H1475  H     0.89130   0.57327   0.33611   0.00000  Uiso   1.00
H1476  H     0.84329   0.57412   0.32813   0.00000  Uiso   1.00
C1477  C     0.62891   0.92990   0.68757   0.00000  Uiso   1.00
H1478  H     0.62702   0.95769   0.70048   0.00000  Uiso   1.00
H1479  H     0.65553   0.92720   0.67234   0.00000  Uiso   1.00
H1480  H     0.60739   0.92807   0.66511   0.00000  Uiso   1.00
C1481  C     0.87783   0.81897   0.18867   0.00000  Uiso   1.00
H1482  H     0.90425   0.82117   0.17296   0.00000  Uiso   1.00
H1483  H     0.87597   0.79146   0.20226   0.00000  Uiso   1.00
H1484  H     0.85598   0.82048   0.16654   0.00000  Uiso   1.00
C1485  C     0.56903   0.62526   0.68848   0.00000  Uiso   1.00
H1486  H     0.54828   0.64718   0.69143   0.00000  Uiso   1.00
H1487  H     0.58211   0.62896   0.65968   0.00000  Uiso   1.00
H1488  H     0.55380   0.59896   0.68913   0.00000  Uiso   1.00
C1489  C     0.62758   0.56873   0.68892   0.00000  Uiso   1.00
H1490  H     0.62575   0.54127   0.70264   0.00000  Uiso   1.00
H1491  H     0.60566   0.57016   0.66686   0.00000  Uiso   1.00
H1492  H     0.65396   0.57084   0.67310   0.00000  Uiso   1.00
C1493  C     0.81925   0.87548   0.18826   0.00000  Uiso   1.00
H1494  H     0.79848   0.89736   0.19122   0.00000  Uiso   1.00
H1495  H     0.83243   0.87931   0.15952   0.00000  Uiso   1.00
H1496  H     0.80404   0.84917   0.18872   0.00000  Uiso   1.00
C1497  C     0.56995   0.87383   0.68757   0.00000  Uiso   1.00
H1498  H     0.54888   0.85230   0.69087   0.00000  Uiso   1.00
H1499  H     0.55502   0.90031   0.68729   0.00000  Uiso   1.00
H1500  H     0.58333   0.86929   0.65905   0.00000  Uiso   1.00
C1501  C     0.92917   0.62704   0.31326   0.00000  Uiso   1.00
H1502  H     0.95041   0.64839   0.30985   0.00000  Uiso   1.00
H1503  H     0.91544   0.63214   0.34149   0.00000  Uiso   1.00
H1504  H     0.94397   0.60050   0.31428   0.00000  Uiso   1.00
C1505  C     0.88695   0.94590   0.71135   0.00000  Uiso   1.00
H1506  H     0.88503   0.96822   0.73311   0.00000  Uiso   1.00
H1507  H     0.91355   0.94919   0.69652   0.00000  Uiso   1.00
H1508  H     0.86534   0.94995   0.68907   0.00000  Uiso   1.00
C1509  C     0.61302   0.55407   0.28856   0.00000  Uiso   1.00
H1510  H     0.61493   0.53177   0.26677   0.00000  Uiso   1.00
H1511  H     0.63461   0.54999   0.31084   0.00000  Uiso   1.00
H1512  H     0.58642   0.55077   0.30338   0.00000  Uiso   1.00
C1513  C     0.88010   0.67848   0.81368   0.00000  Uiso   1.00
H1514  H     0.90702   0.67548   0.82825   0.00000  Uiso   1.00
H1515  H     0.87792   0.70656   0.80150   0.00000  Uiso   1.00
H1516  H     0.85907   0.67611   0.83658   0.00000  Uiso   1.00
C1517  C     0.62019   0.82096   0.18681   0.00000  Uiso   1.00
H1518  H     0.59338   0.82386   0.17196   0.00000  Uiso   1.00
H1519  H     0.64141   0.82306   0.16409   0.00000  Uiso   1.00
H1520  H     0.62223   0.79300   0.19932   0.00000  Uiso   1.00
C1521  C     0.92829   0.63013   0.68622   0.00000  Uiso   1.00
H1522  H     0.95639   0.62800   0.69830   0.00000  Uiso   1.00
H1523  H     0.92588   0.60911   0.66331   0.00000  Uiso   1.00
H1524  H     0.92520   0.65708   0.67169   0.00000  Uiso   1.00
C1525  C     0.57099   0.87286   0.31335   0.00000  Uiso   1.00
H1526  H     0.54986   0.85138   0.31007   0.00000  Uiso   1.00
H1527  H     0.58484   0.86789   0.34155   0.00000  Uiso   1.00
H1528  H     0.55606   0.89932   0.31433   0.00000  Uiso   1.00
C1529  C     0.80519   0.86131   0.79011   0.00000  Uiso   1.00
H1530  H     0.78583   0.88461   0.78932   0.00000  Uiso   1.00
H1531  H     0.79093   0.83760   0.77678   0.00000  Uiso   1.00
H1532  H     0.81061   0.85567   0.82125   0.00000  Uiso   1.00
C1533  C     0.69483   0.63871   0.20993   0.00000  Uiso   1.00
H1534  H     0.71419   0.61541   0.21071   0.00000  Uiso   1.00
H1535  H     0.68942   0.64437   0.17879   0.00000  Uiso   1.00
H1536  H     0.70909   0.66242   0.22329   0.00000  Uiso   1.00
C1537  C     0.62111   0.82008   0.81242   0.00000  Uiso   1.00
H1538  H     0.62302   0.79229   0.79949   0.00000  Uiso   1.00
H1539  H     0.64262   0.82190   0.83488   0.00000  Uiso   1.00
H1540  H     0.59449   0.82274   0.82765   0.00000  Uiso   1.00
C1541  C     0.87989   0.67890   0.18666   0.00000  Uiso   1.00
H1542  H     0.87787   0.70690   0.19904   0.00000  Uiso   1.00
H1543  H     0.90670   0.67593   0.17188   0.00000  Uiso   1.00
H1544  H     0.85869   0.67675   0.16390   0.00000  Uiso   1.00
C1545  C     0.68096   0.62473   0.81153   0.00000  Uiso   1.00
H1546  H     0.70170   0.60282   0.80858   0.00000  Uiso   1.00
H1547  H     0.69619   0.65103   0.81089   0.00000  Uiso   1.00
H1548  H     0.66787   0.62103   0.84033   0.00000  Uiso   1.00
C1549  C     0.87218   0.93103   0.31132   0.00000  Uiso   1.00
H1550  H     0.84576   0.92884   0.32703   0.00000  Uiso   1.00
H1551  H     0.89403   0.92953   0.33345   0.00000  Uiso   1.00
H1552  H     0.87404   0.95854   0.29772   0.00000  Uiso   1.00
C1553  C     0.93075   0.87452   0.31174   0.00000  Uiso   1.00
H1554  H     0.95152   0.85263   0.30878   0.00000  Uiso   1.00
H1555  H     0.94596   0.90083   0.31128   0.00000  Uiso   1.00
H1556  H     0.91756   0.87069   0.34048   0.00000  Uiso   1.00
C1557  C     0.62241   0.68127   0.81109   0.00000  Uiso   1.00
H1558  H     0.62424   0.70873   0.79737   0.00000  Uiso   1.00
H1559  H     0.59604   0.67915   0.82690   0.00000  Uiso   1.00
H1560  H     0.64433   0.67984   0.83315   0.00000  Uiso   1.00
C1561  C     0.82083   0.62296   0.18673   0.00000  Uiso   1.00
H1562  H     0.79959   0.60161   0.19015   0.00000  Uiso   1.00
H1563  H     0.80603   0.64950   0.18572   0.00000  Uiso   1.00
H1564  H     0.83456   0.61787   0.15851   0.00000  Uiso   1.00
C1565  C     0.68005   0.87616   0.81243   0.00000  Uiso   1.00
H1566  H     0.70112   0.89770   0.80913   0.00000  Uiso   1.00
H1567  H     0.66668   0.88070   0.84095   0.00000  Uiso   1.00
H1568  H     0.69499   0.84968   0.81271   0.00000  Uiso   1.00
C1569  C     0.63697   0.69593   0.21142   0.00000  Uiso   1.00
H1570  H     0.63506   0.71823   0.23321   0.00000  Uiso   1.00
H1571  H     0.66358   0.69922   0.19660   0.00000  Uiso   1.00
H1572  H     0.61538   0.70000   0.18914   0.00000  Uiso   1.00
C1573  C     0.86305   0.80410   0.78864   0.00000  Uiso   1.00
H1574  H     0.86496   0.78178   0.76687   0.00000  Uiso   1.00
H1575  H     0.88466   0.80004   0.81091   0.00000  Uiso   1.00
H1576  H     0.83646   0.80081   0.80347   0.00000  Uiso   1.00
C1577  C     0.62983   0.92901   0.31320   0.00000  Uiso   1.00
H1578  H     0.65663   0.92608   0.32804   0.00000  Uiso   1.00
H1579  H     0.62781   0.95698   0.30071   0.00000  Uiso   1.00
H1580  H     0.60860   0.92692   0.33591   0.00000  Uiso   1.00
C1581  C     0.87271   0.57076   0.68682   0.00000  Uiso   1.00
H1582  H     0.85158   0.54932   0.69041   0.00000  Uiso   1.00
H1583  H     0.86733   0.58441   0.65860   0.00000  Uiso   1.00
H1584  H     0.89933   0.55614   0.68567   0.00000  Uiso   1.00
C1585  C     0.51655   0.81799   0.39589   0.00000  Uiso   1.00
H1586  H     0.51353   0.81588   0.36401   0.00000  Uiso   1.00
H1587  H     0.99718   0.83966   0.40530   0.00000  Uiso   1.00
H1588  H     0.54506   0.82692   0.40176   0.00000  Uiso   1.00
C1589  C     0.98344   0.68200   0.60412   0.00000  Uiso   1.00
H1590  H     0.98636   0.68411   0.63601   0.00000  Uiso   1.00
H1591  H     0.95496   0.67304   0.59817   0.00000  Uiso   1.00
H1592  H     0.50285   0.66034   0.59477   0.00000  Uiso   1.00
C1593  C     0.68179   0.98456   0.39586   0.00000  Uiso   1.00
H1594  H     0.68403   0.98710   0.36394   0.00000  Uiso   1.00
H1595  H     0.67227   0.95628   0.40207   0.00000  Uiso   1.00
H1596  H     0.66052   0.50449   0.40495   0.00000  Uiso   1.00
C1597  C     0.81819   0.51547   0.60413   0.00000  Uiso   1.00
H1598  H     0.81595   0.51285   0.63604   0.00000  Uiso   1.00
H1599  H     0.83948   0.99557   0.59500   0.00000  Uiso   1.00
H1600  H     0.82768   0.54376   0.59798   0.00000  Uiso   1.00
C1601  C     0.98326   0.68205   0.39593   0.00000  Uiso   1.00
H1602  H     0.98617   0.68417   0.36404   0.00000  Uiso   1.00
H1603  H     0.50260   0.66032   0.40529   0.00000  Uiso   1.00
H1604  H     0.95475   0.67319   0.40186   0.00000  Uiso   1.00
C1605  C     0.51679   0.81793   0.60408   0.00000  Uiso   1.00
H1606  H     0.51389   0.81582   0.63596   0.00000  Uiso   1.00
H1607  H     0.54530   0.82678   0.59813   0.00000  Uiso   1.00
H1608  H     0.99745   0.83967   0.59472   0.00000  Uiso   1.00
C1609  C     0.81826   0.51516   0.39591   0.00000  Uiso   1.00
H1610  H     0.81603   0.51249   0.36400   0.00000  Uiso   1.00
H1611  H     0.82784   0.54343   0.40199   0.00000  Uiso   1.00
H1612  H     0.83948   0.99521   0.40514   0.00000  Uiso   1.00
C1613  C     0.68173   0.98487   0.60409   0.00000  Uiso   1.00
H1614  H     0.68396   0.98754   0.63600   0.00000  Uiso   1.00
H1615  H     0.66051   0.50483   0.59486   0.00000  Uiso   1.00
H1616  H     0.67214   0.95660   0.59800   0.00000  Uiso   1.00
C1617  C     0.76691   0.56790   0.89589   0.00000  Uiso   1.00
H1618  H     0.76383   0.56583   0.86402   0.00000  Uiso   1.00
H1619  H     0.74769   0.58969   0.90533   0.00000  Uiso   1.00
H1620  H     0.79548   0.57665   0.90172   0.00000  Uiso   1.00
C1621  C     0.73312   0.93209   0.10411   0.00000  Uiso   1.00
H1622  H     0.73621   0.93416   0.13598   0.00000  Uiso   1.00
H1623  H     0.70455   0.92332   0.09829   0.00000  Uiso   1.00
H1624  H     0.75235   0.91030   0.09466   0.00000  Uiso   1.00
C1625  C     0.93149   0.73597   0.89584   0.00000  Uiso   1.00
H1626  H     0.93385   0.73814   0.86390   0.00000  Uiso   1.00
H1627  H     0.92128   0.70799   0.90230   0.00000  Uiso   1.00
H1628  H     0.91068   0.75648   0.90469   0.00000  Uiso   1.00
C1629  C     0.56851   0.76402   0.10416   0.00000  Uiso   1.00
H1630  H     0.56614   0.76184   0.13610   0.00000  Uiso   1.00
H1631  H     0.58932   0.74351   0.09529   0.00000  Uiso   1.00
H1632  H     0.57872   0.79200   0.09771   0.00000  Uiso   1.00
C1633  C     0.73287   0.93214   0.89593   0.00000  Uiso   1.00
H1634  H     0.73583   0.93422   0.86405   0.00000  Uiso   1.00
H1635  H     0.75206   0.91030   0.90533   0.00000  Uiso   1.00
H1636  H     0.70429   0.92346   0.90183   0.00000  Uiso   1.00
C1637  C     0.76708   0.56786   0.10406   0.00000  Uiso   1.00
H1638  H     0.76407   0.56579   0.13594   0.00000  Uiso   1.00
H1639  H     0.79566   0.57655   0.09820   0.00000  Uiso   1.00
H1640  H     0.74789   0.58970   0.09463   0.00000  Uiso   1.00
C1641  C     0.56856   0.76368   0.89589   0.00000  Uiso   1.00
H1642  H     0.57886   0.79165   0.90221   0.00000  Uiso   1.00
H1643  H     0.58931   0.74314   0.90489   0.00000  Uiso   1.00
H1644  H     0.56621   0.76136   0.86396   0.00000  Uiso   1.00
C1645  C     0.93144   0.73629   0.10411   0.00000  Uiso   1.00
H1646  H     0.92115   0.70831   0.09777   0.00000  Uiso   1.00
H1647  H     0.93379   0.73858   0.13604   0.00000  Uiso   1.00
H1648  H     0.91069   0.75683   0.09513   0.00000  Uiso   1.00
loop_
_geom_bond_atom_site_label_1
_geom_bond_atom_site_label_2
_geom_bond_distance
_geom_bond_site_symmetry_2
_ccdc_geom_bond_type
Zn1    O56     1.951   .     S
Zn1    O41     1.944   .     S
Zn1    O103    1.930   .     S
Zn1    O924    1.930   1_545 S
Zn2    O55     1.951   .     S
Zn2    O99     1.930   .     S
Zn2    O42     1.944   .     S
Zn2    O928    1.930   1_545 S
Zn3    O513    1.931   1_455 S
Zn3    O58     1.951   .     S
Zn3    O43     1.944   .     S
Zn3    O94     1.930   .     S
Zn4    O505    1.930   1_455 S
Zn4    O44     1.944   .     S
Zn4    O57     1.951   .     S
Zn4    O102    1.931   .     S
Zn5    O41     1.945   .     S
Zn5    O60     1.951   .     S
Zn5    O96     1.930   .     S
Zn5    O931    1.930   1_545 S
Zn6    O42     1.945   .     S
Zn6    O59     1.951   .     S
Zn6    O108    1.930   .     S
Zn6    O919    1.930   1_545 S
Zn7    O105    1.930   .     S
Zn7    O43     1.944   .     S
Zn7    O54     1.951   .     S
Zn7    O510    1.930   1_455 S
Zn8    O53     1.951   .     S
Zn8    O518    1.930   1_455 S
Zn8    O44     1.944   .     S
Zn8    O97     1.930   .     S
Zn9    O48     1.951   .     S
Zn9    O87     1.930   .     S
Zn9    O84     1.930   .     S
Zn9    O456    1.944   .     S
Zn10   O47     1.951   .     S
Zn10   O88     1.930   .     S
Zn10   O83     1.930   .     S
Zn10   O43     1.944   .     S
Zn11   O85     1.931   .     S
Zn11   O50     1.951   .     S
Zn11   O78     1.930   .     S
Zn11   O866    1.944   .     S
Zn12   O49     1.951   .     S
Zn12   O86     1.931   .     S
Zn12   O77     1.930   .     S
Zn12   O41     1.944   .     S
Zn13   O91     1.930   .     S
Zn13   O80     1.930   .     S
Zn13   O52     1.951   .     S
Zn13   O44     1.945   .     S
Zn14   O455    1.945   .     S
Zn14   O79     1.930   .     S
Zn14   O51     1.951   .     S
Zn14   O92     1.930   .     S
Zn15   O42     1.944   .     S
Zn15   O89     1.930   .     S
Zn15   O82     1.930   .     S
Zn15   O46     1.951   .     S
Zn16   O45     1.951   .     S
Zn16   O81     1.930   .     S
Zn16   O90     1.930   .     S
Zn16   O865    1.944   .     S
C17    C185    1.412   .     A
C17    C33     1.413   .     A
C17    C349    1.524   .     S
C18    C186    1.412   .     A
C18    C353    1.524   .     S
C18    C446    1.413   .     S
C19    C35     1.413   .     A
C19    C357    1.524   .     S
C19    C187    1.412   .     A
C20    C188    1.412   .     A
C20    C361    1.524   .     S
C20    C36     1.413   .     A
C21    C365    1.524   .     S
C21    C181    1.412   .     A
C21    C445    1.413   .     S
C22    C34     1.413   .     A
C22    C182    1.412   .     A
C22    C369    1.524   .     S
C23    C373    1.524   .     S
C23    C183    1.412   .     A
C23    C859    1.413   1_545 S
C24    C184    1.412   .     A
C24    C377    1.524   .     S
C24    C860    1.413   .     S
C25    C193    1.412   .     A
C25    C381    1.524   .     S
C25    C37     1.413   .     S
C26    C385    1.524   .     S
C26    C862    1.413   .     A
C26    C194    1.412   .     A
C27    C195    1.413   .     A
C27    C389    1.525   .     S
C27    C451    1.413   .     S
C28    C196    1.412   .     A
C28    C393    1.524   .     S
C28    C452    1.413   1_455 S
C29    C397    1.524   .     S
C29    C189    1.412   .     A
C29    C861    1.413   .     A
C30    C401    1.524   .     S
C30    C190    1.412   .     A
C30    C38     1.413   .     S
C31    C405    1.525   .     S
C31    C191    1.412   .     A
C31    C39     1.413   .     A
C32    C409    1.525   .     S
C32    C192    1.412   .     A
C32    C40     1.413   .     A
C33    C127    1.453   .     S
C33    C433    1.413   1_455 S
C34    C430    1.413   1_455 S
C34    C128    1.453   .     S
C35    C125    1.453   .     S
C35    C847    1.413   .     S
C36    C126    1.453   .     S
C36    C848    1.413   1_545 S
C37    C955    1.453   1_545 S
C37    C853    1.413   1_545 A
C38    C850    1.413   1_545 A
C38    C132    1.453   .     S
C39    C439    1.413   1_455 S
C39    C541    1.453   1_455 S
C40    C440    1.413   .     S
C40    C542    1.453   .     S
O41    Zn840   1.944   1_545 S
O42    Zn835   1.944   1_545 S
O43    Zn426   1.945   1_455 S
O44    Zn421   1.944   1_455 S
O45    C125    1.273   .     A
O46    C126    1.273   .     A
O47    C127    1.274   .     A
O48    C540    1.274   .     A
O49    C949    1.273   1_545 S
O50    C950    1.273   .     S
O51    C539    1.274   .     S
O52    C128    1.274   .     S
O53    C541    1.273   1_455 A
O54    C130    1.273   .     S
O55    C955    1.274   1_545 S
O56    C132    1.274   .     A
O57    C541    1.273   1_455 A
O58    C130    1.273   .     S
O59    C955    1.274   1_545 S
O60    C132    1.274   .     A
H61    C109    1.081   .     S
H62    C110    1.081   .     S
H63    C111    1.081   .     S
H64    C112    1.081   .     S
H65    C113    1.081   .     S
H66    C114    1.081   .     S
H67    C115    1.081   .     S
H68    C116    1.081   .     S
H69    C117    1.081   .     S
H70    C118    1.081   .     S
H71    C119    1.081   .     S
H72    C120    1.081   .     S
H73    C121    1.081   .     S
H74    C122    1.081   .     S
H75    C123    1.081   .     S
H76    C124    1.081   .     S
O77    C133    1.277   .     A
O78    C134    1.277   .     A
O79    C135    1.278   .     A
O80    C136    1.278   .     A
O81    C137    1.276   .     A
O82    C138    1.276   .     A
O83    C139    1.277   .     A
O84    C140    1.277   .     A
O85    C141    1.276   .     A
O86    C142    1.276   .     A
O87    C143    1.276   .     A
O88    C144    1.276   .     A
O89    C145    1.277   .     A
O90    C146    1.276   .     A
O91    C147    1.277   .     A
O92    C148    1.277   .     A
O93    Zn416   1.930   .     S
O93    C143    1.277   .     A
O94    C144    1.277   .     A
O95    C141    1.278   .     A
O95    Zn830   1.930   .     S
O96    C142    1.278   .     A
O97    C147    1.276   .     A
O98    C148    1.276   .     A
O98    Zn419   1.930   .     S
O99    C145    1.276   .     A
O100   C146    1.277   .     A
O100   Zn825   1.930   .     S
O101   Zn415   1.931   .     S
O101   C135    1.276   .     A
O102   C136    1.276   .     A
O103   C133    1.276   .     A
O104   C134    1.276   .     A
O104   Zn826   1.930   .     S
O105   C139    1.276   .     A
O106   C140    1.277   .     A
O106   Zn420   1.930   .     S
O107   C137    1.277   .     A
O107   Zn829   1.930   .     S
O108   C138    1.277   .     A
C109   C114    1.383   .     A
C109   C181    1.405   .     A
C110   C182    1.405   .     A
C110   C113    1.383   .     A
C111   C183    1.405   .     A
C111   C116    1.383   .     A
C112   C184    1.405   .     A
C112   C115    1.383   .     A
C113   C185    1.405   .     A
C114   C186    1.405   .     A
C115   C187    1.405   .     A
C116   C188    1.405   .     A
C117   C189    1.405   .     A
C117   C122    1.383   1_556 S
C118   C190    1.405   .     A
C118   C121    1.383   1_554 S
C119   C191    1.405   .     A
C119   C124    1.383   1_556 S
C120   C192    1.405   .     A
C120   C123    1.383   1_554 S
C121   C193    1.405   .     A
C121   C118    1.383   1_556 S
C122   C194    1.405   .     A
C122   C117    1.383   1_554 S
C123   C195    1.405   .     A
C123   C120    1.383   1_556 S
C124   C196    1.405   .     A
C124   C119    1.383   1_554 S
C125   O873    1.273   .     S
C126   O874    1.273   1_545 S
C127   O463    1.274   1_455 S
C128   O460    1.274   1_455 A
C129   O465    1.273   .     A
C129   O469    1.273   .     A
C129   C451    1.453   .     S
C130   C452    1.453   1_455 S
C131   C861    1.453   .     S
C131   O879    1.274   .     S
C131   O883    1.274   .     S
C133   C199    1.452   .     S
C134   C200    1.452   .     S
C135   C201    1.452   .     S
C136   C202    1.452   .     S
C137   C203    1.452   .     S
C138   C204    1.452   .     S
C139   C197    1.452   .     S
C140   C198    1.454   .     S
C141   C207    1.453   .     S
C142   C208    1.453   .     S
C143   C209    1.452   .     S
C144   C210    1.452   .     S
C145   C211    1.450   .     S
C146   C212    1.452   .     S
C147   C205    1.452   .     S
C148   C206    1.452   .     S
C149   C221    1.521   .     S
C149   C212    1.415   .     A
C149   C164    1.410   .     A
C150   C163    1.410   .     A
C150   C225    1.521   .     S
C150   C211    1.417   .     A
C151   C229    1.521   .     S
C151   C210    1.414   .     A
C151   C162    1.410   .     A
C152   C209    1.414   .     A
C152   C161    1.410   .     A
C152   C233    1.521   .     S
C153   C208    1.413   .     A
C153   C160    1.410   .     A
C153   C237    1.523   .     S
C154   C207    1.413   .     A
C154   C241    1.523   .     S
C154   C159    1.410   .     A
C155   C158    1.410   .     A
C155   C245    1.523   .     S
C155   C206    1.413   .     A
C156   C249    1.521   .     S
C156   C205    1.414   .     A
C156   C157    1.410   .     A
C157   C204    1.413   .     A
C157   C253    1.523   .     S
C158   C257    1.521   .     S
C158   C203    1.414   .     A
C159   C202    1.414   .     A
C159   C261    1.521   .     S
C160   C201    1.415   .     A
C160   C265    1.521   .     S
C161   C200    1.413   .     A
C161   C269    1.523   .     S
C162   C273    1.523   .     S
C162   C199    1.413   .     A
C163   C198    1.411   .     A
C163   C277    1.523   .     S
C164   C197    1.413   .     A
C164   C281    1.523   .     S
C165   C198    1.411   .     A
C165   C285    1.523   .     S
C165   C180    1.410   .     A
C166   C289    1.521   .     S
C166   C197    1.415   .     A
C166   C179    1.410   .     A
C167   C293    1.521   .     S
C167   C200    1.414   .     A
C167   C178    1.410   .     A
C168   C199    1.414   .     A
C168   C177    1.410   .     A
C168   C297    1.521   .     S
C169   C176    1.410   .     A
C169   C301    1.523   .     S
C169   C202    1.413   .     A
C170   C305    1.523   .     S
C170   C175    1.410   .     A
C170   C201    1.413   .     A
C171   C204    1.414   .     A
C171   C174    1.410   .     A
C171   C309    1.521   .     S
C172   C203    1.413   .     A
C172   C173    1.410   .     A
C172   C313    1.523   .     S
C173   C206    1.414   .     A
C173   C317    1.521   .     S
C174   C205    1.413   .     A
C174   C321    1.523   .     S
C175   C325    1.521   .     S
C175   C208    1.415   .     A
C176   C329    1.521   .     S
C176   C207    1.414   .     A
C177   C210    1.413   .     A
C177   C333    1.523   .     S
C178   C337    1.523   .     S
C178   C209    1.413   .     A
C179   C341    1.523   .     S
C179   C212    1.413   .     A
C180   C345    1.522   .     S
C180   C211    1.416   .     A
C181   C625    1.417   .     S
C182   C214    1.417   .     A
C183   C215    1.417   .     A
C184   C1040   1.417   .     S
C185   C213    1.417   .     A
C186   C626    1.417   .     S
C187   C1039   1.417   .     S
C188   C216    1.417   .     A
C189   C1041   1.417   .     A
C190   C1042   1.417   1_545 S
C191   C219    1.417   .     A
C192   C220    1.417   .     A
C193   C217    1.417   .     S
C194   C218    1.417   .     A
C195   C631    1.417   .     S
C196   C632    1.417   1_455 S
C213   C214    1.422   .     A
C213   C593    1.417   1_455 S
C214   C598    1.417   1_455 S
C215   C216    1.422   .     A
C215   C1011   1.417   1_545 S
C216   C1008   1.417   1_545 S
C217   C1013   1.417   1_545 A
C217   C1042   1.422   1_546 S
C218   C1014   1.417   .     S
C218   C1041   1.422   1_554 S
C219   C607    1.417   1_455 S
C219   C632    1.422   1_456 S
C220   C608    1.417   .     S
C220   C631    1.422   1_554 S
C221   H222    1.107   .     S
C221   H224    1.110   .     S
C221   H223    1.110   .     S
C225   H228    1.110   .     S
C225   H227    1.110   .     S
C225   H226    1.107   .     S
C229   H230    1.107   .     S
C229   H232    1.110   .     S
C229   H231    1.110   .     S
C233   H234    1.107   .     S
C233   H236    1.110   .     S
C233   H235    1.110   .     S
C237   H238    1.111   .     S
C237   H239    1.105   .     S
C237   H240    1.110   .     S
C241   H244    1.105   .     S
C241   H242    1.111   .     S
C241   H243    1.110   .     S
C245   H246    1.110   .     S
C245   H248    1.105   .     S
C245   H247    1.111   .     S
C249   H250    1.107   .     S
C249   H252    1.110   .     S
C249   H251    1.110   .     S
C253   H256    1.110   .     S
C253   H254    1.111   .     S
C253   H255    1.105   .     S
C257   H259    1.110   .     S
C257   H258    1.107   .     S
C257   H260    1.110   .     S
C261   H263    1.110   .     S
C261   H262    1.107   .     S
C261   H264    1.110   .     S
C265   H267    1.110   .     S
C265   H266    1.107   .     S
C265   H268    1.110   .     S
C269   H271    1.105   .     S
C269   H270    1.110   .     S
C269   H272    1.111   .     S
C273   H276    1.105   .     S
C273   H274    1.110   .     S
C273   H275    1.111   .     S
C277   H280    1.105   .     S
C277   H279    1.111   .     S
C277   H278    1.110   .     S
C281   H284    1.111   .     S
C281   H283    1.105   .     S
C281   H282    1.110   .     S
C285   H287    1.105   .     S
C285   H286    1.111   .     S
C285   H288    1.110   .     S
C289   H290    1.107   .     S
C289   H292    1.110   .     S
C289   H291    1.110   .     S
C293   H296    1.110   .     S
C293   H294    1.107   .     S
C293   H295    1.110   .     S
C297   H299    1.110   .     S
C297   H298    1.107   .     S
C297   H300    1.110   .     S
C301   H302    1.111   .     S
C301   H304    1.110   .     S
C301   H303    1.105   .     S
C305   H307    1.110   .     S
C305   H306    1.111   .     S
C305   H308    1.105   .     S
C309   H310    1.107   .     S
C309   H312    1.110   .     S
C309   H311    1.110   .     S
C313   H315    1.105   .     S
C313   H314    1.110   .     S
C313   H316    1.111   .     S
C317   H320    1.110   .     S
C317   H319    1.110   .     S
C317   H318    1.107   .     S
C321   H322    1.111   .     S
C321   H324    1.105   .     S
C321   H323    1.110   .     S
C325   H328    1.110   .     S
C325   H326    1.107   .     S
C325   H327    1.110   .     S
C329   H330    1.107   .     S
C329   H331    1.110   .     S
C329   H332    1.110   .     S
C333   H334    1.110   .     S
C333   H335    1.105   .     S
C333   H336    1.111   .     S
C337   H338    1.110   .     S
C337   H340    1.105   .     S
C337   H339    1.111   .     S
C341   H343    1.111   .     S
C341   H344    1.105   .     S
C341   H342    1.110   .     S
C345   H348    1.110   .     S
C345   H347    1.110   .     S
C345   H346    1.107   .     S
C349   H350    1.107   .     S
C349   H352    1.110   .     S
C349   H763    1.110   1_455 S
H351   C761    1.110   .     S
C353   H355    1.110   .     S
C353   H354    1.107   .     S
C353   H768    1.110   .     S
H356   C765    1.110   1_455 S
C357   H358    1.107   .     S
C357   H359    1.110   .     S
C357   H1184   1.110   .     S
H360   C1181   1.110   1_545 S
C361   H364    1.110   .     S
C361   H362    1.107   .     S
C361   H1187   1.110   1_545 S
H363   C1185   1.110   .     S
C365   H368    1.110   .     S
C365   H366    1.107   .     S
C365   H779    1.110   .     S
H367   C777    1.110   1_455 S
C369   H371    1.110   .     S
C369   H370    1.107   .     S
C369   H784    1.110   1_455 S
H372   C781    1.110   .     S
C373   H375    1.110   .     S
C373   H374    1.107   .     S
C373   H1200   1.110   1_545 S
H376   C1197   1.110   .     S
C377   H380    1.110   .     S
C377   H378    1.107   .     S
C377   H1203   1.110   .     S
H379   C1201   1.110   1_545 S
C381   H384    1.110   .     S
C381   H383    1.110   .     S
C381   H382    1.107   .     S
C385   H387    1.110   .     S
C385   H386    1.107   .     S
C385   H388    1.110   .     S
C389   H390    1.107   .     S
C389   H391    1.110   .     S
C389   H392    1.111   .     S
C393   H394    1.107   .     S
C393   H396    1.110   .     S
C393   H395    1.111   .     S
C397   H399    1.110   .     S
C397   H398    1.107   .     S
C397   H400    1.110   .     S
C401   H403    1.110   .     S
C401   H402    1.107   .     S
C401   H404    1.110   .     S
C405   H408    1.107   .     S
C405   H407    1.111   .     S
C405   H406    1.110   .     S
C409   H410    1.110   .     S
C409   H412    1.111   .     S
C409   H411    1.107   .     S
Zn413  O468    1.951   .     S
Zn413  O453    1.944   .     S
Zn413  O515    1.930   .     S
Zn413  O1336   1.930   1_545 S
Zn414  O467    1.951   .     S
Zn414  O511    1.930   .     S
Zn414  O454    1.944   .     S
Zn414  O1340   1.930   1_545 S
Zn415  O470    1.951   .     S
Zn415  O455    1.944   .     S
Zn415  O506    1.930   .     S
Zn416  O456    1.944   .     S
Zn416  O469    1.951   .     S
Zn416  O514    1.931   .     S
Zn417  O453    1.945   .     S
Zn417  O472    1.951   .     S
Zn417  O508    1.930   .     S
Zn417  O1343   1.930   1_545 S
Zn418  O454    1.945   .     S
Zn418  O471    1.951   .     S
Zn418  O520    1.930   .     S
Zn418  O1331   1.930   1_545 S
Zn419  O517    1.930   .     S
Zn419  O455    1.944   .     S
Zn419  O466    1.951   .     S
Zn420  O465    1.951   .     S
Zn420  O456    1.944   .     S
Zn420  O509    1.930   .     S
Zn421  O460    1.951   .     S
Zn421  O499    1.930   .     S
Zn421  O496    1.930   .     S
Zn421  O44     1.944   1_655 S
Zn422  O459    1.951   .     S
Zn422  O500    1.930   .     S
Zn422  O495    1.930   .     S
Zn422  O455    1.944   .     S
Zn423  O497    1.931   .     S
Zn423  O462    1.951   .     S
Zn423  O490    1.930   .     S
Zn423  O1278   1.944   .     S
Zn424  O461    1.951   .     S
Zn424  O498    1.931   .     S
Zn424  O489    1.930   .     S
Zn424  O453    1.944   .     S
Zn425  O503    1.930   .     S
Zn425  O492    1.930   .     S
Zn425  O464    1.951   .     S
Zn425  O456    1.945   .     S
Zn426  O43     1.945   1_655 S
Zn426  O491    1.930   .     S
Zn426  O463    1.951   .     S
Zn426  O504    1.930   .     S
Zn427  O454    1.944   .     S
Zn427  O501    1.930   .     S
Zn427  O494    1.930   .     S
Zn427  O458    1.951   .     S
Zn428  O457    1.951   .     S
Zn428  O493    1.930   .     S
Zn428  O502    1.930   .     S
Zn428  O1277   1.944   .     S
C429   C597    1.412   .     A
C429   C445    1.413   .     A
C429   C761    1.524   .     S
C430   C598    1.412   .     A
C430   C765    1.524   .     S
C430   C34     1.413   1_655 S
C431   C447    1.413   .     A
C431   C769    1.524   .     S
C431   C599    1.412   .     A
C432   C600    1.412   .     A
C432   C773    1.524   .     S
C432   C448    1.413   .     A
C433   C777    1.524   .     S
C433   C593    1.412   .     A
C433   C33     1.413   1_655 S
C434   C446    1.413   .     A
C434   C594    1.412   .     A
C434   C781    1.524   .     S
C435   C785    1.524   .     S
C435   C595    1.412   .     A
C435   C1271   1.413   1_545 S
C436   C596    1.412   .     A
C436   C789    1.524   .     S
C436   C1272   1.413   .     S
C437   C605    1.412   .     A
C437   C793    1.524   .     S
C437   C449    1.413   .     S
C438   C797    1.524   .     S
C438   C1274   1.413   .     A
C438   C606    1.412   .     A
C439   C607    1.413   .     A
C439   C801    1.525   .     S
C439   C39     1.413   1_655 S
C440   C608    1.412   .     A
C440   C805    1.524   .     S
C441   C809    1.524   .     S
C441   C601    1.412   .     A
C441   C1273   1.413   .     A
C442   C813    1.524   .     S
C442   C602    1.412   .     A
C442   C450    1.413   .     S
C443   C817    1.525   .     S
C443   C603    1.412   .     A
C443   C451    1.413   .     A
C444   C821    1.525   .     S
C444   C604    1.412   .     A
C444   C452    1.413   .     A
C445   C539    1.453   .     S
C446   C540    1.453   .     S
C447   C537    1.453   .     S
C447   C1259   1.413   .     S
C448   C538    1.453   .     S
C448   C1260   1.413   1_545 S
C449   C1367   1.453   1_545 S
C449   C1265   1.413   1_545 A
C450   C1262   1.413   1_545 A
C450   C544    1.453   .     S
C452   C28     1.413   1_655 S
C452   C130    1.453   1_655 S
O453   Zn1252  1.944   1_545 S
O454   Zn1247  1.944   1_545 S
O457   C537    1.273   .     A
O458   C538    1.273   .     A
O459   C539    1.274   .     A
O460   C128    1.274   1_655 A
O461   C1361   1.273   1_545 S
O462   C1362   1.273   .     S
O463   C127    1.274   1_655 S
O464   C540    1.274   .     S
O466   C542    1.273   .     S
O467   C1367   1.274   1_545 S
O468   C544    1.274   .     A
O470   C542    1.273   .     S
O471   C1367   1.274   1_545 S
O472   C544    1.274   .     A
H473   C521    1.081   .     S
H474   C522    1.081   .     S
H475   C523    1.081   .     S
H476   C524    1.081   .     S
H477   C525    1.081   .     S
H478   C526    1.081   .     S
H479   C527    1.081   .     S
H480   C528    1.081   .     S
H481   C529    1.081   .     S
H482   C530    1.081   .     S
H483   C531    1.081   .     S
H484   C532    1.081   .     S
H485   C533    1.081   .     S
H486   C534    1.081   .     S
H487   C535    1.081   .     S
H488   C536    1.081   .     S
O489   C545    1.277   .     A
O490   C546    1.277   .     A
O491   C547    1.278   .     A
O492   C548    1.278   .     A
O493   C549    1.276   .     A
O494   C550    1.276   .     A
O495   C551    1.277   .     A
O496   C552    1.277   .     A
O497   C553    1.276   .     A
O498   C554    1.276   .     A
O499   C555    1.276   .     A
O500   C556    1.276   .     A
O501   C557    1.277   .     A
O502   C558    1.276   .     A
O503   C559    1.277   .     A
O504   C560    1.277   .     A
O505   Zn4     1.930   1_655 S
O505   C555    1.277   .     A
O506   C556    1.277   .     A
O507   C553    1.278   .     A
O507   Zn1242  1.930   .     S
O508   C554    1.278   .     A
O509   C559    1.276   .     A
O510   C560    1.276   .     A
O510   Zn7     1.930   1_655 S
O511   C557    1.276   .     A
O512   C558    1.277   .     A
O512   Zn1237  1.930   .     S
O513   Zn3     1.931   1_655 S
O513   C547    1.276   .     A
O514   C548    1.276   .     A
O515   C545    1.276   .     A
O516   C546    1.276   .     A
O516   Zn1238  1.930   .     S
O517   C551    1.276   .     A
O518   C552    1.277   .     A
O518   Zn8     1.930   1_655 S
O519   C549    1.277   .     A
O519   Zn1241  1.930   .     S
O520   C550    1.277   .     A
C521   C526    1.383   .     A
C521   C593    1.405   .     A
C522   C594    1.405   .     A
C522   C525    1.383   .     A
C523   C595    1.405   .     A
C523   C528    1.383   .     A
C524   C596    1.405   .     A
C524   C527    1.383   .     A
C525   C597    1.405   .     A
C526   C598    1.405   .     A
C527   C599    1.405   .     A
C528   C600    1.405   .     A
C529   C601    1.405   .     A
C529   C534    1.383   1_556 S
C530   C602    1.405   .     A
C530   C533    1.383   1_554 S
C531   C603    1.405   .     A
C531   C536    1.383   1_556 S
C532   C604    1.405   .     A
C532   C535    1.383   1_554 S
C533   C605    1.405   .     A
C533   C530    1.383   1_556 S
C534   C606    1.405   .     A
C534   C529    1.383   1_554 S
C535   C607    1.405   .     A
C535   C532    1.383   1_556 S
C536   C608    1.405   .     A
C536   C531    1.383   1_554 S
C537   O1285   1.273   .     S
C538   O1286   1.273   1_545 S
C541   O53     1.273   1_655 A
C541   O57     1.273   1_655 A
C541   C39     1.453   1_655 S
C543   C1273   1.453   .     S
C543   O1291   1.274   .     S
C543   O1295   1.274   .     S
C545   C611    1.452   .     S
C546   C612    1.452   .     S
C547   C613    1.452   .     S
C548   C614    1.452   .     S
C549   C615    1.452   .     S
C550   C616    1.452   .     S
C551   C609    1.452   .     S
C552   C610    1.454   .     S
C553   C619    1.453   .     S
C554   C620    1.453   .     S
C555   C621    1.452   .     S
C556   C622    1.452   .     S
C557   C623    1.450   .     S
C558   C624    1.452   .     S
C559   C617    1.452   .     S
C560   C618    1.452   .     S
C561   C633    1.521   .     S
C561   C624    1.415   .     A
C561   C576    1.410   .     A
C562   C575    1.410   .     A
C562   C637    1.521   .     S
C562   C623    1.417   .     A
C563   C641    1.521   .     S
C563   C622    1.414   .     A
C563   C574    1.410   .     A
C564   C621    1.414   .     A
C564   C573    1.410   .     A
C564   C645    1.521   .     S
C565   C620    1.413   .     A
C565   C572    1.410   .     A
C565   C649    1.523   .     S
C566   C619    1.413   .     A
C566   C653    1.523   .     S
C566   C571    1.410   .     A
C567   C570    1.410   .     A
C567   C657    1.523   .     S
C567   C618    1.413   .     A
C568   C661    1.521   .     S
C568   C617    1.414   .     A
C568   C569    1.410   .     A
C569   C616    1.413   .     A
C569   C665    1.523   .     S
C570   C669    1.521   .     S
C570   C615    1.414   .     A
C571   C614    1.414   .     A
C571   C673    1.521   .     S
C572   C613    1.415   .     A
C572   C677    1.521   .     S
C573   C612    1.413   .     A
C573   C681    1.523   .     S
C574   C685    1.523   .     S
C574   C611    1.413   .     A
C575   C610    1.411   .     A
C575   C689    1.523   .     S
C576   C609    1.413   .     A
C576   C693    1.523   .     S
C577   C610    1.411   .     A
C577   C697    1.523   .     S
C577   C592    1.410   .     A
C578   C701    1.521   .     S
C578   C609    1.415   .     A
C578   C591    1.410   .     A
C579   C705    1.521   .     S
C579   C612    1.414   .     A
C579   C590    1.410   .     A
C580   C611    1.414   .     A
C580   C589    1.410   .     A
C580   C709    1.521   .     S
C581   C588    1.410   .     A
C581   C713    1.523   .     S
C581   C614    1.413   .     A
C582   C717    1.523   .     S
C582   C587    1.410   .     A
C582   C613    1.413   .     A
C583   C616    1.414   .     A
C583   C586    1.410   .     A
C583   C721    1.521   .     S
C584   C615    1.413   .     A
C584   C585    1.410   .     A
C584   C725    1.523   .     S
C585   C618    1.414   .     A
C585   C729    1.521   .     S
C586   C617    1.413   .     A
C586   C733    1.523   .     S
C587   C737    1.521   .     S
C587   C620    1.415   .     A
C588   C741    1.521   .     S
C588   C619    1.414   .     A
C589   C622    1.413   .     A
C589   C745    1.523   .     S
C590   C749    1.523   .     S
C590   C621    1.413   .     A
C591   C753    1.523   .     S
C591   C624    1.413   .     A
C592   C757    1.522   .     S
C592   C623    1.416   .     A
C593   C213    1.417   1_655 S
C594   C626    1.417   .     A
C595   C627    1.417   .     A
C596   C1452   1.417   .     S
C597   C625    1.417   .     A
C598   C214    1.417   1_655 S
C599   C1451   1.417   .     S
C600   C628    1.417   .     A
C601   C1453   1.417   .     A
C602   C1454   1.417   1_545 S
C603   C631    1.417   .     A
C604   C632    1.417   .     A
C605   C629    1.417   .     S
C606   C630    1.417   .     A
C607   C219    1.417   1_655 S
C625   C626    1.422   .     A
C627   C628    1.422   .     A
C627   C1423   1.417   1_545 S
C628   C1420   1.417   1_545 S
C629   C1425   1.417   1_545 A
C629   C1454   1.422   1_546 S
C630   C1426   1.417   .     S
C630   C1453   1.422   1_554 S
C631   C220    1.422   1_556 S
C632   C196    1.417   1_655 S
C632   C219    1.422   1_654 S
C633   H634    1.107   .     S
C633   H636    1.110   .     S
C633   H635    1.110   .     S
C637   H640    1.110   .     S
C637   H639    1.110   .     S
C637   H638    1.107   .     S
C641   H642    1.107   .     S
C641   H644    1.110   .     S
C641   H643    1.110   .     S
C645   H646    1.107   .     S
C645   H648    1.110   .     S
C645   H647    1.110   .     S
C649   H650    1.111   .     S
C649   H651    1.105   .     S
C649   H652    1.110   .     S
C653   H656    1.105   .     S
C653   H654    1.111   .     S
C653   H655    1.110   .     S
C657   H658    1.110   .     S
C657   H660    1.105   .     S
C657   H659    1.111   .     S
C661   H662    1.107   .     S
C661   H664    1.110   .     S
C661   H663    1.110   .     S
C665   H668    1.110   .     S
C665   H666    1.111   .     S
C665   H667    1.105   .     S
C669   H671    1.110   .     S
C669   H670    1.107   .     S
C669   H672    1.110   .     S
C673   H675    1.110   .     S
C673   H674    1.107   .     S
C673   H676    1.110   .     S
C677   H679    1.110   .     S
C677   H678    1.107   .     S
C677   H680    1.110   .     S
C681   H683    1.105   .     S
C681   H682    1.110   .     S
C681   H684    1.111   .     S
C685   H688    1.105   .     S
C685   H686    1.110   .     S
C685   H687    1.111   .     S
C689   H692    1.105   .     S
C689   H691    1.111   .     S
C689   H690    1.110   .     S
C693   H696    1.111   .     S
C693   H695    1.105   .     S
C693   H694    1.110   .     S
C697   H699    1.105   .     S
C697   H698    1.111   .     S
C697   H700    1.110   .     S
C701   H702    1.107   .     S
C701   H704    1.110   .     S
C701   H703    1.110   .     S
C705   H708    1.110   .     S
C705   H706    1.107   .     S
C705   H707    1.110   .     S
C709   H711    1.110   .     S
C709   H710    1.107   .     S
C709   H712    1.110   .     S
C713   H714    1.111   .     S
C713   H716    1.110   .     S
C713   H715    1.105   .     S
C717   H719    1.110   .     S
C717   H718    1.111   .     S
C717   H720    1.105   .     S
C721   H722    1.107   .     S
C721   H724    1.110   .     S
C721   H723    1.110   .     S
C725   H727    1.105   .     S
C725   H726    1.110   .     S
C725   H728    1.111   .     S
C729   H732    1.110   .     S
C729   H731    1.110   .     S
C729   H730    1.107   .     S
C733   H734    1.111   .     S
C733   H736    1.105   .     S
C733   H735    1.110   .     S
C737   H740    1.110   .     S
C737   H738    1.107   .     S
C737   H739    1.110   .     S
C741   H742    1.107   .     S
C741   H743    1.110   .     S
C741   H744    1.110   .     S
C745   H746    1.110   .     S
C745   H747    1.105   .     S
C745   H748    1.111   .     S
C749   H750    1.110   .     S
C749   H752    1.105   .     S
C749   H751    1.111   .     S
C753   H755    1.111   .     S
C753   H756    1.105   .     S
C753   H754    1.110   .     S
C757   H760    1.110   .     S
C757   H759    1.110   .     S
C757   H758    1.107   .     S
C761   H762    1.107   .     S
C761   H764    1.110   .     S
H763   C349    1.110   1_655 S
C765   H767    1.110   .     S
C765   H766    1.107   .     S
C765   H356    1.110   1_655 S
C769   H770    1.107   .     S
C769   H771    1.110   .     S
C769   H1596   1.110   .     S
H772   C1593   1.110   1_545 S
C773   H776    1.110   .     S
C773   H774    1.107   .     S
C773   H1599   1.110   1_545 S
H775   C1597   1.110   .     S
C777   H780    1.110   .     S
C777   H778    1.107   .     S
C777   H367    1.110   1_655 S
C781   H783    1.110   .     S
C781   H782    1.107   .     S
H784   C369    1.110   1_655 S
C785   H787    1.110   .     S
C785   H786    1.107   .     S
C785   H1612   1.110   1_545 S
H788   C1609   1.110   .     S
C789   H792    1.110   .     S
C789   H790    1.107   .     S
C789   H1615   1.110   .     S
H791   C1613   1.110   1_545 S
C793   H796    1.110   .     S
C793   H795    1.110   .     S
C793   H794    1.107   .     S
C797   H799    1.110   .     S
C797   H798    1.107   .     S
C797   H800    1.110   .     S
C801   H802    1.107   .     S
C801   H803    1.110   .     S
C801   H804    1.111   .     S
C805   H806    1.107   .     S
C805   H808    1.110   .     S
C805   H807    1.111   .     S
C809   H811    1.110   .     S
C809   H810    1.107   .     S
C809   H812    1.110   .     S
C813   H815    1.110   .     S
C813   H814    1.107   .     S
C813   H816    1.110   .     S
C817   H820    1.107   .     S
C817   H819    1.111   .     S
C817   H818    1.110   .     S
C821   H822    1.110   .     S
C821   H824    1.111   .     S
C821   H823    1.107   .     S
Zn825  O880    1.951   .     S
Zn825  O865    1.944   .     S
Zn825  O927    1.930   .     S
Zn826  O879    1.951   .     S
Zn826  O923    1.930   .     S
Zn826  O866    1.944   .     S
Zn827  O1337   1.931   1_455 S
Zn827  O882    1.951   .     S
Zn827  O867    1.944   .     S
Zn827  O918    1.930   .     S
Zn828  O1329   1.930   1_455 S
Zn828  O868    1.944   .     S
Zn828  O881    1.951   .     S
Zn828  O926    1.931   .     S
Zn829  O865    1.945   .     S
Zn829  O884    1.951   .     S
Zn829  O920    1.930   .     S
Zn830  O866    1.945   .     S
Zn830  O883    1.951   .     S
Zn830  O932    1.930   .     S
Zn831  O929    1.930   .     S
Zn831  O867    1.944   .     S
Zn831  O878    1.951   .     S
Zn831  O1334   1.930   1_455 S
Zn832  O877    1.951   .     S
Zn832  O1342   1.930   1_455 S
Zn832  O868    1.944   .     S
Zn832  O921    1.930   .     S
Zn833  O872    1.951   .     S
Zn833  O911    1.930   .     S
Zn833  O908    1.930   .     S
Zn833  O1280   1.944   .     S
Zn834  O871    1.951   .     S
Zn834  O912    1.930   .     S
Zn834  O907    1.930   .     S
Zn834  O867    1.944   .     S
Zn835  O909    1.931   .     S
Zn835  O874    1.951   .     S
Zn835  O902    1.930   .     S
Zn835  O42     1.944   1_565 S
Zn836  O873    1.951   .     S
Zn836  O910    1.931   .     S
Zn836  O901    1.930   .     S
Zn836  O865    1.944   .     S
Zn837  O915    1.930   .     S
Zn837  O904    1.930   .     S
Zn837  O876    1.951   .     S
Zn837  O868    1.945   .     S
Zn838  O1279   1.945   .     S
Zn838  O903    1.930   .     S
Zn838  O875    1.951   .     S
Zn838  O916    1.930   .     S
Zn839  O866    1.944   .     S
Zn839  O913    1.930   .     S
Zn839  O906    1.930   .     S
Zn839  O870    1.951   .     S
Zn840  O869    1.951   .     S
Zn840  O905    1.930   .     S
Zn840  O914    1.930   .     S
Zn840  O41     1.944   1_565 S
C841   C1009   1.412   .     A
C841   C857    1.413   .     A
C841   C1173   1.524   .     S
C842   C1010   1.412   .     A
C842   C1177   1.524   .     S
C842   C1270   1.413   .     S
C843   C859    1.413   .     A
C843   C1181   1.524   .     S
C843   C1011   1.412   .     A
C844   C1012   1.412   .     A
C844   C1185   1.524   .     S
C844   C860    1.413   .     A
C845   C1189   1.524   .     S
C845   C1005   1.412   .     A
C845   C1269   1.413   .     S
C846   C858    1.413   .     A
C846   C1006   1.412   .     A
C846   C1193   1.524   .     S
C847   C1197   1.524   .     S
C847   C1007   1.412   .     A
C848   C1008   1.412   .     A
C848   C1201   1.524   .     S
C848   C36     1.413   1_565 S
C849   C1017   1.412   .     A
C849   C1205   1.524   .     S
C849   C861    1.413   .     S
C850   C1209   1.524   .     S
C850   C38     1.413   1_565 A
C850   C1018   1.412   .     A
C851   C1019   1.413   .     A
C851   C1213   1.525   .     S
C851   C1275   1.413   .     S
C852   C1020   1.412   .     A
C852   C1217   1.524   .     S
C852   C1276   1.413   1_455 S
C853   C1221   1.524   .     S
C853   C1013   1.412   .     A
C853   C37     1.413   1_565 A
C854   C1225   1.524   .     S
C854   C1014   1.412   .     A
C854   C862    1.413   .     S
C855   C1229   1.525   .     S
C855   C1015   1.412   .     A
C855   C863    1.413   .     A
C856   C1233   1.525   .     S
C856   C1016   1.412   .     A
C856   C864    1.413   .     A
C857   C951    1.453   .     S
C857   C1257   1.413   1_455 S
C858   C1254   1.413   1_455 S
C858   C952    1.453   .     S
C859   C949    1.453   .     S
C859   C23     1.413   1_565 S
C860   C950    1.453   .     S
C862   C956    1.453   .     S
C863   C1263   1.413   1_455 S
C863   C1365   1.453   1_455 S
C864   C1264   1.413   .     S
C864   C1366   1.453   .     S
O867   Zn1250  1.945   1_455 S
O868   Zn1245  1.944   1_455 S
O869   C949    1.273   .     A
O870   C950    1.273   .     A
O871   C951    1.274   .     A
O872   C1364   1.274   .     A
O874   C126    1.273   1_565 S
O875   C1363   1.274   .     S
O876   C952    1.274   .     S
O877   C1365   1.273   1_455 A
O878   C954    1.273   .     S
O880   C956    1.274   .     A
O881   C1365   1.273   1_455 A
O882   C954    1.273   .     S
O884   C956    1.274   .     A
H885   C933    1.081   .     S
H886   C934    1.081   .     S
H887   C935    1.081   .     S
H888   C936    1.081   .     S
H889   C937    1.081   .     S
H890   C938    1.081   .     S
H891   C939    1.081   .     S
H892   C940    1.081   .     S
H893   C941    1.081   .     S
H894   C942    1.081   .     S
H895   C943    1.081   .     S
H896   C944    1.081   .     S
H897   C945    1.081   .     S
H898   C946    1.081   .     S
H899   C947    1.081   .     S
H900   C948    1.081   .     S
O901   C957    1.277   .     A
O902   C958    1.277   .     A
O903   C959    1.278   .     A
O904   C960    1.278   .     A
O905   C961    1.276   .     A
O906   C962    1.276   .     A
O907   C963    1.277   .     A
O908   C964    1.277   .     A
O909   C965    1.276   .     A
O910   C966    1.276   .     A
O911   C967    1.276   .     A
O912   C968    1.276   .     A
O913   C969    1.277   .     A
O914   C970    1.276   .     A
O915   C971    1.277   .     A
O916   C972    1.277   .     A
O917   Zn1240  1.930   .     S
O917   C967    1.277   .     A
O918   C968    1.277   .     A
O919   C965    1.278   .     A
O919   Zn6     1.930   1_565 S
O920   C966    1.278   .     A
O921   C971    1.276   .     A
O922   C972    1.276   .     A
O922   Zn1243  1.930   .     S
O923   C969    1.276   .     A
O924   C970    1.277   .     A
O924   Zn1     1.930   1_565 S
O925   Zn1239  1.931   .     S
O925   C959    1.276   .     A
O926   C960    1.276   .     A
O927   C957    1.276   .     A
O928   C958    1.276   .     A
O928   Zn2     1.930   1_565 S
O929   C963    1.276   .     A
O930   C964    1.277   .     A
O930   Zn1244  1.930   .     S
O931   C961    1.277   .     A
O931   Zn5     1.930   1_565 S
O932   C962    1.277   .     A
C933   C938    1.383   .     A
C933   C1005   1.405   .     A
C934   C1006   1.405   .     A
C934   C937    1.383   .     A
C935   C1007   1.405   .     A
C935   C940    1.383   .     A
C936   C1008   1.405   .     A
C936   C939    1.383   .     A
C937   C1009   1.405   .     A
C938   C1010   1.405   .     A
C939   C1011   1.405   .     A
C940   C1012   1.405   .     A
C941   C1013   1.405   .     A
C941   C946    1.383   1_556 S
C942   C1014   1.405   .     A
C942   C945    1.383   1_554 S
C943   C1015   1.405   .     A
C943   C948    1.383   1_556 S
C944   C1016   1.405   .     A
C944   C947    1.383   1_554 S
C945   C1017   1.405   .     A
C945   C942    1.383   1_556 S
C946   C1018   1.405   .     A
C946   C941    1.383   1_554 S
C947   C1019   1.405   .     A
C947   C944    1.383   1_556 S
C948   C1020   1.405   .     A
C948   C943    1.383   1_554 S
C949   O49     1.273   1_565 S
C951   O1287   1.274   1_455 S
C952   O1284   1.274   1_455 A
C953   O1289   1.273   .     A
C953   O1293   1.273   .     A
C953   C1275   1.453   .     S
C954   C1276   1.453   1_455 S
C955   C37     1.453   1_565 S
C955   O55     1.274   1_565 S
C955   O59     1.274   1_565 S
C957   C1023   1.452   .     S
C958   C1024   1.452   .     S
C959   C1025   1.452   .     S
C960   C1026   1.452   .     S
C961   C1027   1.452   .     S
C962   C1028   1.452   .     S
C963   C1021   1.452   .     S
C964   C1022   1.454   .     S
C965   C1031   1.453   .     S
C966   C1032   1.453   .     S
C967   C1033   1.452   .     S
C968   C1034   1.452   .     S
C969   C1035   1.450   .     S
C970   C1036   1.452   .     S
C971   C1029   1.452   .     S
C972   C1030   1.452   .     S
C973   C1045   1.521   .     S
C973   C1036   1.415   .     A
C973   C988    1.410   .     A
C974   C987    1.410   .     A
C974   C1049   1.521   .     S
C974   C1035   1.417   .     A
C975   C1053   1.521   .     S
C975   C1034   1.414   .     A
C975   C986    1.410   .     A
C976   C1033   1.414   .     A
C976   C985    1.410   .     A
C976   C1057   1.521   .     S
C977   C1032   1.413   .     A
C977   C984    1.410   .     A
C977   C1061   1.523   .     S
C978   C1031   1.413   .     A
C978   C1065   1.523   .     S
C978   C983    1.410   .     A
C979   C982    1.410   .     A
C979   C1069   1.523   .     S
C979   C1030   1.413   .     A
C980   C1073   1.521   .     S
C980   C1029   1.414   .     A
C980   C981    1.410   .     A
C981   C1028   1.413   .     A
C981   C1077   1.523   .     S
C982   C1081   1.521   .     S
C982   C1027   1.414   .     A
C983   C1026   1.414   .     A
C983   C1085   1.521   .     S
C984   C1025   1.415   .     A
C984   C1089   1.521   .     S
C985   C1024   1.413   .     A
C985   C1093   1.523   .     S
C986   C1097   1.523   .     S
C986   C1023   1.413   .     A
C987   C1022   1.411   .     A
C987   C1101   1.523   .     S
C988   C1021   1.413   .     A
C988   C1105   1.523   .     S
C989   C1022   1.411   .     A
C989   C1109   1.523   .     S
C989   C1004   1.410   .     A
C990   C1113   1.521   .     S
C990   C1021   1.415   .     A
C990   C1003   1.410   .     A
C991   C1117   1.521   .     S
C991   C1024   1.414   .     A
C991   C1002   1.410   .     A
C992   C1023   1.414   .     A
C992   C1001   1.410   .     A
C992   C1121   1.521   .     S
C993   C1000   1.410   .     A
C993   C1125   1.523   .     S
C993   C1026   1.413   .     A
C994   C1129   1.523   .     S
C994   C999    1.410   .     A
C994   C1025   1.413   .     A
C995   C1028   1.414   .     A
C995   C998    1.410   .     A
C995   C1133   1.521   .     S
C996   C1027   1.413   .     A
C996   C997    1.410   .     A
C996   C1137   1.523   .     S
C997   C1030   1.414   .     A
C997   C1141   1.521   .     S
C998   C1029   1.413   .     A
C998   C1145   1.523   .     S
C999   C1149   1.521   .     S
C999   C1032   1.415   .     A
C1000  C1153   1.521   .     S
C1000  C1031   1.414   .     A
C1001  C1034   1.413   .     A
C1001  C1157   1.523   .     S
C1002  C1161   1.523   .     S
C1002  C1033   1.413   .     A
C1003  C1165   1.523   .     S
C1003  C1036   1.413   .     A
C1004  C1169   1.522   .     S
C1004  C1035   1.416   .     A
C1005  C1449   1.417   .     S
C1006  C1038   1.417   .     A
C1007  C1039   1.417   .     A
C1008  C216    1.417   1_565 S
C1009  C1037   1.417   .     A
C1010  C1450   1.417   .     S
C1011  C215    1.417   1_565 S
C1012  C1040   1.417   .     A
C1013  C217    1.417   1_565 A
C1015  C1043   1.417   .     A
C1016  C1044   1.417   .     A
C1017  C1041   1.417   .     S
C1018  C1042   1.417   .     A
C1019  C1455   1.417   .     S
C1020  C1456   1.417   1_455 S
C1037  C1038   1.422   .     A
C1037  C1417   1.417   1_455 S
C1038  C1422   1.417   1_455 S
C1039  C1040   1.422   .     A
C1041  C218    1.422   1_556 S
C1042  C190    1.417   1_565 S
C1042  C217    1.422   1_564 S
C1043  C1431   1.417   1_455 S
C1043  C1456   1.422   1_456 S
C1044  C1432   1.417   .     S
C1044  C1455   1.422   1_554 S
C1045  H1046   1.107   .     S
C1045  H1048   1.110   .     S
C1045  H1047   1.110   .     S
C1049  H1052   1.110   .     S
C1049  H1051   1.110   .     S
C1049  H1050   1.107   .     S
C1053  H1054   1.107   .     S
C1053  H1056   1.110   .     S
C1053  H1055   1.110   .     S
C1057  H1058   1.107   .     S
C1057  H1060   1.110   .     S
C1057  H1059   1.110   .     S
C1061  H1062   1.111   .     S
C1061  H1063   1.105   .     S
C1061  H1064   1.110   .     S
C1065  H1068   1.105   .     S
C1065  H1066   1.111   .     S
C1065  H1067   1.110   .     S
C1069  H1070   1.110   .     S
C1069  H1072   1.105   .     S
C1069  H1071   1.111   .     S
C1073  H1074   1.107   .     S
C1073  H1076   1.110   .     S
C1073  H1075   1.110   .     S
C1077  H1080   1.110   .     S
C1077  H1078   1.111   .     S
C1077  H1079   1.105   .     S
C1081  H1083   1.110   .     S
C1081  H1082   1.107   .     S
C1081  H1084   1.110   .     S
C1085  H1087   1.110   .     S
C1085  H1086   1.107   .     S
C1085  H1088   1.110   .     S
C1089  H1091   1.110   .     S
C1089  H1090   1.107   .     S
C1089  H1092   1.110   .     S
C1093  H1095   1.105   .     S
C1093  H1094   1.110   .     S
C1093  H1096   1.111   .     S
C1097  H1100   1.105   .     S
C1097  H1098   1.110   .     S
C1097  H1099   1.111   .     S
C1101  H1104   1.105   .     S
C1101  H1103   1.111   .     S
C1101  H1102   1.110   .     S
C1105  H1108   1.111   .     S
C1105  H1107   1.105   .     S
C1105  H1106   1.110   .     S
C1109  H1111   1.105   .     S
C1109  H1110   1.111   .     S
C1109  H1112   1.110   .     S
C1113  H1114   1.107   .     S
C1113  H1116   1.110   .     S
C1113  H1115   1.110   .     S
C1117  H1120   1.110   .     S
C1117  H1118   1.107   .     S
C1117  H1119   1.110   .     S
C1121  H1123   1.110   .     S
C1121  H1122   1.107   .     S
C1121  H1124   1.110   .     S
C1125  H1126   1.111   .     S
C1125  H1128   1.110   .     S
C1125  H1127   1.105   .     S
C1129  H1131   1.110   .     S
C1129  H1130   1.111   .     S
C1129  H1132   1.105   .     S
C1133  H1134   1.107   .     S
C1133  H1136   1.110   .     S
C1133  H1135   1.110   .     S
C1137  H1139   1.105   .     S
C1137  H1138   1.110   .     S
C1137  H1140   1.111   .     S
C1141  H1144   1.110   .     S
C1141  H1143   1.110   .     S
C1141  H1142   1.107   .     S
C1145  H1146   1.111   .     S
C1145  H1148   1.105   .     S
C1145  H1147   1.110   .     S
C1149  H1152   1.110   .     S
C1149  H1150   1.107   .     S
C1149  H1151   1.110   .     S
C1153  H1154   1.107   .     S
C1153  H1155   1.110   .     S
C1153  H1156   1.110   .     S
C1157  H1158   1.110   .     S
C1157  H1159   1.105   .     S
C1157  H1160   1.111   .     S
C1161  H1162   1.110   .     S
C1161  H1164   1.105   .     S
C1161  H1163   1.111   .     S
C1165  H1167   1.111   .     S
C1165  H1168   1.105   .     S
C1165  H1166   1.110   .     S
C1169  H1172   1.110   .     S
C1169  H1171   1.110   .     S
C1169  H1170   1.107   .     S
C1173  H1174   1.107   .     S
C1173  H1176   1.110   .     S
C1173  H1587   1.110   1_455 S
H1175  C1585   1.110   .     S
C1177  H1179   1.110   .     S
C1177  H1178   1.107   .     S
C1177  H1592   1.110   .     S
H1180  C1589   1.110   1_455 S
C1181  H1182   1.107   .     S
C1181  H1183   1.110   .     S
C1181  H360    1.110   1_565 S
C1185  H1188   1.110   .     S
C1185  H1186   1.107   .     S
H1187  C361    1.110   1_565 S
C1189  H1192   1.110   .     S
C1189  H1190   1.107   .     S
C1189  H1603   1.110   .     S
H1191  C1601   1.110   1_455 S
C1193  H1195   1.110   .     S
C1193  H1194   1.107   .     S
C1193  H1608   1.110   1_455 S
H1196  C1605   1.110   .     S
C1197  H1199   1.110   .     S
C1197  H1198   1.107   .     S
H1200  C373    1.110   1_565 S
C1201  H1204   1.110   .     S
C1201  H1202   1.107   .     S
C1201  H379    1.110   1_565 S
C1205  H1208   1.110   .     S
C1205  H1207   1.110   .     S
C1205  H1206   1.107   .     S
C1209  H1211   1.110   .     S
C1209  H1210   1.107   .     S
C1209  H1212   1.110   .     S
C1213  H1214   1.107   .     S
C1213  H1215   1.110   .     S
C1213  H1216   1.111   .     S
C1217  H1218   1.107   .     S
C1217  H1220   1.110   .     S
C1217  H1219   1.111   .     S
C1221  H1223   1.110   .     S
C1221  H1222   1.107   .     S
C1221  H1224   1.110   .     S
C1225  H1227   1.110   .     S
C1225  H1226   1.107   .     S
C1225  H1228   1.110   .     S
C1229  H1232   1.107   .     S
C1229  H1231   1.111   .     S
C1229  H1230   1.110   .     S
C1233  H1234   1.110   .     S
C1233  H1236   1.111   .     S
C1233  H1235   1.107   .     S
Zn1237 O1292   1.951   .     S
Zn1237 O1277   1.944   .     S
Zn1237 O1339   1.930   .     S
Zn1238 O1291   1.951   .     S
Zn1238 O1335   1.930   .     S
Zn1238 O1278   1.944   .     S
Zn1239 O1294   1.951   .     S
Zn1239 O1279   1.944   .     S
Zn1239 O1330   1.930   .     S
Zn1240 O1280   1.944   .     S
Zn1240 O1293   1.951   .     S
Zn1240 O1338   1.931   .     S
Zn1241 O1277   1.945   .     S
Zn1241 O1296   1.951   .     S
Zn1241 O1332   1.930   .     S
Zn1242 O1278   1.945   .     S
Zn1242 O1295   1.951   .     S
Zn1242 O1344   1.930   .     S
Zn1243 O1341   1.930   .     S
Zn1243 O1279   1.944   .     S
Zn1243 O1290   1.951   .     S
Zn1244 O1289   1.951   .     S
Zn1244 O1280   1.944   .     S
Zn1244 O1333   1.930   .     S
Zn1245 O1284   1.951   .     S
Zn1245 O1323   1.930   .     S
Zn1245 O1320   1.930   .     S
Zn1245 O868    1.944   1_655 S
Zn1246 O1283   1.951   .     S
Zn1246 O1324   1.930   .     S
Zn1246 O1319   1.930   .     S
Zn1246 O1279   1.944   .     S
Zn1247 O1321   1.931   .     S
Zn1247 O1286   1.951   .     S
Zn1247 O1314   1.930   .     S
Zn1247 O454    1.944   1_565 S
Zn1248 O1285   1.951   .     S
Zn1248 O1322   1.931   .     S
Zn1248 O1313   1.930   .     S
Zn1248 O1277   1.944   .     S
Zn1249 O1327   1.930   .     S
Zn1249 O1316   1.930   .     S
Zn1249 O1288   1.951   .     S
Zn1249 O1280   1.945   .     S
Zn1250 O867    1.945   1_655 S
Zn1250 O1315   1.930   .     S
Zn1250 O1287   1.951   .     S
Zn1250 O1328   1.930   .     S
Zn1251 O1278   1.944   .     S
Zn1251 O1325   1.930   .     S
Zn1251 O1318   1.930   .     S
Zn1251 O1282   1.951   .     S
Zn1252 O1281   1.951   .     S
Zn1252 O1317   1.930   .     S
Zn1252 O1326   1.930   .     S
Zn1252 O453    1.944   1_565 S
C1253  C1421   1.412   .     A
C1253  C1269   1.413   .     A
C1253  C1585   1.524   .     S
C1254  C1422   1.412   .     A
C1254  C1589   1.524   .     S
C1254  C858    1.413   1_655 S
C1255  C1271   1.413   .     A
C1255  C1593   1.524   .     S
C1255  C1423   1.412   .     A
C1256  C1424   1.412   .     A
C1256  C1597   1.524   .     S
C1256  C1272   1.413   .     A
C1257  C1601   1.524   .     S
C1257  C1417   1.412   .     A
C1257  C857    1.413   1_655 S
C1258  C1270   1.413   .     A
C1258  C1418   1.412   .     A
C1258  C1605   1.524   .     S
C1259  C1609   1.524   .     S
C1259  C1419   1.412   .     A
C1260  C1420   1.412   .     A
C1260  C1613   1.524   .     S
C1260  C448    1.413   1_565 S
C1261  C1429   1.412   .     A
C1261  C1617   1.524   .     S
C1261  C1273   1.413   .     S
C1262  C1621   1.524   .     S
C1262  C450    1.413   1_565 A
C1262  C1430   1.412   .     A
C1263  C1431   1.413   .     A
C1263  C1625   1.525   .     S
C1263  C863    1.413   1_655 S
C1264  C1432   1.412   .     A
C1264  C1629   1.524   .     S
C1265  C1633   1.524   .     S
C1265  C1425   1.412   .     A
C1265  C449    1.413   1_565 A
C1266  C1637   1.524   .     S
C1266  C1426   1.412   .     A
C1266  C1274   1.413   .     S
C1267  C1641   1.525   .     S
C1267  C1427   1.412   .     A
C1267  C1275   1.413   .     A
C1268  C1645   1.525   .     S
C1268  C1428   1.412   .     A
C1268  C1276   1.413   .     A
C1269  C1363   1.453   .     S
C1270  C1364   1.453   .     S
C1271  C1361   1.453   .     S
C1271  C435    1.413   1_565 S
C1272  C1362   1.453   .     S
C1274  C1368   1.453   .     S
C1276  C852    1.413   1_655 S
C1276  C954    1.453   1_655 S
O1281  C1361   1.273   .     A
O1282  C1362   1.273   .     A
O1283  C1363   1.274   .     A
O1284  C952    1.274   1_655 A
O1286  C538    1.273   1_565 S
O1287  C951    1.274   1_655 S
O1288  C1364   1.274   .     S
O1290  C1366   1.273   .     S
O1292  C1368   1.274   .     A
O1294  C1366   1.273   .     S
O1296  C1368   1.274   .     A
H1297  C1345   1.081   .     S
H1298  C1346   1.081   .     S
H1299  C1347   1.081   .     S
H1300  C1348   1.081   .     S
H1301  C1349   1.081   .     S
H1302  C1350   1.081   .     S
H1303  C1351   1.081   .     S
H1304  C1352   1.081   .     S
H1305  C1353   1.081   .     S
H1306  C1354   1.081   .     S
H1307  C1355   1.081   .     S
H1308  C1356   1.081   .     S
H1309  C1357   1.081   .     S
H1310  C1358   1.081   .     S
H1311  C1359   1.081   .     S
H1312  C1360   1.081   .     S
O1313  C1369   1.277   .     A
O1314  C1370   1.277   .     A
O1315  C1371   1.278   .     A
O1316  C1372   1.278   .     A
O1317  C1373   1.276   .     A
O1318  C1374   1.276   .     A
O1319  C1375   1.277   .     A
O1320  C1376   1.277   .     A
O1321  C1377   1.276   .     A
O1322  C1378   1.276   .     A
O1323  C1379   1.276   .     A
O1324  C1380   1.276   .     A
O1325  C1381   1.277   .     A
O1326  C1382   1.276   .     A
O1327  C1383   1.277   .     A
O1328  C1384   1.277   .     A
O1329  Zn828   1.930   1_655 S
O1329  C1379   1.277   .     A
O1330  C1380   1.277   .     A
O1331  C1377   1.278   .     A
O1331  Zn418   1.930   1_565 S
O1332  C1378   1.278   .     A
O1333  C1383   1.276   .     A
O1334  C1384   1.276   .     A
O1334  Zn831   1.930   1_655 S
O1335  C1381   1.276   .     A
O1336  C1382   1.277   .     A
O1336  Zn413   1.930   1_565 S
O1337  Zn827   1.931   1_655 S
O1337  C1371   1.276   .     A
O1338  C1372   1.276   .     A
O1339  C1369   1.276   .     A
O1340  C1370   1.276   .     A
O1340  Zn414   1.930   1_565 S
O1341  C1375   1.276   .     A
O1342  C1376   1.277   .     A
O1342  Zn832   1.930   1_655 S
O1343  C1373   1.277   .     A
O1343  Zn417   1.930   1_565 S
O1344  C1374   1.277   .     A
C1345  C1350   1.383   .     A
C1345  C1417   1.405   .     A
C1346  C1418   1.405   .     A
C1346  C1349   1.383   .     A
C1347  C1419   1.405   .     A
C1347  C1352   1.383   .     A
C1348  C1420   1.405   .     A
C1348  C1351   1.383   .     A
C1349  C1421   1.405   .     A
C1350  C1422   1.405   .     A
C1351  C1423   1.405   .     A
C1352  C1424   1.405   .     A
C1353  C1425   1.405   .     A
C1353  C1358   1.383   1_556 S
C1354  C1426   1.405   .     A
C1354  C1357   1.383   1_554 S
C1355  C1427   1.405   .     A
C1355  C1360   1.383   1_556 S
C1356  C1428   1.405   .     A
C1356  C1359   1.383   1_554 S
C1357  C1429   1.405   .     A
C1357  C1354   1.383   1_556 S
C1358  C1430   1.405   .     A
C1358  C1353   1.383   1_554 S
C1359  C1431   1.405   .     A
C1359  C1356   1.383   1_556 S
C1360  C1432   1.405   .     A
C1360  C1355   1.383   1_554 S
C1361  O461    1.273   1_565 S
C1365  O877    1.273   1_655 A
C1365  O881    1.273   1_655 A
C1365  C863    1.453   1_655 S
C1367  C449    1.453   1_565 S
C1367  O467    1.274   1_565 S
C1367  O471    1.274   1_565 S
C1369  C1435   1.452   .     S
C1370  C1436   1.452   .     S
C1371  C1437   1.452   .     S
C1372  C1438   1.452   .     S
C1373  C1439   1.452   .     S
C1374  C1440   1.452   .     S
C1375  C1433   1.452   .     S
C1376  C1434   1.454   .     S
C1377  C1443   1.453   .     S
C1378  C1444   1.453   .     S
C1379  C1445   1.452   .     S
C1380  C1446   1.452   .     S
C1381  C1447   1.450   .     S
C1382  C1448   1.452   .     S
C1383  C1441   1.452   .     S
C1384  C1442   1.452   .     S
C1385  C1457   1.521   .     S
C1385  C1448   1.415   .     A
C1385  C1400   1.410   .     A
C1386  C1399   1.410   .     A
C1386  C1461   1.521   .     S
C1386  C1447   1.417   .     A
C1387  C1465   1.521   .     S
C1387  C1446   1.414   .     A
C1387  C1398   1.410   .     A
C1388  C1445   1.414   .     A
C1388  C1397   1.410   .     A
C1388  C1469   1.521   .     S
C1389  C1444   1.413   .     A
C1389  C1396   1.410   .     A
C1389  C1473   1.523   .     S
C1390  C1443   1.413   .     A
C1390  C1477   1.523   .     S
C1390  C1395   1.410   .     A
C1391  C1394   1.410   .     A
C1391  C1481   1.523   .     S
C1391  C1442   1.413   .     A
C1392  C1485   1.521   .     S
C1392  C1441   1.414   .     A
C1392  C1393   1.410   .     A
C1393  C1440   1.413   .     A
C1393  C1489   1.523   .     S
C1394  C1493   1.521   .     S
C1394  C1439   1.414   .     A
C1395  C1438   1.414   .     A
C1395  C1497   1.521   .     S
C1396  C1437   1.415   .     A
C1396  C1501   1.521   .     S
C1397  C1436   1.413   .     A
C1397  C1505   1.523   .     S
C1398  C1509   1.523   .     S
C1398  C1435   1.413   .     A
C1399  C1434   1.411   .     A
C1399  C1513   1.523   .     S
C1400  C1433   1.413   .     A
C1400  C1517   1.523   .     S
C1401  C1434   1.411   .     A
C1401  C1521   1.523   .     S
C1401  C1416   1.410   .     A
C1402  C1525   1.521   .     S
C1402  C1433   1.415   .     A
C1402  C1415   1.410   .     A
C1403  C1529   1.521   .     S
C1403  C1436   1.414   .     A
C1403  C1414   1.410   .     A
C1404  C1435   1.414   .     A
C1404  C1413   1.410   .     A
C1404  C1533   1.521   .     S
C1405  C1412   1.410   .     A
C1405  C1537   1.523   .     S
C1405  C1438   1.413   .     A
C1406  C1541   1.523   .     S
C1406  C1411   1.410   .     A
C1406  C1437   1.413   .     A
C1407  C1440   1.414   .     A
C1407  C1410   1.410   .     A
C1407  C1545   1.521   .     S
C1408  C1439   1.413   .     A
C1408  C1409   1.410   .     A
C1408  C1549   1.523   .     S
C1409  C1442   1.414   .     A
C1409  C1553   1.521   .     S
C1410  C1441   1.413   .     A
C1410  C1557   1.523   .     S
C1411  C1561   1.521   .     S
C1411  C1444   1.415   .     A
C1412  C1565   1.521   .     S
C1412  C1443   1.414   .     A
C1413  C1446   1.413   .     A
C1413  C1569   1.523   .     S
C1414  C1573   1.523   .     S
C1414  C1445   1.413   .     A
C1415  C1577   1.523   .     S
C1415  C1448   1.413   .     A
C1416  C1581   1.522   .     S
C1416  C1447   1.416   .     A
C1417  C1037   1.417   1_655 S
C1418  C1450   1.417   .     A
C1419  C1451   1.417   .     A
C1420  C628    1.417   1_565 S
C1421  C1449   1.417   .     A
C1422  C1038   1.417   1_655 S
C1423  C627    1.417   1_565 S
C1424  C1452   1.417   .     A
C1425  C629    1.417   1_565 A
C1427  C1455   1.417   .     A
C1428  C1456   1.417   .     A
C1429  C1453   1.417   .     S
C1430  C1454   1.417   .     A
C1431  C1043   1.417   1_655 S
C1449  C1450   1.422   .     A
C1451  C1452   1.422   .     A
C1453  C630    1.422   1_556 S
C1454  C602    1.417   1_565 S
C1454  C629    1.422   1_564 S
C1455  C1044   1.422   1_556 S
C1456  C1020   1.417   1_655 S
C1456  C1043   1.422   1_654 S
C1457  H1458   1.107   .     S
C1457  H1460   1.110   .     S
C1457  H1459   1.110   .     S
C1461  H1464   1.110   .     S
C1461  H1463   1.110   .     S
C1461  H1462   1.107   .     S
C1465  H1466   1.107   .     S
C1465  H1468   1.110   .     S
C1465  H1467   1.110   .     S
C1469  H1470   1.107   .     S
C1469  H1472   1.110   .     S
C1469  H1471   1.110   .     S
C1473  H1474   1.111   .     S
C1473  H1475   1.105   .     S
C1473  H1476   1.110   .     S
C1477  H1480   1.105   .     S
C1477  H1478   1.111   .     S
C1477  H1479   1.110   .     S
C1481  H1482   1.110   .     S
C1481  H1484   1.105   .     S
C1481  H1483   1.111   .     S
C1485  H1486   1.107   .     S
C1485  H1488   1.110   .     S
C1485  H1487   1.110   .     S
C1489  H1492   1.110   .     S
C1489  H1490   1.111   .     S
C1489  H1491   1.105   .     S
C1493  H1495   1.110   .     S
C1493  H1494   1.107   .     S
C1493  H1496   1.110   .     S
C1497  H1499   1.110   .     S
C1497  H1498   1.107   .     S
C1497  H1500   1.110   .     S
C1501  H1503   1.110   .     S
C1501  H1502   1.107   .     S
C1501  H1504   1.110   .     S
C1505  H1507   1.105   .     S
C1505  H1506   1.110   .     S
C1505  H1508   1.111   .     S
C1509  H1512   1.105   .     S
C1509  H1510   1.110   .     S
C1509  H1511   1.111   .     S
C1513  H1516   1.105   .     S
C1513  H1515   1.111   .     S
C1513  H1514   1.110   .     S
C1517  H1520   1.111   .     S
C1517  H1519   1.105   .     S
C1517  H1518   1.110   .     S
C1521  H1523   1.105   .     S
C1521  H1522   1.111   .     S
C1521  H1524   1.110   .     S
C1525  H1526   1.107   .     S
C1525  H1528   1.110   .     S
C1525  H1527   1.110   .     S
C1529  H1532   1.110   .     S
C1529  H1530   1.107   .     S
C1529  H1531   1.110   .     S
C1533  H1535   1.110   .     S
C1533  H1534   1.107   .     S
C1533  H1536   1.110   .     S
C1537  H1538   1.111   .     S
C1537  H1540   1.110   .     S
C1537  H1539   1.105   .     S
C1541  H1543   1.110   .     S
C1541  H1542   1.111   .     S
C1541  H1544   1.105   .     S
C1545  H1546   1.107   .     S
C1545  H1548   1.110   .     S
C1545  H1547   1.110   .     S
C1549  H1551   1.105   .     S
C1549  H1550   1.110   .     S
C1549  H1552   1.111   .     S
C1553  H1556   1.110   .     S
C1553  H1555   1.110   .     S
C1553  H1554   1.107   .     S
C1557  H1558   1.111   .     S
C1557  H1560   1.105   .     S
C1557  H1559   1.110   .     S
C1561  H1564   1.110   .     S
C1561  H1562   1.107   .     S
C1561  H1563   1.110   .     S
C1565  H1566   1.107   .     S
C1565  H1567   1.110   .     S
C1565  H1568   1.110   .     S
C1569  H1570   1.110   .     S
C1569  H1571   1.105   .     S
C1569  H1572   1.111   .     S
C1573  H1574   1.110   .     S
C1573  H1576   1.105   .     S
C1573  H1575   1.111   .     S
C1577  H1579   1.111   .     S
C1577  H1580   1.105   .     S
C1577  H1578   1.110   .     S
C1581  H1584   1.110   .     S
C1581  H1583   1.110   .     S
C1581  H1582   1.107   .     S
C1585  H1586   1.107   .     S
C1585  H1588   1.110   .     S
H1587  C1173   1.110   1_655 S
C1589  H1591   1.110   .     S
C1589  H1590   1.107   .     S
C1589  H1180   1.110   1_655 S
C1593  H1594   1.107   .     S
C1593  H1595   1.110   .     S
C1593  H772    1.110   1_565 S
C1597  H1600   1.110   .     S
C1597  H1598   1.107   .     S
H1599  C773    1.110   1_565 S
C1601  H1604   1.110   .     S
C1601  H1602   1.107   .     S
C1601  H1191   1.110   1_655 S
C1605  H1607   1.110   .     S
C1605  H1606   1.107   .     S
H1608  C1193   1.110   1_655 S
C1609  H1611   1.110   .     S
C1609  H1610   1.107   .     S
H1612  C785    1.110   1_565 S
C1613  H1616   1.110   .     S
C1613  H1614   1.107   .     S
C1613  H791    1.110   1_565 S
C1617  H1620   1.110   .     S
C1617  H1619   1.110   .     S
C1617  H1618   1.107   .     S
C1621  H1623   1.110   .     S
C1621  H1622   1.107   .     S
C1621  H1624   1.110   .     S
C1625  H1626   1.107   .     S
C1625  H1627   1.110   .     S
C1625  H1628   1.111   .     S
C1629  H1630   1.107   .     S
C1629  H1632   1.110   .     S
C1629  H1631   1.111   .     S
C1633  H1635   1.110   .     S
C1633  H1634   1.107   .     S
C1633  H1636   1.110   .     S
C1637  H1639   1.110   .     S
C1637  H1638   1.107   .     S
C1637  H1640   1.110   .     S
C1641  H1644   1.107   .     S
C1641  H1643   1.111   .     S
C1641  H1642   1.110   .     S
C1645  H1646   1.110   .     S
C1645  H1648   1.111   .     S
C1645  H1647   1.107   .     S
