data_str_m1_o1_o17_pcu_sym.160
_audit_creation_date              2020-01-03
_audit_creation_method            'Materials Studio'
_symmetry_space_group_name_H-M    'P1'
_symmetry_Int_Tables_number       1
_symmetry_cell_setting            triclinic
loop_
_symmetry_equiv_pos_as_xyz
  x,y,z
_cell_length_a                    36.6980
_cell_length_b                    36.6980
_cell_length_c                    34.2527
_cell_angle_alpha                 89.9991
_cell_angle_beta                  89.9991
_cell_angle_gamma                 90.0030
loop_
_atom_site_label
_atom_site_type_symbol
_atom_site_fract_x
_atom_site_fract_y
_atom_site_fract_z
_atom_site_U_iso_or_equiv
_atom_site_adp_type
_atom_site_occupancy
C1     C     0.49698   0.28277   0.41795   0.00000  Uiso   1.00
C2     C     0.49702   0.21723   0.58205   0.00000  Uiso   1.00
C3     C     0.21723   0.49702   0.41795   0.00000  Uiso   1.00
C4     C     0.28277   0.49698   0.58205   0.00000  Uiso   1.00
C5     C     0.00302   0.21723   0.41795   0.00000  Uiso   1.00
C6     C     0.00298   0.28277   0.58205   0.00000  Uiso   1.00
C7     C     0.28277   0.00298   0.41795   0.00000  Uiso   1.00
C8     C     0.21723   0.00302   0.58205   0.00000  Uiso   1.00
C9     C     0.24698   0.03277   0.91795   0.00000  Uiso   1.00
C10    C     0.24702   0.46723   0.08205   0.00000  Uiso   1.00
C11    C     0.46723   0.24702   0.91795   0.00000  Uiso   1.00
C12    C     0.03277   0.24698   0.08205   0.00000  Uiso   1.00
C13    C     0.25302   0.46723   0.91795   0.00000  Uiso   1.00
C14    C     0.25298   0.03277   0.08205   0.00000  Uiso   1.00
C15    C     0.03277   0.25298   0.91795   0.00000  Uiso   1.00
C16    C     0.46723   0.25302   0.08205   0.00000  Uiso   1.00
C17    C    -0.00000   0.25000   0.39799   0.00000  Uiso   1.00
C18    C     0.00000   0.25000   0.60201   0.00000  Uiso   1.00
C19    C     0.25000  -0.00000   0.39799   0.00000  Uiso   1.00
C20    C     0.25000   0.00000   0.60201   0.00000  Uiso   1.00
C21    C     0.25000  -0.00000   0.89799   0.00000  Uiso   1.00
C22    C     0.25000   0.00000   0.10201   0.00000  Uiso   1.00
C23    C    -0.00000   0.25000   0.89799   0.00000  Uiso   1.00
C24    C     0.00000   0.25000   0.10201   0.00000  Uiso   1.00
C25    C     0.00156   0.18294   0.47945   0.00000  Uiso   1.00
C26    C     0.00149   0.31706   0.52055   0.00000  Uiso   1.00
C27    C     0.31706   0.00150   0.47944   0.00000  Uiso   1.00
C28    C     0.18294   0.00156   0.52055   0.00000  Uiso   1.00
C29    C     0.49844   0.31706   0.47945   0.00000  Uiso   1.00
C30    C     0.49850   0.18294   0.52056   0.00000  Uiso   1.00
C31    C     0.18294   0.49851   0.47945   0.00000  Uiso   1.00
C32    C     0.31706   0.49844   0.52055   0.00000  Uiso   1.00
C33    C     0.25156   0.43294   0.97945   0.00000  Uiso   1.00
C34    C     0.25149   0.06706   0.02055   0.00000  Uiso   1.00
C35    C     0.06706   0.25150   0.97944   0.00000  Uiso   1.00
C36    C     0.43294   0.25156   0.02055   0.00000  Uiso   1.00
C37    C     0.24844   0.06706   0.97945   0.00000  Uiso   1.00
C38    C     0.24850   0.43294   0.02056   0.00000  Uiso   1.00
C39    C     0.43294   0.24851   0.97945   0.00000  Uiso   1.00
C40    C     0.06706   0.24844   0.02055   0.00000  Uiso   1.00
C41    C     0.25000  -0.00000   0.35578   0.00000  Uiso   1.00
C42    C     0.25000  -0.00000   0.64422   0.00000  Uiso   1.00
C43    C     0.00000   0.25000   0.35578   0.00000  Uiso   1.00
C44    C     0.00000   0.25000   0.64422   0.00000  Uiso   1.00
C45    C    -0.00000   0.25000   0.85578   0.00000  Uiso   1.00
C46    C     0.00000   0.25000   0.14422   0.00000  Uiso   1.00
C47    C     0.25000  -0.00000   0.85578   0.00000  Uiso   1.00
C48    C     0.25000   0.00000   0.14422   0.00000  Uiso   1.00
C49    C     0.17992   0.07008   0.25000   0.00000  Uiso   1.00
C50    C     0.32008   0.42992   0.75000   0.00000  Uiso   1.00
C51    C     0.42992   0.17992   0.25000   0.00000  Uiso   1.00
C52    C     0.07008   0.32008   0.75000   0.00000  Uiso   1.00
C53    C     0.32008   0.42992   0.25000   0.00000  Uiso   1.00
C54    C     0.17992   0.07008   0.75000   0.00000  Uiso   1.00
C55    C     0.07008   0.32008   0.25000   0.00000  Uiso   1.00
C56    C     0.42992   0.17992   0.75000   0.00000  Uiso   1.00
C57    C     0.17992   0.42992   0.75000   0.00000  Uiso   1.00
C58    C     0.32008   0.07008   0.25000   0.00000  Uiso   1.00
C59    C     0.42992   0.32008   0.75000   0.00000  Uiso   1.00
C60    C     0.07008   0.17992   0.25000   0.00000  Uiso   1.00
C61    C     0.32008   0.07008   0.75000   0.00000  Uiso   1.00
C62    C     0.17992   0.42992   0.25000   0.00000  Uiso   1.00
C63    C     0.07008   0.17992   0.75000   0.00000  Uiso   1.00
C64    C     0.42992   0.32008   0.25000   0.00000  Uiso   1.00
C65    C     0.12208   0.40463   0.22454   0.00000  Uiso   1.00
C66    C     0.37792   0.09536   0.77546   0.00000  Uiso   1.00
C67    C     0.09537   0.12208   0.22453   0.00000  Uiso   1.00
C68    C     0.40463   0.37792   0.77546   0.00000  Uiso   1.00
C69    C     0.37792   0.09537   0.22454   0.00000  Uiso   1.00
C70    C     0.12208   0.40463   0.77546   0.00000  Uiso   1.00
C71    C     0.40463   0.37792   0.22453   0.00000  Uiso   1.00
C72    C     0.09537   0.12208   0.77547   0.00000  Uiso   1.00
C73    C     0.12208   0.09537   0.77547   0.00000  Uiso   1.00
C74    C     0.37792   0.40463   0.22453   0.00000  Uiso   1.00
C75    C     0.09537   0.37792   0.77546   0.00000  Uiso   1.00
C76    C     0.40463   0.12208   0.22454   0.00000  Uiso   1.00
C77    C     0.37792   0.40463   0.77546   0.00000  Uiso   1.00
C78    C     0.12208   0.09537   0.22453   0.00000  Uiso   1.00
C79    C     0.40463   0.12208   0.77546   0.00000  Uiso   1.00
C80    C     0.09537   0.37792   0.22454   0.00000  Uiso   1.00
C81    C     0.37208   0.15463   0.72454   0.00000  Uiso   1.00
C82    C     0.12792   0.34537   0.27546   0.00000  Uiso   1.00
C83    C     0.34537   0.37208   0.72453   0.00000  Uiso   1.00
C84    C     0.15463   0.12792   0.27546   0.00000  Uiso   1.00
C85    C     0.12792   0.34537   0.72454   0.00000  Uiso   1.00
C86    C     0.37208   0.15463   0.27546   0.00000  Uiso   1.00
C87    C     0.15463   0.12792   0.72453   0.00000  Uiso   1.00
C88    C     0.34537   0.37208   0.27547   0.00000  Uiso   1.00
C89    C     0.37208   0.34537   0.27547   0.00000  Uiso   1.00
C90    C     0.12792   0.15463   0.72453   0.00000  Uiso   1.00
C91    C     0.34537   0.12792   0.27546   0.00000  Uiso   1.00
C92    C     0.15463   0.37208   0.72454   0.00000  Uiso   1.00
C93    C     0.12792   0.15463   0.27546   0.00000  Uiso   1.00
C94    C     0.37208   0.34537   0.72453   0.00000  Uiso   1.00
C95    C     0.15463   0.37208   0.27546   0.00000  Uiso   1.00
C96    C     0.34537   0.12792   0.72454   0.00000  Uiso   1.00
C97    C     0.00146   0.21642   0.45887   0.00000  Uiso   1.00
C98    C     0.00143   0.28358   0.54113   0.00000  Uiso   1.00
C99    C     0.28358   0.00143   0.45887   0.00000  Uiso   1.00
C100   C     0.21642   0.00147   0.54113   0.00000  Uiso   1.00
C101   C     0.49853   0.28358   0.45887   0.00000  Uiso   1.00
C102   C     0.49857   0.21642   0.54113   0.00000  Uiso   1.00
C103   C     0.21642   0.49857   0.45887   0.00000  Uiso   1.00
C104   C     0.28358   0.49854   0.54112   0.00000  Uiso   1.00
C105   C     0.25146   0.46642   0.95887   0.00000  Uiso   1.00
C106   C     0.25143   0.03358   0.04113   0.00000  Uiso   1.00
C107   C     0.03358   0.25143   0.95887   0.00000  Uiso   1.00
C108   C     0.46642   0.25147   0.04113   0.00000  Uiso   1.00
C109   C     0.24853   0.03358   0.95887   0.00000  Uiso   1.00
C110   C     0.24857   0.46642   0.04113   0.00000  Uiso   1.00
C111   C     0.46642   0.24857   0.95887   0.00000  Uiso   1.00
C112   C     0.03358   0.24854   0.04112   0.00000  Uiso   1.00
C113   C     0.09814   0.34814   0.25000   0.00000  Uiso   1.00
C114   C     0.40186   0.15186   0.75000   0.00000  Uiso   1.00
C115   C     0.15186   0.09814   0.25000   0.00000  Uiso   1.00
C116   C     0.34814   0.40186   0.75000   0.00000  Uiso   1.00
C117   C     0.40186   0.15186   0.25000   0.00000  Uiso   1.00
C118   C     0.09814   0.34814   0.75000   0.00000  Uiso   1.00
C119   C     0.34814   0.40186   0.25000   0.00000  Uiso   1.00
C120   C     0.15186   0.09814   0.75000   0.00000  Uiso   1.00
C121   C     0.09814   0.15186   0.75000   0.00000  Uiso   1.00
C122   C     0.40186   0.34814   0.25000   0.00000  Uiso   1.00
C123   C     0.15186   0.40186   0.75000   0.00000  Uiso   1.00
C124   C     0.34814   0.09814   0.25000   0.00000  Uiso   1.00
C125   C     0.40186   0.34814   0.75000   0.00000  Uiso   1.00
C126   C     0.09814   0.15186   0.25000   0.00000  Uiso   1.00
C127   C     0.34814   0.09814   0.75000   0.00000  Uiso   1.00
C128   C     0.15186   0.40186   0.25000   0.00000  Uiso   1.00
C129   C    -0.00000   0.25000   0.47949   0.00000  Uiso   1.00
C130   C    -0.00000   0.25000   0.52052   0.00000  Uiso   1.00
C131   C     0.25000   0.00000   0.47948   0.00000  Uiso   1.00
C132   C     0.25000   0.00000   0.52051   0.00000  Uiso   1.00
C133   C     0.25000  -0.00000   0.97949   0.00000  Uiso   1.00
C134   C     0.25000  -0.00000   0.02052   0.00000  Uiso   1.00
C135   C     0.00000   0.25000   0.97948   0.00000  Uiso   1.00
C136   C     0.00000   0.25000   0.02051   0.00000  Uiso   1.00
H137   H     0.11940   0.42739   0.20461   0.00000  Uiso   1.00
H138   H     0.38060   0.07261   0.79539   0.00000  Uiso   1.00
H139   H     0.07261   0.11940   0.20461   0.00000  Uiso   1.00
H140   H     0.42739   0.38060   0.79539   0.00000  Uiso   1.00
H141   H     0.38060   0.07261   0.20461   0.00000  Uiso   1.00
H142   H     0.11940   0.42739   0.79539   0.00000  Uiso   1.00
H143   H     0.42739   0.38060   0.20460   0.00000  Uiso   1.00
H144   H     0.07261   0.11940   0.79540   0.00000  Uiso   1.00
H145   H     0.11940   0.07261   0.79539   0.00000  Uiso   1.00
H146   H     0.38060   0.42739   0.20460   0.00000  Uiso   1.00
H147   H     0.07261   0.38060   0.79539   0.00000  Uiso   1.00
H148   H     0.42739   0.11940   0.20461   0.00000  Uiso   1.00
H149   H     0.38060   0.42739   0.79539   0.00000  Uiso   1.00
H150   H     0.11940   0.07261   0.20460   0.00000  Uiso   1.00
H151   H     0.42739   0.11940   0.79539   0.00000  Uiso   1.00
H152   H     0.07261   0.38060   0.20461   0.00000  Uiso   1.00
H153   H     0.36940   0.17739   0.70461   0.00000  Uiso   1.00
H154   H     0.13060   0.32261   0.29539   0.00000  Uiso   1.00
H155   H     0.32261   0.36940   0.70461   0.00000  Uiso   1.00
H156   H     0.17739   0.13060   0.29539   0.00000  Uiso   1.00
H157   H     0.13060   0.32261   0.70461   0.00000  Uiso   1.00
H158   H     0.36940   0.17739   0.29539   0.00000  Uiso   1.00
H159   H     0.17739   0.13060   0.70460   0.00000  Uiso   1.00
H160   H     0.32261   0.36940   0.29540   0.00000  Uiso   1.00
H161   H     0.36940   0.32261   0.29539   0.00000  Uiso   1.00
H162   H     0.13060   0.17739   0.70460   0.00000  Uiso   1.00
H163   H     0.32261   0.13060   0.29539   0.00000  Uiso   1.00
H164   H     0.17739   0.36940   0.70461   0.00000  Uiso   1.00
H165   H     0.13060   0.17739   0.29539   0.00000  Uiso   1.00
H166   H     0.36940   0.32261   0.70460   0.00000  Uiso   1.00
H167   H     0.17739   0.36940   0.29539   0.00000  Uiso   1.00
H168   H     0.32261   0.13060   0.70461   0.00000  Uiso   1.00
H169   H     0.49415   0.30743   0.40093   0.00000  Uiso   1.00
H170   H     0.49421   0.19257   0.59907   0.00000  Uiso   1.00
H171   H     0.19257   0.49421   0.40093   0.00000  Uiso   1.00
H172   H     0.30743   0.49415   0.59906   0.00000  Uiso   1.00
H173   H     0.00585   0.19257   0.40094   0.00000  Uiso   1.00
H174   H     0.00579   0.30743   0.59907   0.00000  Uiso   1.00
H175   H     0.30743   0.00579   0.40093   0.00000  Uiso   1.00
H176   H     0.19257   0.00585   0.59907   0.00000  Uiso   1.00
H177   H     0.24415   0.05743   0.90093   0.00000  Uiso   1.00
H178   H     0.24421   0.44257   0.09907   0.00000  Uiso   1.00
H179   H     0.44257   0.24421   0.90093   0.00000  Uiso   1.00
H180   H     0.05743   0.24415   0.09906   0.00000  Uiso   1.00
H181   H     0.25585   0.44257   0.90094   0.00000  Uiso   1.00
H182   H     0.25579   0.05743   0.09907   0.00000  Uiso   1.00
H183   H     0.05743   0.25579   0.90093   0.00000  Uiso   1.00
H184   H     0.44257   0.25585   0.09907   0.00000  Uiso   1.00
O185   O     0.25000  -0.00000   0.25000   0.00000  Uiso   1.00
O186   O     0.25000  -0.00000   0.75000   0.00000  Uiso   1.00
O187   O     0.00000   0.25000   0.25000   0.00000  Uiso   1.00
O188   O     0.00000   0.25000   0.75000   0.00000  Uiso   1.00
O189   O     0.25000   0.46963   0.33755   0.00000  Uiso   1.00
O190   O     0.25000   0.03036   0.66245   0.00000  Uiso   1.00
O191   O     0.03037   0.25000   0.33755   0.00000  Uiso   1.00
O192   O     0.46964   0.25000   0.66245   0.00000  Uiso   1.00
O193   O     0.25000   0.03036   0.33755   0.00000  Uiso   1.00
O194   O     0.25000   0.46963   0.66245   0.00000  Uiso   1.00
O195   O     0.46964   0.25000   0.33755   0.00000  Uiso   1.00
O196   O     0.03037   0.25000   0.66245   0.00000  Uiso   1.00
O197   O     0.00000   0.21963   0.83755   0.00000  Uiso   1.00
O198   O     0.00000   0.28036   0.16245   0.00000  Uiso   1.00
O199   O     0.28037  -0.00000   0.83755   0.00000  Uiso   1.00
O200   O     0.21964  -0.00000   0.16245   0.00000  Uiso   1.00
O201   O     0.00000   0.28036   0.83755   0.00000  Uiso   1.00
O202   O     0.00000   0.21963   0.16245   0.00000  Uiso   1.00
O203   O     0.21964  -0.00000   0.83755   0.00000  Uiso   1.00
O204   O     0.28037  -0.00000   0.16245   0.00000  Uiso   1.00
O205   O     0.20725   0.07307   0.27302   0.00000  Uiso   1.00
O206   O     0.29276   0.42692   0.72698   0.00000  Uiso   1.00
O207   O     0.42693   0.20724   0.27302   0.00000  Uiso   1.00
O208   O     0.07308   0.29275   0.72698   0.00000  Uiso   1.00
O209   O     0.29276   0.42692   0.27302   0.00000  Uiso   1.00
O210   O     0.20725   0.07307   0.72698   0.00000  Uiso   1.00
O211   O     0.07308   0.29275   0.27302   0.00000  Uiso   1.00
O212   O     0.42693   0.20724   0.72698   0.00000  Uiso   1.00
O213   O     0.20725   0.42692   0.72698   0.00000  Uiso   1.00
O214   O     0.29276   0.07307   0.27302   0.00000  Uiso   1.00
O215   O     0.42693   0.29275   0.72698   0.00000  Uiso   1.00
O216   O     0.07308   0.20724   0.27302   0.00000  Uiso   1.00
O217   O     0.29276   0.07307   0.72698   0.00000  Uiso   1.00
O218   O     0.20725   0.42692   0.27302   0.00000  Uiso   1.00
O219   O     0.07308   0.20724   0.72698   0.00000  Uiso   1.00
O220   O     0.42693   0.29275   0.27302   0.00000  Uiso   1.00
O221   O     0.45725   0.32307   0.77302   0.00000  Uiso   1.00
O222   O     0.04276   0.17692   0.22698   0.00000  Uiso   1.00
O223   O     0.17693   0.45724   0.77302   0.00000  Uiso   1.00
O224   O     0.32308   0.04275   0.22698   0.00000  Uiso   1.00
O225   O     0.04276   0.17692   0.77302   0.00000  Uiso   1.00
O226   O     0.45725   0.32307   0.22698   0.00000  Uiso   1.00
O227   O     0.32308   0.04275   0.77302   0.00000  Uiso   1.00
O228   O     0.17693   0.45724   0.22698   0.00000  Uiso   1.00
O229   O     0.45725   0.17692   0.22698   0.00000  Uiso   1.00
O230   O     0.04276   0.32308   0.77302   0.00000  Uiso   1.00
O231   O     0.17693   0.04275   0.22698   0.00000  Uiso   1.00
O232   O     0.32308   0.45724   0.77302   0.00000  Uiso   1.00
O233   O     0.04276   0.32308   0.22698   0.00000  Uiso   1.00
O234   O     0.45725   0.17692   0.77302   0.00000  Uiso   1.00
O235   O     0.32308   0.45724   0.22698   0.00000  Uiso   1.00
O236   O     0.17693   0.04275   0.77302   0.00000  Uiso   1.00
Zn237  Zn    0.20660  -0.00000   0.21735   0.00000  Uiso   1.00
Zn238  Zn    0.29341  -0.00000   0.78265   0.00000  Uiso   1.00
Zn239  Zn    0.00000   0.20660   0.21735   0.00000  Uiso   1.00
Zn240  Zn    0.00000   0.29340   0.78265   0.00000  Uiso   1.00
Zn241  Zn    0.29341  -0.00000   0.21735   0.00000  Uiso   1.00
Zn242  Zn    0.20660  -0.00000   0.78265   0.00000  Uiso   1.00
Zn243  Zn    0.00000   0.29340   0.21735   0.00000  Uiso   1.00
Zn244  Zn    0.00000   0.20660   0.78265   0.00000  Uiso   1.00
Zn245  Zn    0.45660   0.25000   0.71735   0.00000  Uiso   1.00
Zn246  Zn    0.04341   0.25000   0.28265   0.00000  Uiso   1.00
Zn247  Zn    0.25000   0.45659   0.71735   0.00000  Uiso   1.00
Zn248  Zn    0.25000   0.04340   0.28265   0.00000  Uiso   1.00
Zn249  Zn    0.04341   0.25000   0.71735   0.00000  Uiso   1.00
Zn250  Zn    0.45660   0.25000   0.28265   0.00000  Uiso   1.00
Zn251  Zn    0.25000   0.04340   0.71735   0.00000  Uiso   1.00
Zn252  Zn    0.25000   0.45659   0.28265   0.00000  Uiso   1.00
C253   C     0.00600   0.14757   0.45866   0.00000  Uiso   1.00
C254   C     0.47841   0.13408   0.43417   0.00000  Uiso   1.00
C255   C     0.48271   0.10043   0.41557   0.00000  Uiso   1.00
C256   C     0.01397   0.07956   0.42222   0.00000  Uiso   1.00
C257   C     0.04124   0.09258   0.44704   0.00000  Uiso   1.00
C258   C     0.03746   0.12657   0.46493   0.00000  Uiso   1.00
H259   H     0.45374   0.14968   0.42945   0.00000  Uiso   1.00
H260   H     0.46163   0.09035   0.39629   0.00000  Uiso   1.00
H261   H     0.01700   0.05329   0.40823   0.00000  Uiso   1.00
H262   H     0.06531   0.07641   0.45257   0.00000  Uiso   1.00
H263   H     0.05884   0.13637   0.48404   0.00000  Uiso   1.00
C264   C     0.00589   0.35245   0.54134   0.00000  Uiso   1.00
C265   C     0.47829   0.36587   0.56587   0.00000  Uiso   1.00
C266   C     0.48255   0.39951   0.58451   0.00000  Uiso   1.00
C267   C     0.01377   0.42044   0.57785   0.00000  Uiso   1.00
C268   C     0.04106   0.40748   0.55299   0.00000  Uiso   1.00
C269   C     0.03732   0.37350   0.53508   0.00000  Uiso   1.00
H270   H     0.45365   0.35023   0.57060   0.00000  Uiso   1.00
H271   H     0.46146   0.40954   0.60382   0.00000  Uiso   1.00
H272   H     0.01678   0.44670   0.59186   0.00000  Uiso   1.00
H273   H     0.06510   0.42370   0.54745   0.00000  Uiso   1.00
H274   H     0.05871   0.36375   0.51594   0.00000  Uiso   1.00
C275   C     0.35244   0.00590   0.45865   0.00000  Uiso   1.00
C276   C     0.36588   0.47830   0.43413   0.00000  Uiso   1.00
C277   C     0.39951   0.48257   0.41549   0.00000  Uiso   1.00
C278   C     0.42042   0.01380   0.42214   0.00000  Uiso   1.00
C279   C     0.40746   0.04108   0.44699   0.00000  Uiso   1.00
C280   C     0.37349   0.03734   0.46491   0.00000  Uiso   1.00
H281   H     0.35024   0.45366   0.42941   0.00000  Uiso   1.00
H282   H     0.40954   0.46149   0.39618   0.00000  Uiso   1.00
H283   H     0.44668   0.01681   0.40812   0.00000  Uiso   1.00
H284   H     0.42367   0.06513   0.45252   0.00000  Uiso   1.00
H285   H     0.36373   0.05872   0.48404   0.00000  Uiso   1.00
C286   C     0.14757   0.00601   0.54134   0.00000  Uiso   1.00
C287   C     0.13408   0.47841   0.56583   0.00000  Uiso   1.00
C288   C     0.10043   0.48272   0.58444   0.00000  Uiso   1.00
C289   C     0.07957   0.01398   0.57779   0.00000  Uiso   1.00
C290   C     0.09260   0.04126   0.55298   0.00000  Uiso   1.00
C291   C     0.12658   0.03748   0.53509   0.00000  Uiso   1.00
H292   H     0.14967   0.45375   0.57054   0.00000  Uiso   1.00
H293   H     0.09034   0.46164   0.60370   0.00000  Uiso   1.00
H294   H     0.05330   0.01702   0.59178   0.00000  Uiso   1.00
H295   H     0.07643   0.06534   0.54745   0.00000  Uiso   1.00
H296   H     0.13639   0.05886   0.51598   0.00000  Uiso   1.00
C297   C     0.49399   0.35243   0.45866   0.00000  Uiso   1.00
C298   C     0.02159   0.36592   0.43417   0.00000  Uiso   1.00
C299   C     0.01728   0.39958   0.41556   0.00000  Uiso   1.00
C300   C     0.48602   0.42043   0.42221   0.00000  Uiso   1.00
C301   C     0.45874   0.40740   0.44702   0.00000  Uiso   1.00
C302   C     0.46252   0.37342   0.46491   0.00000  Uiso   1.00
H303   H     0.04625   0.35033   0.42946   0.00000  Uiso   1.00
H304   H     0.03836   0.40966   0.39629   0.00000  Uiso   1.00
H305   H     0.48298   0.44670   0.40822   0.00000  Uiso   1.00
H306   H     0.43466   0.42357   0.45254   0.00000  Uiso   1.00
H307   H     0.44114   0.36361   0.48402   0.00000  Uiso   1.00
C308   C     0.49410   0.14756   0.54135   0.00000  Uiso   1.00
C309   C     0.02170   0.13412   0.56587   0.00000  Uiso   1.00
C310   C     0.01743   0.10049   0.58451   0.00000  Uiso   1.00
C311   C     0.48620   0.07958   0.57786   0.00000  Uiso   1.00
C312   C     0.45892   0.09254   0.55301   0.00000  Uiso   1.00
C313   C     0.46266   0.12651   0.53509   0.00000  Uiso   1.00
H314   H     0.04634   0.14976   0.57059   0.00000  Uiso   1.00
H315   H     0.03851   0.09046   0.60382   0.00000  Uiso   1.00
H316   H     0.48319   0.05332   0.59188   0.00000  Uiso   1.00
H317   H     0.43487   0.07633   0.54748   0.00000  Uiso   1.00
H318   H     0.44128   0.13627   0.51596   0.00000  Uiso   1.00
C319   C     0.14755   0.49411   0.45866   0.00000  Uiso   1.00
C320   C     0.13413   0.02171   0.43413   0.00000  Uiso   1.00
C321   C     0.10049   0.01745   0.41549   0.00000  Uiso   1.00
C322   C     0.07956   0.48623   0.42215   0.00000  Uiso   1.00
C323   C     0.09252   0.45894   0.44701   0.00000  Uiso   1.00
C324   C     0.12650   0.46268   0.46492   0.00000  Uiso   1.00
H325   H     0.14977   0.04635   0.42940   0.00000  Uiso   1.00
H326   H     0.09046   0.03854   0.39618   0.00000  Uiso   1.00
H327   H     0.05330   0.48322   0.40814   0.00000  Uiso   1.00
H328   H     0.07630   0.43490   0.45254   0.00000  Uiso   1.00
H329   H     0.13625   0.44129   0.48406   0.00000  Uiso   1.00
C330   C     0.35243   0.49400   0.54133   0.00000  Uiso   1.00
C331   C     0.36592   0.02159   0.56583   0.00000  Uiso   1.00
C332   C     0.39957   0.01729   0.58443   0.00000  Uiso   1.00
C333   C     0.42044   0.48603   0.57778   0.00000  Uiso   1.00
C334   C     0.40742   0.45876   0.55296   0.00000  Uiso   1.00
C335   C     0.37343   0.46254   0.53507   0.00000  Uiso   1.00
H336   H     0.35032   0.04626   0.57055   0.00000  Uiso   1.00
H337   H     0.40965   0.03837   0.60371   0.00000  Uiso   1.00
H338   H     0.44671   0.48300   0.59177   0.00000  Uiso   1.00
H339   H     0.42359   0.43469   0.54742   0.00000  Uiso   1.00
H340   H     0.36363   0.44116   0.51596   0.00000  Uiso   1.00
C341   C     0.25600   0.39757   0.95866   0.00000  Uiso   1.00
C342   C     0.22841   0.38408   0.93417   0.00000  Uiso   1.00
C343   C     0.23271   0.35043   0.91557   0.00000  Uiso   1.00
C344   C     0.26397   0.32956   0.92222   0.00000  Uiso   1.00
C345   C     0.29124   0.34258   0.94704   0.00000  Uiso   1.00
C346   C     0.28746   0.37657   0.96493   0.00000  Uiso   1.00
H347   H     0.20374   0.39968   0.92945   0.00000  Uiso   1.00
H348   H     0.21163   0.34035   0.89629   0.00000  Uiso   1.00
H349   H     0.26700   0.30329   0.90823   0.00000  Uiso   1.00
H350   H     0.31531   0.32641   0.95257   0.00000  Uiso   1.00
H351   H     0.30884   0.38637   0.98404   0.00000  Uiso   1.00
C352   C     0.25589   0.10245   0.04134   0.00000  Uiso   1.00
C353   C     0.22829   0.11587   0.06587   0.00000  Uiso   1.00
C354   C     0.23255   0.14951   0.08451   0.00000  Uiso   1.00
C355   C     0.26377   0.17044   0.07785   0.00000  Uiso   1.00
C356   C     0.29106   0.15748   0.05299   0.00000  Uiso   1.00
C357   C     0.28732   0.12350   0.03508   0.00000  Uiso   1.00
H358   H     0.20365   0.10023   0.07060   0.00000  Uiso   1.00
H359   H     0.21146   0.15954   0.10382   0.00000  Uiso   1.00
H360   H     0.26678   0.19670   0.09186   0.00000  Uiso   1.00
H361   H     0.31510   0.17370   0.04745   0.00000  Uiso   1.00
H362   H     0.30871   0.11375   0.01594   0.00000  Uiso   1.00
C363   C     0.10244   0.25590   0.95865   0.00000  Uiso   1.00
C364   C     0.11588   0.22830   0.93413   0.00000  Uiso   1.00
C365   C     0.14951   0.23257   0.91549   0.00000  Uiso   1.00
C366   C     0.17042   0.26380   0.92214   0.00000  Uiso   1.00
C367   C     0.15746   0.29108   0.94699   0.00000  Uiso   1.00
C368   C     0.12349   0.28734   0.96491   0.00000  Uiso   1.00
H369   H     0.10024   0.20366   0.92941   0.00000  Uiso   1.00
H370   H     0.15954   0.21149   0.89618   0.00000  Uiso   1.00
H371   H     0.19668   0.26681   0.90812   0.00000  Uiso   1.00
H372   H     0.17367   0.31513   0.95252   0.00000  Uiso   1.00
H373   H     0.11373   0.30872   0.98404   0.00000  Uiso   1.00
C374   C     0.39757   0.25601   0.04134   0.00000  Uiso   1.00
C375   C     0.38408   0.22841   0.06583   0.00000  Uiso   1.00
C376   C     0.35043   0.23272   0.08444   0.00000  Uiso   1.00
C377   C     0.32957   0.26398   0.07779   0.00000  Uiso   1.00
C378   C     0.34260   0.29126   0.05298   0.00000  Uiso   1.00
C379   C     0.37658   0.28748   0.03509   0.00000  Uiso   1.00
H380   H     0.39967   0.20375   0.07054   0.00000  Uiso   1.00
H381   H     0.34034   0.21164   0.10370   0.00000  Uiso   1.00
H382   H     0.30330   0.26702   0.09178   0.00000  Uiso   1.00
H383   H     0.32643   0.31534   0.04745   0.00000  Uiso   1.00
H384   H     0.38639   0.30886   0.01598   0.00000  Uiso   1.00
C385   C     0.24399   0.10243   0.95866   0.00000  Uiso   1.00
C386   C     0.27159   0.11592   0.93417   0.00000  Uiso   1.00
C387   C     0.26728   0.14957   0.91556   0.00000  Uiso   1.00
C388   C     0.23602   0.17043   0.92221   0.00000  Uiso   1.00
C389   C     0.20874   0.15740   0.94702   0.00000  Uiso   1.00
C390   C     0.21252   0.12342   0.96491   0.00000  Uiso   1.00
H391   H     0.29625   0.10033   0.92946   0.00000  Uiso   1.00
H392   H     0.28836   0.15966   0.89629   0.00000  Uiso   1.00
H393   H     0.23298   0.19670   0.90822   0.00000  Uiso   1.00
H394   H     0.18466   0.17357   0.95254   0.00000  Uiso   1.00
H395   H     0.19114   0.11361   0.98402   0.00000  Uiso   1.00
C396   C     0.24410   0.39756   0.04135   0.00000  Uiso   1.00
C397   C     0.27170   0.38412   0.06587   0.00000  Uiso   1.00
C398   C     0.26743   0.35049   0.08451   0.00000  Uiso   1.00
C399   C     0.23620   0.32958   0.07786   0.00000  Uiso   1.00
C400   C     0.20892   0.34254   0.05301   0.00000  Uiso   1.00
C401   C     0.21266   0.37651   0.03509   0.00000  Uiso   1.00
H402   H     0.29634   0.39976   0.07059   0.00000  Uiso   1.00
H403   H     0.28851   0.34046   0.10382   0.00000  Uiso   1.00
H404   H     0.23319   0.30332   0.09188   0.00000  Uiso   1.00
H405   H     0.18487   0.32633   0.04748   0.00000  Uiso   1.00
H406   H     0.19128   0.38627   0.01596   0.00000  Uiso   1.00
C407   C     0.39755   0.24411   0.95866   0.00000  Uiso   1.00
C408   C     0.38413   0.27171   0.93413   0.00000  Uiso   1.00
C409   C     0.35049   0.26745   0.91549   0.00000  Uiso   1.00
C410   C     0.32956   0.23623   0.92215   0.00000  Uiso   1.00
C411   C     0.34252   0.20894   0.94701   0.00000  Uiso   1.00
C412   C     0.37650   0.21268   0.96492   0.00000  Uiso   1.00
H413   H     0.39977   0.29635   0.92940   0.00000  Uiso   1.00
H414   H     0.34046   0.28854   0.89618   0.00000  Uiso   1.00
H415   H     0.30330   0.23322   0.90814   0.00000  Uiso   1.00
H416   H     0.32630   0.18490   0.95254   0.00000  Uiso   1.00
H417   H     0.38625   0.19129   0.98406   0.00000  Uiso   1.00
C418   C     0.10243   0.24400   0.04133   0.00000  Uiso   1.00
C419   C     0.11592   0.27159   0.06583   0.00000  Uiso   1.00
C420   C     0.14957   0.26729   0.08443   0.00000  Uiso   1.00
C421   C     0.17044   0.23603   0.07778   0.00000  Uiso   1.00
C422   C     0.15742   0.20876   0.05296   0.00000  Uiso   1.00
C423   C     0.12343   0.21254   0.03507   0.00000  Uiso   1.00
H424   H     0.10032   0.29626   0.07055   0.00000  Uiso   1.00
H425   H     0.15965   0.28837   0.10371   0.00000  Uiso   1.00
H426   H     0.19671   0.23300   0.09177   0.00000  Uiso   1.00
H427   H     0.17359   0.18469   0.04742   0.00000  Uiso   1.00
H428   H     0.11363   0.19116   0.01596   0.00000  Uiso   1.00
C429   C     0.99698   0.28277   0.41795   0.00000  Uiso   1.00
C430   C     0.99702   0.21723   0.58205   0.00000  Uiso   1.00
C431   C     0.71723   0.49702   0.41795   0.00000  Uiso   1.00
C432   C     0.78277   0.49698   0.58205   0.00000  Uiso   1.00
C433   C     0.50302   0.21723   0.41795   0.00000  Uiso   1.00
C434   C     0.50298   0.28277   0.58205   0.00000  Uiso   1.00
C435   C     0.78277   0.00298   0.41795   0.00000  Uiso   1.00
C436   C     0.71723   0.00302   0.58205   0.00000  Uiso   1.00
C437   C     0.74698   0.03277   0.91795   0.00000  Uiso   1.00
C438   C     0.74702   0.46723   0.08205   0.00000  Uiso   1.00
C439   C     0.96723   0.24702   0.91795   0.00000  Uiso   1.00
C440   C     0.53277   0.24698   0.08205   0.00000  Uiso   1.00
C441   C     0.75302   0.46723   0.91795   0.00000  Uiso   1.00
C442   C     0.75298   0.03277   0.08205   0.00000  Uiso   1.00
C443   C     0.53277   0.25298   0.91795   0.00000  Uiso   1.00
C444   C     0.96723   0.25302   0.08205   0.00000  Uiso   1.00
C445   C     0.50000   0.25000   0.39799   0.00000  Uiso   1.00
C446   C     0.50000   0.25000   0.60201   0.00000  Uiso   1.00
C447   C     0.75000  -0.00000   0.39799   0.00000  Uiso   1.00
C448   C     0.75000   0.00000   0.60201   0.00000  Uiso   1.00
C449   C     0.75000  -0.00000   0.89799   0.00000  Uiso   1.00
C450   C     0.75000   0.00000   0.10201   0.00000  Uiso   1.00
C451   C     0.50000   0.25000   0.89799   0.00000  Uiso   1.00
C452   C     0.50000   0.25000   0.10201   0.00000  Uiso   1.00
C453   C     0.50156   0.18294   0.47945   0.00000  Uiso   1.00
C454   C     0.50149   0.31706   0.52055   0.00000  Uiso   1.00
C455   C     0.81706   0.00150   0.47944   0.00000  Uiso   1.00
C456   C     0.68294   0.00156   0.52055   0.00000  Uiso   1.00
C457   C     0.99844   0.31706   0.47945   0.00000  Uiso   1.00
C458   C     0.99850   0.18294   0.52056   0.00000  Uiso   1.00
C459   C     0.68294   0.49851   0.47945   0.00000  Uiso   1.00
C460   C     0.81706   0.49844   0.52055   0.00000  Uiso   1.00
C461   C     0.75156   0.43294   0.97945   0.00000  Uiso   1.00
C462   C     0.75149   0.06706   0.02055   0.00000  Uiso   1.00
C463   C     0.56706   0.25150   0.97944   0.00000  Uiso   1.00
C464   C     0.93294   0.25156   0.02055   0.00000  Uiso   1.00
C465   C     0.74844   0.06706   0.97945   0.00000  Uiso   1.00
C466   C     0.74850   0.43294   0.02056   0.00000  Uiso   1.00
C467   C     0.93294   0.24851   0.97945   0.00000  Uiso   1.00
C468   C     0.56706   0.24844   0.02055   0.00000  Uiso   1.00
C469   C     0.75000  -0.00000   0.35578   0.00000  Uiso   1.00
C470   C     0.75000  -0.00000   0.64422   0.00000  Uiso   1.00
C471   C     0.50000   0.25000   0.35578   0.00000  Uiso   1.00
C472   C     0.50000   0.25000   0.64422   0.00000  Uiso   1.00
C473   C     0.50000   0.25000   0.85578   0.00000  Uiso   1.00
C474   C     0.50000   0.25000   0.14422   0.00000  Uiso   1.00
C475   C     0.75000  -0.00000   0.85578   0.00000  Uiso   1.00
C476   C     0.75000   0.00000   0.14422   0.00000  Uiso   1.00
C477   C     0.67992   0.07008   0.25000   0.00000  Uiso   1.00
C478   C     0.82008   0.42992   0.75000   0.00000  Uiso   1.00
C479   C     0.92992   0.17992   0.25000   0.00000  Uiso   1.00
C480   C     0.57008   0.32008   0.75000   0.00000  Uiso   1.00
C481   C     0.82008   0.42992   0.25000   0.00000  Uiso   1.00
C482   C     0.67992   0.07008   0.75000   0.00000  Uiso   1.00
C483   C     0.57008   0.32008   0.25000   0.00000  Uiso   1.00
C484   C     0.92992   0.17992   0.75000   0.00000  Uiso   1.00
C485   C     0.67992   0.42992   0.75000   0.00000  Uiso   1.00
C486   C     0.82008   0.07008   0.25000   0.00000  Uiso   1.00
C487   C     0.92992   0.32008   0.75000   0.00000  Uiso   1.00
C488   C     0.57008   0.17992   0.25000   0.00000  Uiso   1.00
C489   C     0.82008   0.07008   0.75000   0.00000  Uiso   1.00
C490   C     0.67992   0.42992   0.25000   0.00000  Uiso   1.00
C491   C     0.57008   0.17992   0.75000   0.00000  Uiso   1.00
C492   C     0.92992   0.32008   0.25000   0.00000  Uiso   1.00
C493   C     0.62208   0.40463   0.22454   0.00000  Uiso   1.00
C494   C     0.87792   0.09536   0.77546   0.00000  Uiso   1.00
C495   C     0.59537   0.12208   0.22453   0.00000  Uiso   1.00
C496   C     0.90463   0.37792   0.77546   0.00000  Uiso   1.00
C497   C     0.87792   0.09537   0.22454   0.00000  Uiso   1.00
C498   C     0.62208   0.40463   0.77546   0.00000  Uiso   1.00
C499   C     0.90463   0.37792   0.22453   0.00000  Uiso   1.00
C500   C     0.59537   0.12208   0.77547   0.00000  Uiso   1.00
C501   C     0.62208   0.09537   0.77547   0.00000  Uiso   1.00
C502   C     0.87792   0.40463   0.22453   0.00000  Uiso   1.00
C503   C     0.59537   0.37792   0.77546   0.00000  Uiso   1.00
C504   C     0.90463   0.12208   0.22454   0.00000  Uiso   1.00
C505   C     0.87792   0.40463   0.77546   0.00000  Uiso   1.00
C506   C     0.62208   0.09537   0.22453   0.00000  Uiso   1.00
C507   C     0.90463   0.12208   0.77546   0.00000  Uiso   1.00
C508   C     0.59537   0.37792   0.22454   0.00000  Uiso   1.00
C509   C     0.87208   0.15463   0.72454   0.00000  Uiso   1.00
C510   C     0.62792   0.34537   0.27546   0.00000  Uiso   1.00
C511   C     0.84537   0.37208   0.72453   0.00000  Uiso   1.00
C512   C     0.65463   0.12792   0.27546   0.00000  Uiso   1.00
C513   C     0.62792   0.34537   0.72454   0.00000  Uiso   1.00
C514   C     0.87208   0.15463   0.27546   0.00000  Uiso   1.00
C515   C     0.65463   0.12792   0.72453   0.00000  Uiso   1.00
C516   C     0.84537   0.37208   0.27547   0.00000  Uiso   1.00
C517   C     0.87208   0.34537   0.27547   0.00000  Uiso   1.00
C518   C     0.62792   0.15463   0.72453   0.00000  Uiso   1.00
C519   C     0.84537   0.12792   0.27546   0.00000  Uiso   1.00
C520   C     0.65463   0.37208   0.72454   0.00000  Uiso   1.00
C521   C     0.62792   0.15463   0.27546   0.00000  Uiso   1.00
C522   C     0.87208   0.34537   0.72453   0.00000  Uiso   1.00
C523   C     0.65463   0.37208   0.27546   0.00000  Uiso   1.00
C524   C     0.84537   0.12792   0.72454   0.00000  Uiso   1.00
C525   C     0.50146   0.21642   0.45887   0.00000  Uiso   1.00
C526   C     0.50143   0.28358   0.54113   0.00000  Uiso   1.00
C527   C     0.78358   0.00143   0.45887   0.00000  Uiso   1.00
C528   C     0.71642   0.00147   0.54113   0.00000  Uiso   1.00
C529   C     0.99853   0.28358   0.45887   0.00000  Uiso   1.00
C530   C     0.99857   0.21642   0.54113   0.00000  Uiso   1.00
C531   C     0.71642   0.49857   0.45887   0.00000  Uiso   1.00
C532   C     0.78358   0.49854   0.54112   0.00000  Uiso   1.00
C533   C     0.75146   0.46642   0.95887   0.00000  Uiso   1.00
C534   C     0.75143   0.03358   0.04113   0.00000  Uiso   1.00
C535   C     0.53358   0.25143   0.95887   0.00000  Uiso   1.00
C536   C     0.96642   0.25147   0.04113   0.00000  Uiso   1.00
C537   C     0.74853   0.03358   0.95887   0.00000  Uiso   1.00
C538   C     0.74857   0.46642   0.04113   0.00000  Uiso   1.00
C539   C     0.96642   0.24857   0.95887   0.00000  Uiso   1.00
C540   C     0.53358   0.24854   0.04112   0.00000  Uiso   1.00
C541   C     0.59814   0.34814   0.25000   0.00000  Uiso   1.00
C542   C     0.90186   0.15186   0.75000   0.00000  Uiso   1.00
C543   C     0.65186   0.09814   0.25000   0.00000  Uiso   1.00
C544   C     0.84814   0.40186   0.75000   0.00000  Uiso   1.00
C545   C     0.90186   0.15186   0.25000   0.00000  Uiso   1.00
C546   C     0.59814   0.34814   0.75000   0.00000  Uiso   1.00
C547   C     0.84814   0.40186   0.25000   0.00000  Uiso   1.00
C548   C     0.65186   0.09814   0.75000   0.00000  Uiso   1.00
C549   C     0.59814   0.15186   0.75000   0.00000  Uiso   1.00
C550   C     0.90186   0.34814   0.25000   0.00000  Uiso   1.00
C551   C     0.65186   0.40186   0.75000   0.00000  Uiso   1.00
C552   C     0.84814   0.09814   0.25000   0.00000  Uiso   1.00
C553   C     0.90186   0.34814   0.75000   0.00000  Uiso   1.00
C554   C     0.59814   0.15186   0.25000   0.00000  Uiso   1.00
C555   C     0.84814   0.09814   0.75000   0.00000  Uiso   1.00
C556   C     0.65186   0.40186   0.25000   0.00000  Uiso   1.00
C557   C     0.50000   0.25000   0.47949   0.00000  Uiso   1.00
C558   C     0.50000   0.25000   0.52052   0.00000  Uiso   1.00
C559   C     0.75000   0.00000   0.47948   0.00000  Uiso   1.00
C560   C     0.75000   0.00000   0.52051   0.00000  Uiso   1.00
C561   C     0.75000  -0.00000   0.97949   0.00000  Uiso   1.00
C562   C     0.75000  -0.00000   0.02052   0.00000  Uiso   1.00
C563   C     0.50000   0.25000   0.97948   0.00000  Uiso   1.00
C564   C     0.50000   0.25000   0.02051   0.00000  Uiso   1.00
H565   H     0.61940   0.42739   0.20461   0.00000  Uiso   1.00
H566   H     0.88060   0.07261   0.79539   0.00000  Uiso   1.00
H567   H     0.57261   0.11940   0.20461   0.00000  Uiso   1.00
H568   H     0.92739   0.38060   0.79539   0.00000  Uiso   1.00
H569   H     0.88060   0.07261   0.20461   0.00000  Uiso   1.00
H570   H     0.61940   0.42739   0.79539   0.00000  Uiso   1.00
H571   H     0.92739   0.38060   0.20460   0.00000  Uiso   1.00
H572   H     0.57261   0.11940   0.79540   0.00000  Uiso   1.00
H573   H     0.61940   0.07261   0.79539   0.00000  Uiso   1.00
H574   H     0.88060   0.42739   0.20460   0.00000  Uiso   1.00
H575   H     0.57261   0.38060   0.79539   0.00000  Uiso   1.00
H576   H     0.92739   0.11940   0.20461   0.00000  Uiso   1.00
H577   H     0.88060   0.42739   0.79539   0.00000  Uiso   1.00
H578   H     0.61940   0.07261   0.20460   0.00000  Uiso   1.00
H579   H     0.92739   0.11940   0.79539   0.00000  Uiso   1.00
H580   H     0.57261   0.38060   0.20461   0.00000  Uiso   1.00
H581   H     0.86940   0.17739   0.70461   0.00000  Uiso   1.00
H582   H     0.63060   0.32261   0.29539   0.00000  Uiso   1.00
H583   H     0.82261   0.36940   0.70461   0.00000  Uiso   1.00
H584   H     0.67739   0.13060   0.29539   0.00000  Uiso   1.00
H585   H     0.63060   0.32261   0.70461   0.00000  Uiso   1.00
H586   H     0.86940   0.17739   0.29539   0.00000  Uiso   1.00
H587   H     0.67739   0.13060   0.70460   0.00000  Uiso   1.00
H588   H     0.82261   0.36940   0.29540   0.00000  Uiso   1.00
H589   H     0.86940   0.32261   0.29539   0.00000  Uiso   1.00
H590   H     0.63060   0.17739   0.70460   0.00000  Uiso   1.00
H591   H     0.82261   0.13060   0.29539   0.00000  Uiso   1.00
H592   H     0.67739   0.36940   0.70461   0.00000  Uiso   1.00
H593   H     0.63060   0.17739   0.29539   0.00000  Uiso   1.00
H594   H     0.86940   0.32261   0.70460   0.00000  Uiso   1.00
H595   H     0.67739   0.36940   0.29539   0.00000  Uiso   1.00
H596   H     0.82261   0.13060   0.70461   0.00000  Uiso   1.00
H597   H     0.99415   0.30743   0.40093   0.00000  Uiso   1.00
H598   H     0.99421   0.19257   0.59907   0.00000  Uiso   1.00
H599   H     0.69257   0.49421   0.40093   0.00000  Uiso   1.00
H600   H     0.80743   0.49415   0.59906   0.00000  Uiso   1.00
H601   H     0.50585   0.19257   0.40094   0.00000  Uiso   1.00
H602   H     0.50579   0.30743   0.59907   0.00000  Uiso   1.00
H603   H     0.80743   0.00579   0.40093   0.00000  Uiso   1.00
H604   H     0.69257   0.00585   0.59907   0.00000  Uiso   1.00
H605   H     0.74415   0.05743   0.90093   0.00000  Uiso   1.00
H606   H     0.74421   0.44257   0.09907   0.00000  Uiso   1.00
H607   H     0.94257   0.24421   0.90093   0.00000  Uiso   1.00
H608   H     0.55743   0.24415   0.09906   0.00000  Uiso   1.00
H609   H     0.75585   0.44257   0.90094   0.00000  Uiso   1.00
H610   H     0.75579   0.05743   0.09907   0.00000  Uiso   1.00
H611   H     0.55743   0.25579   0.90093   0.00000  Uiso   1.00
H612   H     0.94257   0.25585   0.09907   0.00000  Uiso   1.00
O613   O     0.75000  -0.00000   0.25000   0.00000  Uiso   1.00
O614   O     0.75000  -0.00000   0.75000   0.00000  Uiso   1.00
O615   O     0.50000   0.25000   0.25000   0.00000  Uiso   1.00
O616   O     0.50000   0.25000   0.75000   0.00000  Uiso   1.00
O617   O     0.75000   0.46963   0.33755   0.00000  Uiso   1.00
O618   O     0.75000   0.03036   0.66245   0.00000  Uiso   1.00
O619   O     0.53037   0.25000   0.33755   0.00000  Uiso   1.00
O620   O     0.96964   0.25000   0.66245   0.00000  Uiso   1.00
O621   O     0.75000   0.03036   0.33755   0.00000  Uiso   1.00
O622   O     0.75000   0.46963   0.66245   0.00000  Uiso   1.00
O623   O     0.96964   0.25000   0.33755   0.00000  Uiso   1.00
O624   O     0.53037   0.25000   0.66245   0.00000  Uiso   1.00
O625   O     0.50000   0.21963   0.83755   0.00000  Uiso   1.00
O626   O     0.50000   0.28036   0.16245   0.00000  Uiso   1.00
O627   O     0.78037  -0.00000   0.83755   0.00000  Uiso   1.00
O628   O     0.71964  -0.00000   0.16245   0.00000  Uiso   1.00
O629   O     0.50000   0.28036   0.83755   0.00000  Uiso   1.00
O630   O     0.50000   0.21963   0.16245   0.00000  Uiso   1.00
O631   O     0.71964  -0.00000   0.83755   0.00000  Uiso   1.00
O632   O     0.78037  -0.00000   0.16245   0.00000  Uiso   1.00
O633   O     0.70725   0.07307   0.27302   0.00000  Uiso   1.00
O634   O     0.79276   0.42692   0.72698   0.00000  Uiso   1.00
O635   O     0.92693   0.20724   0.27302   0.00000  Uiso   1.00
O636   O     0.57308   0.29275   0.72698   0.00000  Uiso   1.00
O637   O     0.79276   0.42692   0.27302   0.00000  Uiso   1.00
O638   O     0.70725   0.07307   0.72698   0.00000  Uiso   1.00
O639   O     0.57308   0.29275   0.27302   0.00000  Uiso   1.00
O640   O     0.92693   0.20724   0.72698   0.00000  Uiso   1.00
O641   O     0.70725   0.42692   0.72698   0.00000  Uiso   1.00
O642   O     0.79276   0.07307   0.27302   0.00000  Uiso   1.00
O643   O     0.92693   0.29275   0.72698   0.00000  Uiso   1.00
O644   O     0.57308   0.20724   0.27302   0.00000  Uiso   1.00
O645   O     0.79276   0.07307   0.72698   0.00000  Uiso   1.00
O646   O     0.70725   0.42692   0.27302   0.00000  Uiso   1.00
O647   O     0.57308   0.20724   0.72698   0.00000  Uiso   1.00
O648   O     0.92693   0.29275   0.27302   0.00000  Uiso   1.00
O649   O     0.95725   0.32307   0.77302   0.00000  Uiso   1.00
O650   O     0.54276   0.17692   0.22698   0.00000  Uiso   1.00
O651   O     0.67693   0.45724   0.77302   0.00000  Uiso   1.00
O652   O     0.82308   0.04275   0.22698   0.00000  Uiso   1.00
O653   O     0.54276   0.17692   0.77302   0.00000  Uiso   1.00
O654   O     0.95725   0.32307   0.22698   0.00000  Uiso   1.00
O655   O     0.82308   0.04275   0.77302   0.00000  Uiso   1.00
O656   O     0.67693   0.45724   0.22698   0.00000  Uiso   1.00
O657   O     0.95725   0.17692   0.22698   0.00000  Uiso   1.00
O658   O     0.54276   0.32308   0.77302   0.00000  Uiso   1.00
O659   O     0.67693   0.04275   0.22698   0.00000  Uiso   1.00
O660   O     0.82308   0.45724   0.77302   0.00000  Uiso   1.00
O661   O     0.54276   0.32308   0.22698   0.00000  Uiso   1.00
O662   O     0.95725   0.17692   0.77302   0.00000  Uiso   1.00
O663   O     0.82308   0.45724   0.22698   0.00000  Uiso   1.00
O664   O     0.67693   0.04275   0.77302   0.00000  Uiso   1.00
Zn665  Zn    0.70660  -0.00000   0.21735   0.00000  Uiso   1.00
Zn666  Zn    0.79341  -0.00000   0.78265   0.00000  Uiso   1.00
Zn667  Zn    0.50000   0.20660   0.21735   0.00000  Uiso   1.00
Zn668  Zn    0.50000   0.29340   0.78265   0.00000  Uiso   1.00
Zn669  Zn    0.79341  -0.00000   0.21735   0.00000  Uiso   1.00
Zn670  Zn    0.70660  -0.00000   0.78265   0.00000  Uiso   1.00
Zn671  Zn    0.50000   0.29340   0.21735   0.00000  Uiso   1.00
Zn672  Zn    0.50000   0.20660   0.78265   0.00000  Uiso   1.00
Zn673  Zn    0.95660   0.25000   0.71735   0.00000  Uiso   1.00
Zn674  Zn    0.54341   0.25000   0.28265   0.00000  Uiso   1.00
Zn675  Zn    0.75000   0.45659   0.71735   0.00000  Uiso   1.00
Zn676  Zn    0.75000   0.04340   0.28265   0.00000  Uiso   1.00
Zn677  Zn    0.54341   0.25000   0.71735   0.00000  Uiso   1.00
Zn678  Zn    0.95660   0.25000   0.28265   0.00000  Uiso   1.00
Zn679  Zn    0.75000   0.04340   0.71735   0.00000  Uiso   1.00
Zn680  Zn    0.75000   0.45659   0.28265   0.00000  Uiso   1.00
C681   C     0.50600   0.14757   0.45866   0.00000  Uiso   1.00
C682   C     0.97841   0.13408   0.43417   0.00000  Uiso   1.00
C683   C     0.98271   0.10043   0.41557   0.00000  Uiso   1.00
C684   C     0.51397   0.07956   0.42222   0.00000  Uiso   1.00
C685   C     0.54124   0.09258   0.44704   0.00000  Uiso   1.00
C686   C     0.53746   0.12657   0.46493   0.00000  Uiso   1.00
H687   H     0.95374   0.14968   0.42945   0.00000  Uiso   1.00
H688   H     0.96163   0.09035   0.39629   0.00000  Uiso   1.00
H689   H     0.51700   0.05329   0.40823   0.00000  Uiso   1.00
H690   H     0.56531   0.07641   0.45257   0.00000  Uiso   1.00
H691   H     0.55884   0.13637   0.48404   0.00000  Uiso   1.00
C692   C     0.50589   0.35245   0.54134   0.00000  Uiso   1.00
C693   C     0.97829   0.36587   0.56587   0.00000  Uiso   1.00
C694   C     0.98255   0.39951   0.58451   0.00000  Uiso   1.00
C695   C     0.51377   0.42044   0.57785   0.00000  Uiso   1.00
C696   C     0.54106   0.40748   0.55299   0.00000  Uiso   1.00
C697   C     0.53732   0.37350   0.53508   0.00000  Uiso   1.00
H698   H     0.95365   0.35023   0.57060   0.00000  Uiso   1.00
H699   H     0.96146   0.40954   0.60382   0.00000  Uiso   1.00
H700   H     0.51678   0.44670   0.59186   0.00000  Uiso   1.00
H701   H     0.56510   0.42370   0.54745   0.00000  Uiso   1.00
H702   H     0.55871   0.36375   0.51594   0.00000  Uiso   1.00
C703   C     0.85244   0.00590   0.45865   0.00000  Uiso   1.00
C704   C     0.86588   0.47830   0.43413   0.00000  Uiso   1.00
C705   C     0.89951   0.48257   0.41549   0.00000  Uiso   1.00
C706   C     0.92042   0.01380   0.42214   0.00000  Uiso   1.00
C707   C     0.90746   0.04108   0.44699   0.00000  Uiso   1.00
C708   C     0.87349   0.03734   0.46491   0.00000  Uiso   1.00
H709   H     0.85024   0.45366   0.42941   0.00000  Uiso   1.00
H710   H     0.90954   0.46149   0.39618   0.00000  Uiso   1.00
H711   H     0.94668   0.01681   0.40812   0.00000  Uiso   1.00
H712   H     0.92367   0.06513   0.45252   0.00000  Uiso   1.00
H713   H     0.86373   0.05872   0.48404   0.00000  Uiso   1.00
C714   C     0.64757   0.00601   0.54134   0.00000  Uiso   1.00
C715   C     0.63408   0.47841   0.56583   0.00000  Uiso   1.00
C716   C     0.60043   0.48272   0.58444   0.00000  Uiso   1.00
C717   C     0.57957   0.01398   0.57779   0.00000  Uiso   1.00
C718   C     0.59260   0.04126   0.55298   0.00000  Uiso   1.00
C719   C     0.62658   0.03748   0.53509   0.00000  Uiso   1.00
H720   H     0.64967   0.45375   0.57054   0.00000  Uiso   1.00
H721   H     0.59034   0.46164   0.60370   0.00000  Uiso   1.00
H722   H     0.55330   0.01702   0.59178   0.00000  Uiso   1.00
H723   H     0.57643   0.06534   0.54745   0.00000  Uiso   1.00
H724   H     0.63639   0.05886   0.51598   0.00000  Uiso   1.00
C725   C     0.99399   0.35243   0.45866   0.00000  Uiso   1.00
C726   C     0.52159   0.36592   0.43417   0.00000  Uiso   1.00
C727   C     0.51728   0.39958   0.41556   0.00000  Uiso   1.00
C728   C     0.98602   0.42043   0.42221   0.00000  Uiso   1.00
C729   C     0.95874   0.40740   0.44702   0.00000  Uiso   1.00
C730   C     0.96252   0.37342   0.46491   0.00000  Uiso   1.00
H731   H     0.54625   0.35033   0.42946   0.00000  Uiso   1.00
H732   H     0.53836   0.40966   0.39629   0.00000  Uiso   1.00
H733   H     0.98298   0.44670   0.40822   0.00000  Uiso   1.00
H734   H     0.93466   0.42357   0.45254   0.00000  Uiso   1.00
H735   H     0.94114   0.36361   0.48402   0.00000  Uiso   1.00
C736   C     0.99410   0.14756   0.54135   0.00000  Uiso   1.00
C737   C     0.52170   0.13412   0.56587   0.00000  Uiso   1.00
C738   C     0.51743   0.10049   0.58451   0.00000  Uiso   1.00
C739   C     0.98620   0.07958   0.57786   0.00000  Uiso   1.00
C740   C     0.95892   0.09254   0.55301   0.00000  Uiso   1.00
C741   C     0.96266   0.12651   0.53509   0.00000  Uiso   1.00
H742   H     0.54634   0.14976   0.57059   0.00000  Uiso   1.00
H743   H     0.53851   0.09046   0.60382   0.00000  Uiso   1.00
H744   H     0.98319   0.05332   0.59188   0.00000  Uiso   1.00
H745   H     0.93487   0.07633   0.54748   0.00000  Uiso   1.00
H746   H     0.94128   0.13627   0.51596   0.00000  Uiso   1.00
C747   C     0.64755   0.49411   0.45866   0.00000  Uiso   1.00
C748   C     0.63413   0.02171   0.43413   0.00000  Uiso   1.00
C749   C     0.60049   0.01745   0.41549   0.00000  Uiso   1.00
C750   C     0.57956   0.48623   0.42215   0.00000  Uiso   1.00
C751   C     0.59252   0.45894   0.44701   0.00000  Uiso   1.00
C752   C     0.62650   0.46268   0.46492   0.00000  Uiso   1.00
H753   H     0.64977   0.04635   0.42940   0.00000  Uiso   1.00
H754   H     0.59046   0.03854   0.39618   0.00000  Uiso   1.00
H755   H     0.55330   0.48322   0.40814   0.00000  Uiso   1.00
H756   H     0.57630   0.43490   0.45254   0.00000  Uiso   1.00
H757   H     0.63625   0.44129   0.48406   0.00000  Uiso   1.00
C758   C     0.85243   0.49400   0.54133   0.00000  Uiso   1.00
C759   C     0.86592   0.02159   0.56583   0.00000  Uiso   1.00
C760   C     0.89957   0.01729   0.58443   0.00000  Uiso   1.00
C761   C     0.92044   0.48603   0.57778   0.00000  Uiso   1.00
C762   C     0.90742   0.45876   0.55296   0.00000  Uiso   1.00
C763   C     0.87343   0.46254   0.53507   0.00000  Uiso   1.00
H764   H     0.85032   0.04626   0.57055   0.00000  Uiso   1.00
H765   H     0.90965   0.03837   0.60371   0.00000  Uiso   1.00
H766   H     0.94671   0.48300   0.59177   0.00000  Uiso   1.00
H767   H     0.92359   0.43469   0.54742   0.00000  Uiso   1.00
H768   H     0.86363   0.44116   0.51596   0.00000  Uiso   1.00
C769   C     0.75600   0.39757   0.95866   0.00000  Uiso   1.00
C770   C     0.72841   0.38408   0.93417   0.00000  Uiso   1.00
C771   C     0.73271   0.35043   0.91557   0.00000  Uiso   1.00
C772   C     0.76397   0.32956   0.92222   0.00000  Uiso   1.00
C773   C     0.79124   0.34258   0.94704   0.00000  Uiso   1.00
C774   C     0.78746   0.37657   0.96493   0.00000  Uiso   1.00
H775   H     0.70374   0.39968   0.92945   0.00000  Uiso   1.00
H776   H     0.71163   0.34035   0.89629   0.00000  Uiso   1.00
H777   H     0.76700   0.30329   0.90823   0.00000  Uiso   1.00
H778   H     0.81531   0.32641   0.95257   0.00000  Uiso   1.00
H779   H     0.80884   0.38637   0.98404   0.00000  Uiso   1.00
C780   C     0.75589   0.10245   0.04134   0.00000  Uiso   1.00
C781   C     0.72829   0.11587   0.06587   0.00000  Uiso   1.00
C782   C     0.73255   0.14951   0.08451   0.00000  Uiso   1.00
C783   C     0.76377   0.17044   0.07785   0.00000  Uiso   1.00
C784   C     0.79106   0.15748   0.05299   0.00000  Uiso   1.00
C785   C     0.78732   0.12350   0.03508   0.00000  Uiso   1.00
H786   H     0.70365   0.10023   0.07060   0.00000  Uiso   1.00
H787   H     0.71146   0.15954   0.10382   0.00000  Uiso   1.00
H788   H     0.76678   0.19670   0.09186   0.00000  Uiso   1.00
H789   H     0.81510   0.17370   0.04745   0.00000  Uiso   1.00
H790   H     0.80871   0.11375   0.01594   0.00000  Uiso   1.00
C791   C     0.60244   0.25590   0.95865   0.00000  Uiso   1.00
C792   C     0.61588   0.22830   0.93413   0.00000  Uiso   1.00
C793   C     0.64951   0.23257   0.91549   0.00000  Uiso   1.00
C794   C     0.67042   0.26380   0.92214   0.00000  Uiso   1.00
C795   C     0.65746   0.29108   0.94699   0.00000  Uiso   1.00
C796   C     0.62349   0.28734   0.96491   0.00000  Uiso   1.00
H797   H     0.60024   0.20366   0.92941   0.00000  Uiso   1.00
H798   H     0.65954   0.21149   0.89618   0.00000  Uiso   1.00
H799   H     0.69668   0.26681   0.90812   0.00000  Uiso   1.00
H800   H     0.67367   0.31513   0.95252   0.00000  Uiso   1.00
H801   H     0.61373   0.30872   0.98404   0.00000  Uiso   1.00
C802   C     0.89757   0.25601   0.04134   0.00000  Uiso   1.00
C803   C     0.88408   0.22841   0.06583   0.00000  Uiso   1.00
C804   C     0.85043   0.23272   0.08444   0.00000  Uiso   1.00
C805   C     0.82957   0.26398   0.07779   0.00000  Uiso   1.00
C806   C     0.84260   0.29126   0.05298   0.00000  Uiso   1.00
C807   C     0.87658   0.28748   0.03509   0.00000  Uiso   1.00
H808   H     0.89967   0.20375   0.07054   0.00000  Uiso   1.00
H809   H     0.84034   0.21164   0.10370   0.00000  Uiso   1.00
H810   H     0.80330   0.26702   0.09178   0.00000  Uiso   1.00
H811   H     0.82643   0.31534   0.04745   0.00000  Uiso   1.00
H812   H     0.88639   0.30886   0.01598   0.00000  Uiso   1.00
C813   C     0.74399   0.10243   0.95866   0.00000  Uiso   1.00
C814   C     0.77159   0.11592   0.93417   0.00000  Uiso   1.00
C815   C     0.76728   0.14957   0.91556   0.00000  Uiso   1.00
C816   C     0.73602   0.17043   0.92221   0.00000  Uiso   1.00
C817   C     0.70874   0.15740   0.94702   0.00000  Uiso   1.00
C818   C     0.71252   0.12342   0.96491   0.00000  Uiso   1.00
H819   H     0.79625   0.10033   0.92946   0.00000  Uiso   1.00
H820   H     0.78836   0.15966   0.89629   0.00000  Uiso   1.00
H821   H     0.73298   0.19670   0.90822   0.00000  Uiso   1.00
H822   H     0.68466   0.17357   0.95254   0.00000  Uiso   1.00
H823   H     0.69114   0.11361   0.98402   0.00000  Uiso   1.00
C824   C     0.74410   0.39756   0.04135   0.00000  Uiso   1.00
C825   C     0.77170   0.38412   0.06587   0.00000  Uiso   1.00
C826   C     0.76743   0.35049   0.08451   0.00000  Uiso   1.00
C827   C     0.73620   0.32958   0.07786   0.00000  Uiso   1.00
C828   C     0.70892   0.34254   0.05301   0.00000  Uiso   1.00
C829   C     0.71266   0.37651   0.03509   0.00000  Uiso   1.00
H830   H     0.79634   0.39976   0.07059   0.00000  Uiso   1.00
H831   H     0.78851   0.34046   0.10382   0.00000  Uiso   1.00
H832   H     0.73319   0.30332   0.09188   0.00000  Uiso   1.00
H833   H     0.68487   0.32633   0.04748   0.00000  Uiso   1.00
H834   H     0.69128   0.38627   0.01596   0.00000  Uiso   1.00
C835   C     0.89755   0.24411   0.95866   0.00000  Uiso   1.00
C836   C     0.88413   0.27171   0.93413   0.00000  Uiso   1.00
C837   C     0.85049   0.26745   0.91549   0.00000  Uiso   1.00
C838   C     0.82956   0.23623   0.92215   0.00000  Uiso   1.00
C839   C     0.84252   0.20894   0.94701   0.00000  Uiso   1.00
C840   C     0.87650   0.21268   0.96492   0.00000  Uiso   1.00
H841   H     0.89977   0.29635   0.92940   0.00000  Uiso   1.00
H842   H     0.84046   0.28854   0.89618   0.00000  Uiso   1.00
H843   H     0.80330   0.23322   0.90814   0.00000  Uiso   1.00
H844   H     0.82630   0.18490   0.95254   0.00000  Uiso   1.00
H845   H     0.88625   0.19129   0.98406   0.00000  Uiso   1.00
C846   C     0.60243   0.24400   0.04133   0.00000  Uiso   1.00
C847   C     0.61592   0.27159   0.06583   0.00000  Uiso   1.00
C848   C     0.64957   0.26729   0.08443   0.00000  Uiso   1.00
C849   C     0.67044   0.23603   0.07778   0.00000  Uiso   1.00
C850   C     0.65742   0.20876   0.05296   0.00000  Uiso   1.00
C851   C     0.62343   0.21254   0.03507   0.00000  Uiso   1.00
H852   H     0.60032   0.29626   0.07055   0.00000  Uiso   1.00
H853   H     0.65965   0.28837   0.10371   0.00000  Uiso   1.00
H854   H     0.69671   0.23300   0.09177   0.00000  Uiso   1.00
H855   H     0.67359   0.18469   0.04742   0.00000  Uiso   1.00
H856   H     0.61363   0.19116   0.01596   0.00000  Uiso   1.00
C857   C     0.49698   0.78277   0.41795   0.00000  Uiso   1.00
C858   C     0.49702   0.71723   0.58205   0.00000  Uiso   1.00
C859   C     0.21723   0.99702   0.41795   0.00000  Uiso   1.00
C860   C     0.28277   0.99698   0.58205   0.00000  Uiso   1.00
C861   C     0.00302   0.71723   0.41795   0.00000  Uiso   1.00
C862   C     0.00298   0.78277   0.58205   0.00000  Uiso   1.00
C863   C     0.28277   0.50298   0.41795   0.00000  Uiso   1.00
C864   C     0.21723   0.50302   0.58205   0.00000  Uiso   1.00
C865   C     0.24698   0.53277   0.91795   0.00000  Uiso   1.00
C866   C     0.24702   0.96723   0.08205   0.00000  Uiso   1.00
C867   C     0.46723   0.74702   0.91795   0.00000  Uiso   1.00
C868   C     0.03277   0.74698   0.08205   0.00000  Uiso   1.00
C869   C     0.25302   0.96723   0.91795   0.00000  Uiso   1.00
C870   C     0.25298   0.53277   0.08205   0.00000  Uiso   1.00
C871   C     0.03277   0.75298   0.91795   0.00000  Uiso   1.00
C872   C     0.46723   0.75302   0.08205   0.00000  Uiso   1.00
C873   C    -0.00000   0.75000   0.39799   0.00000  Uiso   1.00
C874   C     0.00000   0.75000   0.60201   0.00000  Uiso   1.00
C875   C     0.25000   0.50000   0.39799   0.00000  Uiso   1.00
C876   C     0.25000   0.50000   0.60201   0.00000  Uiso   1.00
C877   C     0.25000   0.50000   0.89799   0.00000  Uiso   1.00
C878   C     0.25000   0.50000   0.10201   0.00000  Uiso   1.00
C879   C    -0.00000   0.75000   0.89799   0.00000  Uiso   1.00
C880   C     0.00000   0.75000   0.10201   0.00000  Uiso   1.00
C881   C     0.00156   0.68294   0.47945   0.00000  Uiso   1.00
C882   C     0.00149   0.81706   0.52055   0.00000  Uiso   1.00
C883   C     0.31706   0.50150   0.47944   0.00000  Uiso   1.00
C884   C     0.18294   0.50156   0.52055   0.00000  Uiso   1.00
C885   C     0.49844   0.81706   0.47945   0.00000  Uiso   1.00
C886   C     0.49850   0.68294   0.52056   0.00000  Uiso   1.00
C887   C     0.18294   0.99851   0.47945   0.00000  Uiso   1.00
C888   C     0.31706   0.99844   0.52055   0.00000  Uiso   1.00
C889   C     0.25156   0.93294   0.97945   0.00000  Uiso   1.00
C890   C     0.25149   0.56706   0.02055   0.00000  Uiso   1.00
C891   C     0.06706   0.75150   0.97944   0.00000  Uiso   1.00
C892   C     0.43294   0.75156   0.02055   0.00000  Uiso   1.00
C893   C     0.24844   0.56706   0.97945   0.00000  Uiso   1.00
C894   C     0.24850   0.93294   0.02056   0.00000  Uiso   1.00
C895   C     0.43294   0.74851   0.97945   0.00000  Uiso   1.00
C896   C     0.06706   0.74844   0.02055   0.00000  Uiso   1.00
C897   C     0.25000   0.50000   0.35578   0.00000  Uiso   1.00
C898   C     0.25000   0.50000   0.64422   0.00000  Uiso   1.00
C899   C     0.00000   0.75000   0.35578   0.00000  Uiso   1.00
C900   C     0.00000   0.75000   0.64422   0.00000  Uiso   1.00
C901   C    -0.00000   0.75000   0.85578   0.00000  Uiso   1.00
C902   C     0.00000   0.75000   0.14422   0.00000  Uiso   1.00
C903   C     0.25000   0.50000   0.85578   0.00000  Uiso   1.00
C904   C     0.25000   0.50000   0.14422   0.00000  Uiso   1.00
C905   C     0.17992   0.57008   0.25000   0.00000  Uiso   1.00
C906   C     0.32008   0.92992   0.75000   0.00000  Uiso   1.00
C907   C     0.42992   0.67992   0.25000   0.00000  Uiso   1.00
C908   C     0.07008   0.82008   0.75000   0.00000  Uiso   1.00
C909   C     0.32008   0.92992   0.25000   0.00000  Uiso   1.00
C910   C     0.17992   0.57008   0.75000   0.00000  Uiso   1.00
C911   C     0.07008   0.82008   0.25000   0.00000  Uiso   1.00
C912   C     0.42992   0.67992   0.75000   0.00000  Uiso   1.00
C913   C     0.17992   0.92992   0.75000   0.00000  Uiso   1.00
C914   C     0.32008   0.57008   0.25000   0.00000  Uiso   1.00
C915   C     0.42992   0.82008   0.75000   0.00000  Uiso   1.00
C916   C     0.07008   0.67992   0.25000   0.00000  Uiso   1.00
C917   C     0.32008   0.57008   0.75000   0.00000  Uiso   1.00
C918   C     0.17992   0.92992   0.25000   0.00000  Uiso   1.00
C919   C     0.07008   0.67992   0.75000   0.00000  Uiso   1.00
C920   C     0.42992   0.82008   0.25000   0.00000  Uiso   1.00
C921   C     0.12208   0.90463   0.22454   0.00000  Uiso   1.00
C922   C     0.37792   0.59536   0.77546   0.00000  Uiso   1.00
C923   C     0.09537   0.62208   0.22453   0.00000  Uiso   1.00
C924   C     0.40463   0.87792   0.77546   0.00000  Uiso   1.00
C925   C     0.37792   0.59537   0.22454   0.00000  Uiso   1.00
C926   C     0.12208   0.90463   0.77546   0.00000  Uiso   1.00
C927   C     0.40463   0.87792   0.22453   0.00000  Uiso   1.00
C928   C     0.09537   0.62208   0.77547   0.00000  Uiso   1.00
C929   C     0.12208   0.59537   0.77547   0.00000  Uiso   1.00
C930   C     0.37792   0.90463   0.22453   0.00000  Uiso   1.00
C931   C     0.09537   0.87792   0.77546   0.00000  Uiso   1.00
C932   C     0.40463   0.62208   0.22454   0.00000  Uiso   1.00
C933   C     0.37792   0.90463   0.77546   0.00000  Uiso   1.00
C934   C     0.12208   0.59537   0.22453   0.00000  Uiso   1.00
C935   C     0.40463   0.62208   0.77546   0.00000  Uiso   1.00
C936   C     0.09537   0.87792   0.22454   0.00000  Uiso   1.00
C937   C     0.37208   0.65463   0.72454   0.00000  Uiso   1.00
C938   C     0.12792   0.84537   0.27546   0.00000  Uiso   1.00
C939   C     0.34537   0.87208   0.72453   0.00000  Uiso   1.00
C940   C     0.15463   0.62792   0.27546   0.00000  Uiso   1.00
C941   C     0.12792   0.84537   0.72454   0.00000  Uiso   1.00
C942   C     0.37208   0.65463   0.27546   0.00000  Uiso   1.00
C943   C     0.15463   0.62792   0.72453   0.00000  Uiso   1.00
C944   C     0.34537   0.87208   0.27547   0.00000  Uiso   1.00
C945   C     0.37208   0.84537   0.27547   0.00000  Uiso   1.00
C946   C     0.12792   0.65463   0.72453   0.00000  Uiso   1.00
C947   C     0.34537   0.62792   0.27546   0.00000  Uiso   1.00
C948   C     0.15463   0.87208   0.72454   0.00000  Uiso   1.00
C949   C     0.12792   0.65463   0.27546   0.00000  Uiso   1.00
C950   C     0.37208   0.84537   0.72453   0.00000  Uiso   1.00
C951   C     0.15463   0.87208   0.27546   0.00000  Uiso   1.00
C952   C     0.34537   0.62792   0.72454   0.00000  Uiso   1.00
C953   C     0.00146   0.71642   0.45887   0.00000  Uiso   1.00
C954   C     0.00143   0.78358   0.54113   0.00000  Uiso   1.00
C955   C     0.28358   0.50143   0.45887   0.00000  Uiso   1.00
C956   C     0.21642   0.50147   0.54113   0.00000  Uiso   1.00
C957   C     0.49853   0.78358   0.45887   0.00000  Uiso   1.00
C958   C     0.49857   0.71642   0.54113   0.00000  Uiso   1.00
C959   C     0.21642   0.99857   0.45887   0.00000  Uiso   1.00
C960   C     0.28358   0.99854   0.54112   0.00000  Uiso   1.00
C961   C     0.25146   0.96642   0.95887   0.00000  Uiso   1.00
C962   C     0.25143   0.53358   0.04113   0.00000  Uiso   1.00
C963   C     0.03358   0.75143   0.95887   0.00000  Uiso   1.00
C964   C     0.46642   0.75147   0.04113   0.00000  Uiso   1.00
C965   C     0.24853   0.53358   0.95887   0.00000  Uiso   1.00
C966   C     0.24857   0.96642   0.04113   0.00000  Uiso   1.00
C967   C     0.46642   0.74857   0.95887   0.00000  Uiso   1.00
C968   C     0.03358   0.74854   0.04112   0.00000  Uiso   1.00
C969   C     0.09814   0.84814   0.25000   0.00000  Uiso   1.00
C970   C     0.40186   0.65186   0.75000   0.00000  Uiso   1.00
C971   C     0.15186   0.59814   0.25000   0.00000  Uiso   1.00
C972   C     0.34814   0.90186   0.75000   0.00000  Uiso   1.00
C973   C     0.40186   0.65186   0.25000   0.00000  Uiso   1.00
C974   C     0.09814   0.84814   0.75000   0.00000  Uiso   1.00
C975   C     0.34814   0.90186   0.25000   0.00000  Uiso   1.00
C976   C     0.15186   0.59814   0.75000   0.00000  Uiso   1.00
C977   C     0.09814   0.65186   0.75000   0.00000  Uiso   1.00
C978   C     0.40186   0.84814   0.25000   0.00000  Uiso   1.00
C979   C     0.15186   0.90186   0.75000   0.00000  Uiso   1.00
C980   C     0.34814   0.59814   0.25000   0.00000  Uiso   1.00
C981   C     0.40186   0.84814   0.75000   0.00000  Uiso   1.00
C982   C     0.09814   0.65186   0.25000   0.00000  Uiso   1.00
C983   C     0.34814   0.59814   0.75000   0.00000  Uiso   1.00
C984   C     0.15186   0.90186   0.25000   0.00000  Uiso   1.00
C985   C    -0.00000   0.75000   0.47949   0.00000  Uiso   1.00
C986   C    -0.00000   0.75000   0.52052   0.00000  Uiso   1.00
C987   C     0.25000   0.50000   0.47948   0.00000  Uiso   1.00
C988   C     0.25000   0.50000   0.52051   0.00000  Uiso   1.00
C989   C     0.25000   0.50000   0.97949   0.00000  Uiso   1.00
C990   C     0.25000   0.50000   0.02052   0.00000  Uiso   1.00
C991   C     0.00000   0.75000   0.97948   0.00000  Uiso   1.00
C992   C     0.00000   0.75000   0.02051   0.00000  Uiso   1.00
H993   H     0.11940   0.92739   0.20461   0.00000  Uiso   1.00
H994   H     0.38060   0.57261   0.79539   0.00000  Uiso   1.00
H995   H     0.07261   0.61940   0.20461   0.00000  Uiso   1.00
H996   H     0.42739   0.88060   0.79539   0.00000  Uiso   1.00
H997   H     0.38060   0.57261   0.20461   0.00000  Uiso   1.00
H998   H     0.11940   0.92739   0.79539   0.00000  Uiso   1.00
H999   H     0.42739   0.88060   0.20460   0.00000  Uiso   1.00
H1000  H     0.07261   0.61940   0.79540   0.00000  Uiso   1.00
H1001  H     0.11940   0.57261   0.79539   0.00000  Uiso   1.00
H1002  H     0.38060   0.92739   0.20460   0.00000  Uiso   1.00
H1003  H     0.07261   0.88060   0.79539   0.00000  Uiso   1.00
H1004  H     0.42739   0.61940   0.20461   0.00000  Uiso   1.00
H1005  H     0.38060   0.92739   0.79539   0.00000  Uiso   1.00
H1006  H     0.11940   0.57261   0.20460   0.00000  Uiso   1.00
H1007  H     0.42739   0.61940   0.79539   0.00000  Uiso   1.00
H1008  H     0.07261   0.88060   0.20461   0.00000  Uiso   1.00
H1009  H     0.36940   0.67739   0.70461   0.00000  Uiso   1.00
H1010  H     0.13060   0.82261   0.29539   0.00000  Uiso   1.00
H1011  H     0.32261   0.86940   0.70461   0.00000  Uiso   1.00
H1012  H     0.17739   0.63060   0.29539   0.00000  Uiso   1.00
H1013  H     0.13060   0.82261   0.70461   0.00000  Uiso   1.00
H1014  H     0.36940   0.67739   0.29539   0.00000  Uiso   1.00
H1015  H     0.17739   0.63060   0.70460   0.00000  Uiso   1.00
H1016  H     0.32261   0.86940   0.29540   0.00000  Uiso   1.00
H1017  H     0.36940   0.82261   0.29539   0.00000  Uiso   1.00
H1018  H     0.13060   0.67739   0.70460   0.00000  Uiso   1.00
H1019  H     0.32261   0.63060   0.29539   0.00000  Uiso   1.00
H1020  H     0.17739   0.86940   0.70461   0.00000  Uiso   1.00
H1021  H     0.13060   0.67739   0.29539   0.00000  Uiso   1.00
H1022  H     0.36940   0.82261   0.70460   0.00000  Uiso   1.00
H1023  H     0.17739   0.86940   0.29539   0.00000  Uiso   1.00
H1024  H     0.32261   0.63060   0.70461   0.00000  Uiso   1.00
H1025  H     0.49415   0.80743   0.40093   0.00000  Uiso   1.00
H1026  H     0.49421   0.69257   0.59907   0.00000  Uiso   1.00
H1027  H     0.19257   0.99421   0.40093   0.00000  Uiso   1.00
H1028  H     0.30743   0.99415   0.59906   0.00000  Uiso   1.00
H1029  H     0.00585   0.69257   0.40094   0.00000  Uiso   1.00
H1030  H     0.00579   0.80743   0.59907   0.00000  Uiso   1.00
H1031  H     0.30743   0.50579   0.40093   0.00000  Uiso   1.00
H1032  H     0.19257   0.50585   0.59907   0.00000  Uiso   1.00
H1033  H     0.24415   0.55743   0.90093   0.00000  Uiso   1.00
H1034  H     0.24421   0.94257   0.09907   0.00000  Uiso   1.00
H1035  H     0.44257   0.74421   0.90093   0.00000  Uiso   1.00
H1036  H     0.05743   0.74415   0.09906   0.00000  Uiso   1.00
H1037  H     0.25585   0.94257   0.90094   0.00000  Uiso   1.00
H1038  H     0.25579   0.55743   0.09907   0.00000  Uiso   1.00
H1039  H     0.05743   0.75579   0.90093   0.00000  Uiso   1.00
H1040  H     0.44257   0.75585   0.09907   0.00000  Uiso   1.00
O1041  O     0.25000   0.50000   0.25000   0.00000  Uiso   1.00
O1042  O     0.25000   0.50000   0.75000   0.00000  Uiso   1.00
O1043  O     0.00000   0.75000   0.25000   0.00000  Uiso   1.00
O1044  O     0.00000   0.75000   0.75000   0.00000  Uiso   1.00
O1045  O     0.25000   0.96963   0.33755   0.00000  Uiso   1.00
O1046  O     0.25000   0.53036   0.66245   0.00000  Uiso   1.00
O1047  O     0.03037   0.75000   0.33755   0.00000  Uiso   1.00
O1048  O     0.46964   0.75000   0.66245   0.00000  Uiso   1.00
O1049  O     0.25000   0.53036   0.33755   0.00000  Uiso   1.00
O1050  O     0.25000   0.96963   0.66245   0.00000  Uiso   1.00
O1051  O     0.46964   0.75000   0.33755   0.00000  Uiso   1.00
O1052  O     0.03037   0.75000   0.66245   0.00000  Uiso   1.00
O1053  O     0.00000   0.71963   0.83755   0.00000  Uiso   1.00
O1054  O     0.00000   0.78036   0.16245   0.00000  Uiso   1.00
O1055  O     0.28037   0.50000   0.83755   0.00000  Uiso   1.00
O1056  O     0.21964   0.50000   0.16245   0.00000  Uiso   1.00
O1057  O     0.00000   0.78036   0.83755   0.00000  Uiso   1.00
O1058  O     0.00000   0.71963   0.16245   0.00000  Uiso   1.00
O1059  O     0.21964   0.50000   0.83755   0.00000  Uiso   1.00
O1060  O     0.28037   0.50000   0.16245   0.00000  Uiso   1.00
O1061  O     0.20725   0.57307   0.27302   0.00000  Uiso   1.00
O1062  O     0.29276   0.92692   0.72698   0.00000  Uiso   1.00
O1063  O     0.42693   0.70724   0.27302   0.00000  Uiso   1.00
O1064  O     0.07308   0.79275   0.72698   0.00000  Uiso   1.00
O1065  O     0.29276   0.92692   0.27302   0.00000  Uiso   1.00
O1066  O     0.20725   0.57307   0.72698   0.00000  Uiso   1.00
O1067  O     0.07308   0.79275   0.27302   0.00000  Uiso   1.00
O1068  O     0.42693   0.70724   0.72698   0.00000  Uiso   1.00
O1069  O     0.20725   0.92692   0.72698   0.00000  Uiso   1.00
O1070  O     0.29276   0.57307   0.27302   0.00000  Uiso   1.00
O1071  O     0.42693   0.79275   0.72698   0.00000  Uiso   1.00
O1072  O     0.07308   0.70724   0.27302   0.00000  Uiso   1.00
O1073  O     0.29276   0.57307   0.72698   0.00000  Uiso   1.00
O1074  O     0.20725   0.92692   0.27302   0.00000  Uiso   1.00
O1075  O     0.07308   0.70724   0.72698   0.00000  Uiso   1.00
O1076  O     0.42693   0.79275   0.27302   0.00000  Uiso   1.00
O1077  O     0.45725   0.82307   0.77302   0.00000  Uiso   1.00
O1078  O     0.04276   0.67692   0.22698   0.00000  Uiso   1.00
O1079  O     0.17693   0.95724   0.77302   0.00000  Uiso   1.00
O1080  O     0.32308   0.54275   0.22698   0.00000  Uiso   1.00
O1081  O     0.04276   0.67692   0.77302   0.00000  Uiso   1.00
O1082  O     0.45725   0.82307   0.22698   0.00000  Uiso   1.00
O1083  O     0.32308   0.54275   0.77302   0.00000  Uiso   1.00
O1084  O     0.17693   0.95724   0.22698   0.00000  Uiso   1.00
O1085  O     0.45725   0.67692   0.22698   0.00000  Uiso   1.00
O1086  O     0.04276   0.82308   0.77302   0.00000  Uiso   1.00
O1087  O     0.17693   0.54275   0.22698   0.00000  Uiso   1.00
O1088  O     0.32308   0.95724   0.77302   0.00000  Uiso   1.00
O1089  O     0.04276   0.82308   0.22698   0.00000  Uiso   1.00
O1090  O     0.45725   0.67692   0.77302   0.00000  Uiso   1.00
O1091  O     0.32308   0.95724   0.22698   0.00000  Uiso   1.00
O1092  O     0.17693   0.54275   0.77302   0.00000  Uiso   1.00
Zn1093 Zn    0.20660   0.50000   0.21735   0.00000  Uiso   1.00
Zn1094 Zn    0.29341   0.50000   0.78265   0.00000  Uiso   1.00
Zn1095 Zn    0.00000   0.70660   0.21735   0.00000  Uiso   1.00
Zn1096 Zn    0.00000   0.79340   0.78265   0.00000  Uiso   1.00
Zn1097 Zn    0.29341   0.50000   0.21735   0.00000  Uiso   1.00
Zn1098 Zn    0.20660   0.50000   0.78265   0.00000  Uiso   1.00
Zn1099 Zn    0.00000   0.79340   0.21735   0.00000  Uiso   1.00
Zn1100 Zn    0.00000   0.70660   0.78265   0.00000  Uiso   1.00
Zn1101 Zn    0.45660   0.75000   0.71735   0.00000  Uiso   1.00
Zn1102 Zn    0.04341   0.75000   0.28265   0.00000  Uiso   1.00
Zn1103 Zn    0.25000   0.95659   0.71735   0.00000  Uiso   1.00
Zn1104 Zn    0.25000   0.54340   0.28265   0.00000  Uiso   1.00
Zn1105 Zn    0.04341   0.75000   0.71735   0.00000  Uiso   1.00
Zn1106 Zn    0.45660   0.75000   0.28265   0.00000  Uiso   1.00
Zn1107 Zn    0.25000   0.54340   0.71735   0.00000  Uiso   1.00
Zn1108 Zn    0.25000   0.95659   0.28265   0.00000  Uiso   1.00
C1109  C     0.00600   0.64757   0.45866   0.00000  Uiso   1.00
C1110  C     0.47841   0.63408   0.43417   0.00000  Uiso   1.00
C1111  C     0.48271   0.60043   0.41557   0.00000  Uiso   1.00
C1112  C     0.01397   0.57956   0.42222   0.00000  Uiso   1.00
C1113  C     0.04124   0.59258   0.44704   0.00000  Uiso   1.00
C1114  C     0.03746   0.62657   0.46493   0.00000  Uiso   1.00
H1115  H     0.45374   0.64968   0.42945   0.00000  Uiso   1.00
H1116  H     0.46163   0.59035   0.39629   0.00000  Uiso   1.00
H1117  H     0.01700   0.55329   0.40823   0.00000  Uiso   1.00
H1118  H     0.06531   0.57641   0.45257   0.00000  Uiso   1.00
H1119  H     0.05884   0.63637   0.48404   0.00000  Uiso   1.00
C1120  C     0.00589   0.85245   0.54134   0.00000  Uiso   1.00
C1121  C     0.47829   0.86587   0.56587   0.00000  Uiso   1.00
C1122  C     0.48255   0.89951   0.58451   0.00000  Uiso   1.00
C1123  C     0.01377   0.92044   0.57785   0.00000  Uiso   1.00
C1124  C     0.04106   0.90748   0.55299   0.00000  Uiso   1.00
C1125  C     0.03732   0.87350   0.53508   0.00000  Uiso   1.00
H1126  H     0.45365   0.85023   0.57060   0.00000  Uiso   1.00
H1127  H     0.46146   0.90954   0.60382   0.00000  Uiso   1.00
H1128  H     0.01678   0.94670   0.59186   0.00000  Uiso   1.00
H1129  H     0.06510   0.92370   0.54745   0.00000  Uiso   1.00
H1130  H     0.05871   0.86375   0.51594   0.00000  Uiso   1.00
C1131  C     0.35244   0.50590   0.45865   0.00000  Uiso   1.00
C1132  C     0.36588   0.97830   0.43413   0.00000  Uiso   1.00
C1133  C     0.39951   0.98257   0.41549   0.00000  Uiso   1.00
C1134  C     0.42042   0.51380   0.42214   0.00000  Uiso   1.00
C1135  C     0.40746   0.54108   0.44699   0.00000  Uiso   1.00
C1136  C     0.37349   0.53734   0.46491   0.00000  Uiso   1.00
H1137  H     0.35024   0.95366   0.42941   0.00000  Uiso   1.00
H1138  H     0.40954   0.96149   0.39618   0.00000  Uiso   1.00
H1139  H     0.44668   0.51681   0.40812   0.00000  Uiso   1.00
H1140  H     0.42367   0.56513   0.45252   0.00000  Uiso   1.00
H1141  H     0.36373   0.55872   0.48404   0.00000  Uiso   1.00
C1142  C     0.14757   0.50601   0.54134   0.00000  Uiso   1.00
C1143  C     0.13408   0.97841   0.56583   0.00000  Uiso   1.00
C1144  C     0.10043   0.98272   0.58444   0.00000  Uiso   1.00
C1145  C     0.07957   0.51398   0.57779   0.00000  Uiso   1.00
C1146  C     0.09260   0.54126   0.55298   0.00000  Uiso   1.00
C1147  C     0.12658   0.53748   0.53509   0.00000  Uiso   1.00
H1148  H     0.14967   0.95375   0.57054   0.00000  Uiso   1.00
H1149  H     0.09034   0.96164   0.60370   0.00000  Uiso   1.00
H1150  H     0.05330   0.51702   0.59178   0.00000  Uiso   1.00
H1151  H     0.07643   0.56534   0.54745   0.00000  Uiso   1.00
H1152  H     0.13639   0.55886   0.51598   0.00000  Uiso   1.00
C1153  C     0.49399   0.85243   0.45866   0.00000  Uiso   1.00
C1154  C     0.02159   0.86592   0.43417   0.00000  Uiso   1.00
C1155  C     0.01728   0.89958   0.41556   0.00000  Uiso   1.00
C1156  C     0.48602   0.92043   0.42221   0.00000  Uiso   1.00
C1157  C     0.45874   0.90740   0.44702   0.00000  Uiso   1.00
C1158  C     0.46252   0.87342   0.46491   0.00000  Uiso   1.00
H1159  H     0.04625   0.85033   0.42946   0.00000  Uiso   1.00
H1160  H     0.03836   0.90966   0.39629   0.00000  Uiso   1.00
H1161  H     0.48298   0.94670   0.40822   0.00000  Uiso   1.00
H1162  H     0.43466   0.92357   0.45254   0.00000  Uiso   1.00
H1163  H     0.44114   0.86361   0.48402   0.00000  Uiso   1.00
C1164  C     0.49410   0.64756   0.54135   0.00000  Uiso   1.00
C1165  C     0.02170   0.63412   0.56587   0.00000  Uiso   1.00
C1166  C     0.01743   0.60049   0.58451   0.00000  Uiso   1.00
C1167  C     0.48620   0.57958   0.57786   0.00000  Uiso   1.00
C1168  C     0.45892   0.59254   0.55301   0.00000  Uiso   1.00
C1169  C     0.46266   0.62651   0.53509   0.00000  Uiso   1.00
H1170  H     0.04634   0.64976   0.57059   0.00000  Uiso   1.00
H1171  H     0.03851   0.59046   0.60382   0.00000  Uiso   1.00
H1172  H     0.48319   0.55332   0.59188   0.00000  Uiso   1.00
H1173  H     0.43487   0.57633   0.54748   0.00000  Uiso   1.00
H1174  H     0.44128   0.63627   0.51596   0.00000  Uiso   1.00
C1175  C     0.14755   0.99411   0.45866   0.00000  Uiso   1.00
C1176  C     0.13413   0.52171   0.43413   0.00000  Uiso   1.00
C1177  C     0.10049   0.51745   0.41549   0.00000  Uiso   1.00
C1178  C     0.07956   0.98623   0.42215   0.00000  Uiso   1.00
C1179  C     0.09252   0.95894   0.44701   0.00000  Uiso   1.00
C1180  C     0.12650   0.96268   0.46492   0.00000  Uiso   1.00
H1181  H     0.14977   0.54635   0.42940   0.00000  Uiso   1.00
H1182  H     0.09046   0.53854   0.39618   0.00000  Uiso   1.00
H1183  H     0.05330   0.98322   0.40814   0.00000  Uiso   1.00
H1184  H     0.07630   0.93490   0.45254   0.00000  Uiso   1.00
H1185  H     0.13625   0.94129   0.48406   0.00000  Uiso   1.00
C1186  C     0.35243   0.99400   0.54133   0.00000  Uiso   1.00
C1187  C     0.36592   0.52159   0.56583   0.00000  Uiso   1.00
C1188  C     0.39957   0.51729   0.58443   0.00000  Uiso   1.00
C1189  C     0.42044   0.98603   0.57778   0.00000  Uiso   1.00
C1190  C     0.40742   0.95876   0.55296   0.00000  Uiso   1.00
C1191  C     0.37343   0.96254   0.53507   0.00000  Uiso   1.00
H1192  H     0.35032   0.54626   0.57055   0.00000  Uiso   1.00
H1193  H     0.40965   0.53837   0.60371   0.00000  Uiso   1.00
H1194  H     0.44671   0.98300   0.59177   0.00000  Uiso   1.00
H1195  H     0.42359   0.93469   0.54742   0.00000  Uiso   1.00
H1196  H     0.36363   0.94116   0.51596   0.00000  Uiso   1.00
C1197  C     0.25600   0.89757   0.95866   0.00000  Uiso   1.00
C1198  C     0.22841   0.88408   0.93417   0.00000  Uiso   1.00
C1199  C     0.23271   0.85043   0.91557   0.00000  Uiso   1.00
C1200  C     0.26397   0.82956   0.92222   0.00000  Uiso   1.00
C1201  C     0.29124   0.84258   0.94704   0.00000  Uiso   1.00
C1202  C     0.28746   0.87657   0.96493   0.00000  Uiso   1.00
H1203  H     0.20374   0.89968   0.92945   0.00000  Uiso   1.00
H1204  H     0.21163   0.84035   0.89629   0.00000  Uiso   1.00
H1205  H     0.26700   0.80329   0.90823   0.00000  Uiso   1.00
H1206  H     0.31531   0.82641   0.95257   0.00000  Uiso   1.00
H1207  H     0.30884   0.88637   0.98404   0.00000  Uiso   1.00
C1208  C     0.25589   0.60245   0.04134   0.00000  Uiso   1.00
C1209  C     0.22829   0.61587   0.06587   0.00000  Uiso   1.00
C1210  C     0.23255   0.64951   0.08451   0.00000  Uiso   1.00
C1211  C     0.26377   0.67044   0.07785   0.00000  Uiso   1.00
C1212  C     0.29106   0.65748   0.05299   0.00000  Uiso   1.00
C1213  C     0.28732   0.62350   0.03508   0.00000  Uiso   1.00
H1214  H     0.20365   0.60023   0.07060   0.00000  Uiso   1.00
H1215  H     0.21146   0.65954   0.10382   0.00000  Uiso   1.00
H1216  H     0.26678   0.69670   0.09186   0.00000  Uiso   1.00
H1217  H     0.31510   0.67370   0.04745   0.00000  Uiso   1.00
H1218  H     0.30871   0.61375   0.01594   0.00000  Uiso   1.00
C1219  C     0.10244   0.75590   0.95865   0.00000  Uiso   1.00
C1220  C     0.11588   0.72830   0.93413   0.00000  Uiso   1.00
C1221  C     0.14951   0.73257   0.91549   0.00000  Uiso   1.00
C1222  C     0.17042   0.76380   0.92214   0.00000  Uiso   1.00
C1223  C     0.15746   0.79108   0.94699   0.00000  Uiso   1.00
C1224  C     0.12349   0.78734   0.96491   0.00000  Uiso   1.00
H1225  H     0.10024   0.70366   0.92941   0.00000  Uiso   1.00
H1226  H     0.15954   0.71149   0.89618   0.00000  Uiso   1.00
H1227  H     0.19668   0.76681   0.90812   0.00000  Uiso   1.00
H1228  H     0.17367   0.81513   0.95252   0.00000  Uiso   1.00
H1229  H     0.11373   0.80872   0.98404   0.00000  Uiso   1.00
C1230  C     0.39757   0.75601   0.04134   0.00000  Uiso   1.00
C1231  C     0.38408   0.72841   0.06583   0.00000  Uiso   1.00
C1232  C     0.35043   0.73272   0.08444   0.00000  Uiso   1.00
C1233  C     0.32957   0.76398   0.07779   0.00000  Uiso   1.00
C1234  C     0.34260   0.79126   0.05298   0.00000  Uiso   1.00
C1235  C     0.37658   0.78748   0.03509   0.00000  Uiso   1.00
H1236  H     0.39967   0.70375   0.07054   0.00000  Uiso   1.00
H1237  H     0.34034   0.71164   0.10370   0.00000  Uiso   1.00
H1238  H     0.30330   0.76702   0.09178   0.00000  Uiso   1.00
H1239  H     0.32643   0.81534   0.04745   0.00000  Uiso   1.00
H1240  H     0.38639   0.80886   0.01598   0.00000  Uiso   1.00
C1241  C     0.24399   0.60243   0.95866   0.00000  Uiso   1.00
C1242  C     0.27159   0.61592   0.93417   0.00000  Uiso   1.00
C1243  C     0.26728   0.64957   0.91556   0.00000  Uiso   1.00
C1244  C     0.23602   0.67043   0.92221   0.00000  Uiso   1.00
C1245  C     0.20874   0.65740   0.94702   0.00000  Uiso   1.00
C1246  C     0.21252   0.62342   0.96491   0.00000  Uiso   1.00
H1247  H     0.29625   0.60033   0.92946   0.00000  Uiso   1.00
H1248  H     0.28836   0.65966   0.89629   0.00000  Uiso   1.00
H1249  H     0.23298   0.69670   0.90822   0.00000  Uiso   1.00
H1250  H     0.18466   0.67357   0.95254   0.00000  Uiso   1.00
H1251  H     0.19114   0.61361   0.98402   0.00000  Uiso   1.00
C1252  C     0.24410   0.89756   0.04135   0.00000  Uiso   1.00
C1253  C     0.27170   0.88412   0.06587   0.00000  Uiso   1.00
C1254  C     0.26743   0.85049   0.08451   0.00000  Uiso   1.00
C1255  C     0.23620   0.82958   0.07786   0.00000  Uiso   1.00
C1256  C     0.20892   0.84254   0.05301   0.00000  Uiso   1.00
C1257  C     0.21266   0.87651   0.03509   0.00000  Uiso   1.00
H1258  H     0.29634   0.89976   0.07059   0.00000  Uiso   1.00
H1259  H     0.28851   0.84046   0.10382   0.00000  Uiso   1.00
H1260  H     0.23319   0.80332   0.09188   0.00000  Uiso   1.00
H1261  H     0.18487   0.82633   0.04748   0.00000  Uiso   1.00
H1262  H     0.19128   0.88627   0.01596   0.00000  Uiso   1.00
C1263  C     0.39755   0.74411   0.95866   0.00000  Uiso   1.00
C1264  C     0.38413   0.77171   0.93413   0.00000  Uiso   1.00
C1265  C     0.35049   0.76745   0.91549   0.00000  Uiso   1.00
C1266  C     0.32956   0.73623   0.92215   0.00000  Uiso   1.00
C1267  C     0.34252   0.70894   0.94701   0.00000  Uiso   1.00
C1268  C     0.37650   0.71268   0.96492   0.00000  Uiso   1.00
H1269  H     0.39977   0.79635   0.92940   0.00000  Uiso   1.00
H1270  H     0.34046   0.78854   0.89618   0.00000  Uiso   1.00
H1271  H     0.30330   0.73322   0.90814   0.00000  Uiso   1.00
H1272  H     0.32630   0.68490   0.95254   0.00000  Uiso   1.00
H1273  H     0.38625   0.69129   0.98406   0.00000  Uiso   1.00
C1274  C     0.10243   0.74400   0.04133   0.00000  Uiso   1.00
C1275  C     0.11592   0.77159   0.06583   0.00000  Uiso   1.00
C1276  C     0.14957   0.76729   0.08443   0.00000  Uiso   1.00
C1277  C     0.17044   0.73603   0.07778   0.00000  Uiso   1.00
C1278  C     0.15742   0.70876   0.05296   0.00000  Uiso   1.00
C1279  C     0.12343   0.71254   0.03507   0.00000  Uiso   1.00
H1280  H     0.10032   0.79626   0.07055   0.00000  Uiso   1.00
H1281  H     0.15965   0.78837   0.10371   0.00000  Uiso   1.00
H1282  H     0.19671   0.73300   0.09177   0.00000  Uiso   1.00
H1283  H     0.17359   0.68469   0.04742   0.00000  Uiso   1.00
H1284  H     0.11363   0.69116   0.01596   0.00000  Uiso   1.00
C1285  C     0.99698   0.78277   0.41795   0.00000  Uiso   1.00
C1286  C     0.99702   0.71723   0.58205   0.00000  Uiso   1.00
C1287  C     0.71723   0.99702   0.41795   0.00000  Uiso   1.00
C1288  C     0.78277   0.99698   0.58205   0.00000  Uiso   1.00
C1289  C     0.50302   0.71723   0.41795   0.00000  Uiso   1.00
C1290  C     0.50298   0.78277   0.58205   0.00000  Uiso   1.00
C1291  C     0.78277   0.50298   0.41795   0.00000  Uiso   1.00
C1292  C     0.71723   0.50302   0.58205   0.00000  Uiso   1.00
C1293  C     0.74698   0.53277   0.91795   0.00000  Uiso   1.00
C1294  C     0.74702   0.96723   0.08205   0.00000  Uiso   1.00
C1295  C     0.96723   0.74702   0.91795   0.00000  Uiso   1.00
C1296  C     0.53277   0.74698   0.08205   0.00000  Uiso   1.00
C1297  C     0.75302   0.96723   0.91795   0.00000  Uiso   1.00
C1298  C     0.75298   0.53277   0.08205   0.00000  Uiso   1.00
C1299  C     0.53277   0.75298   0.91795   0.00000  Uiso   1.00
C1300  C     0.96723   0.75302   0.08205   0.00000  Uiso   1.00
C1301  C     0.50000   0.75000   0.39799   0.00000  Uiso   1.00
C1302  C     0.50000   0.75000   0.60201   0.00000  Uiso   1.00
C1303  C     0.75000   0.50000   0.39799   0.00000  Uiso   1.00
C1304  C     0.75000   0.50000   0.60201   0.00000  Uiso   1.00
C1305  C     0.75000   0.50000   0.89799   0.00000  Uiso   1.00
C1306  C     0.75000   0.50000   0.10201   0.00000  Uiso   1.00
C1307  C     0.50000   0.75000   0.89799   0.00000  Uiso   1.00
C1308  C     0.50000   0.75000   0.10201   0.00000  Uiso   1.00
C1309  C     0.50156   0.68294   0.47945   0.00000  Uiso   1.00
C1310  C     0.50149   0.81706   0.52055   0.00000  Uiso   1.00
C1311  C     0.81706   0.50150   0.47944   0.00000  Uiso   1.00
C1312  C     0.68294   0.50156   0.52055   0.00000  Uiso   1.00
C1313  C     0.99844   0.81706   0.47945   0.00000  Uiso   1.00
C1314  C     0.99850   0.68294   0.52056   0.00000  Uiso   1.00
C1315  C     0.68294   0.99851   0.47945   0.00000  Uiso   1.00
C1316  C     0.81706   0.99844   0.52055   0.00000  Uiso   1.00
C1317  C     0.75156   0.93294   0.97945   0.00000  Uiso   1.00
C1318  C     0.75149   0.56706   0.02055   0.00000  Uiso   1.00
C1319  C     0.56706   0.75150   0.97944   0.00000  Uiso   1.00
C1320  C     0.93294   0.75156   0.02055   0.00000  Uiso   1.00
C1321  C     0.74844   0.56706   0.97945   0.00000  Uiso   1.00
C1322  C     0.74850   0.93294   0.02056   0.00000  Uiso   1.00
C1323  C     0.93294   0.74851   0.97945   0.00000  Uiso   1.00
C1324  C     0.56706   0.74844   0.02055   0.00000  Uiso   1.00
C1325  C     0.75000   0.50000   0.35578   0.00000  Uiso   1.00
C1326  C     0.75000   0.50000   0.64422   0.00000  Uiso   1.00
C1327  C     0.50000   0.75000   0.35578   0.00000  Uiso   1.00
C1328  C     0.50000   0.75000   0.64422   0.00000  Uiso   1.00
C1329  C     0.50000   0.75000   0.85578   0.00000  Uiso   1.00
C1330  C     0.50000   0.75000   0.14422   0.00000  Uiso   1.00
C1331  C     0.75000   0.50000   0.85578   0.00000  Uiso   1.00
C1332  C     0.75000   0.50000   0.14422   0.00000  Uiso   1.00
C1333  C     0.67992   0.57008   0.25000   0.00000  Uiso   1.00
C1334  C     0.82008   0.92992   0.75000   0.00000  Uiso   1.00
C1335  C     0.92992   0.67992   0.25000   0.00000  Uiso   1.00
C1336  C     0.57008   0.82008   0.75000   0.00000  Uiso   1.00
C1337  C     0.82008   0.92992   0.25000   0.00000  Uiso   1.00
C1338  C     0.67992   0.57008   0.75000   0.00000  Uiso   1.00
C1339  C     0.57008   0.82008   0.25000   0.00000  Uiso   1.00
C1340  C     0.92992   0.67992   0.75000   0.00000  Uiso   1.00
C1341  C     0.67992   0.92992   0.75000   0.00000  Uiso   1.00
C1342  C     0.82008   0.57008   0.25000   0.00000  Uiso   1.00
C1343  C     0.92992   0.82008   0.75000   0.00000  Uiso   1.00
C1344  C     0.57008   0.67992   0.25000   0.00000  Uiso   1.00
C1345  C     0.82008   0.57008   0.75000   0.00000  Uiso   1.00
C1346  C     0.67992   0.92992   0.25000   0.00000  Uiso   1.00
C1347  C     0.57008   0.67992   0.75000   0.00000  Uiso   1.00
C1348  C     0.92992   0.82008   0.25000   0.00000  Uiso   1.00
C1349  C     0.62208   0.90463   0.22454   0.00000  Uiso   1.00
C1350  C     0.87792   0.59536   0.77546   0.00000  Uiso   1.00
C1351  C     0.59537   0.62208   0.22453   0.00000  Uiso   1.00
C1352  C     0.90463   0.87792   0.77546   0.00000  Uiso   1.00
C1353  C     0.87792   0.59537   0.22454   0.00000  Uiso   1.00
C1354  C     0.62208   0.90463   0.77546   0.00000  Uiso   1.00
C1355  C     0.90463   0.87792   0.22453   0.00000  Uiso   1.00
C1356  C     0.59537   0.62208   0.77547   0.00000  Uiso   1.00
C1357  C     0.62208   0.59537   0.77547   0.00000  Uiso   1.00
C1358  C     0.87792   0.90463   0.22453   0.00000  Uiso   1.00
C1359  C     0.59537   0.87792   0.77546   0.00000  Uiso   1.00
C1360  C     0.90463   0.62208   0.22454   0.00000  Uiso   1.00
C1361  C     0.87792   0.90463   0.77546   0.00000  Uiso   1.00
C1362  C     0.62208   0.59537   0.22453   0.00000  Uiso   1.00
C1363  C     0.90463   0.62208   0.77546   0.00000  Uiso   1.00
C1364  C     0.59537   0.87792   0.22454   0.00000  Uiso   1.00
C1365  C     0.87208   0.65463   0.72454   0.00000  Uiso   1.00
C1366  C     0.62792   0.84537   0.27546   0.00000  Uiso   1.00
C1367  C     0.84537   0.87208   0.72453   0.00000  Uiso   1.00
C1368  C     0.65463   0.62792   0.27546   0.00000  Uiso   1.00
C1369  C     0.62792   0.84537   0.72454   0.00000  Uiso   1.00
C1370  C     0.87208   0.65463   0.27546   0.00000  Uiso   1.00
C1371  C     0.65463   0.62792   0.72453   0.00000  Uiso   1.00
C1372  C     0.84537   0.87208   0.27547   0.00000  Uiso   1.00
C1373  C     0.87208   0.84537   0.27547   0.00000  Uiso   1.00
C1374  C     0.62792   0.65463   0.72453   0.00000  Uiso   1.00
C1375  C     0.84537   0.62792   0.27546   0.00000  Uiso   1.00
C1376  C     0.65463   0.87208   0.72454   0.00000  Uiso   1.00
C1377  C     0.62792   0.65463   0.27546   0.00000  Uiso   1.00
C1378  C     0.87208   0.84537   0.72453   0.00000  Uiso   1.00
C1379  C     0.65463   0.87208   0.27546   0.00000  Uiso   1.00
C1380  C     0.84537   0.62792   0.72454   0.00000  Uiso   1.00
C1381  C     0.50146   0.71642   0.45887   0.00000  Uiso   1.00
C1382  C     0.50143   0.78358   0.54113   0.00000  Uiso   1.00
C1383  C     0.78358   0.50143   0.45887   0.00000  Uiso   1.00
C1384  C     0.71642   0.50147   0.54113   0.00000  Uiso   1.00
C1385  C     0.99853   0.78358   0.45887   0.00000  Uiso   1.00
C1386  C     0.99857   0.71642   0.54113   0.00000  Uiso   1.00
C1387  C     0.71642   0.99857   0.45887   0.00000  Uiso   1.00
C1388  C     0.78358   0.99854   0.54112   0.00000  Uiso   1.00
C1389  C     0.75146   0.96642   0.95887   0.00000  Uiso   1.00
C1390  C     0.75143   0.53358   0.04113   0.00000  Uiso   1.00
C1391  C     0.53358   0.75143   0.95887   0.00000  Uiso   1.00
C1392  C     0.96642   0.75147   0.04113   0.00000  Uiso   1.00
C1393  C     0.74853   0.53358   0.95887   0.00000  Uiso   1.00
C1394  C     0.74857   0.96642   0.04113   0.00000  Uiso   1.00
C1395  C     0.96642   0.74857   0.95887   0.00000  Uiso   1.00
C1396  C     0.53358   0.74854   0.04112   0.00000  Uiso   1.00
C1397  C     0.59814   0.84814   0.25000   0.00000  Uiso   1.00
C1398  C     0.90186   0.65186   0.75000   0.00000  Uiso   1.00
C1399  C     0.65186   0.59814   0.25000   0.00000  Uiso   1.00
C1400  C     0.84814   0.90186   0.75000   0.00000  Uiso   1.00
C1401  C     0.90186   0.65186   0.25000   0.00000  Uiso   1.00
C1402  C     0.59814   0.84814   0.75000   0.00000  Uiso   1.00
C1403  C     0.84814   0.90186   0.25000   0.00000  Uiso   1.00
C1404  C     0.65186   0.59814   0.75000   0.00000  Uiso   1.00
C1405  C     0.59814   0.65186   0.75000   0.00000  Uiso   1.00
C1406  C     0.90186   0.84814   0.25000   0.00000  Uiso   1.00
C1407  C     0.65186   0.90186   0.75000   0.00000  Uiso   1.00
C1408  C     0.84814   0.59814   0.25000   0.00000  Uiso   1.00
C1409  C     0.90186   0.84814   0.75000   0.00000  Uiso   1.00
C1410  C     0.59814   0.65186   0.25000   0.00000  Uiso   1.00
C1411  C     0.84814   0.59814   0.75000   0.00000  Uiso   1.00
C1412  C     0.65186   0.90186   0.25000   0.00000  Uiso   1.00
C1413  C     0.50000   0.75000   0.47949   0.00000  Uiso   1.00
C1414  C     0.50000   0.75000   0.52052   0.00000  Uiso   1.00
C1415  C     0.75000   0.50000   0.47948   0.00000  Uiso   1.00
C1416  C     0.75000   0.50000   0.52051   0.00000  Uiso   1.00
C1417  C     0.75000   0.50000   0.97949   0.00000  Uiso   1.00
C1418  C     0.75000   0.50000   0.02052   0.00000  Uiso   1.00
C1419  C     0.50000   0.75000   0.97948   0.00000  Uiso   1.00
C1420  C     0.50000   0.75000   0.02051   0.00000  Uiso   1.00
H1421  H     0.61940   0.92739   0.20461   0.00000  Uiso   1.00
H1422  H     0.88060   0.57261   0.79539   0.00000  Uiso   1.00
H1423  H     0.57261   0.61940   0.20461   0.00000  Uiso   1.00
H1424  H     0.92739   0.88060   0.79539   0.00000  Uiso   1.00
H1425  H     0.88060   0.57261   0.20461   0.00000  Uiso   1.00
H1426  H     0.61940   0.92739   0.79539   0.00000  Uiso   1.00
H1427  H     0.92739   0.88060   0.20460   0.00000  Uiso   1.00
H1428  H     0.57261   0.61940   0.79540   0.00000  Uiso   1.00
H1429  H     0.61940   0.57261   0.79539   0.00000  Uiso   1.00
H1430  H     0.88060   0.92739   0.20460   0.00000  Uiso   1.00
H1431  H     0.57261   0.88060   0.79539   0.00000  Uiso   1.00
H1432  H     0.92739   0.61940   0.20461   0.00000  Uiso   1.00
H1433  H     0.88060   0.92739   0.79539   0.00000  Uiso   1.00
H1434  H     0.61940   0.57261   0.20460   0.00000  Uiso   1.00
H1435  H     0.92739   0.61940   0.79539   0.00000  Uiso   1.00
H1436  H     0.57261   0.88060   0.20461   0.00000  Uiso   1.00
H1437  H     0.86940   0.67739   0.70461   0.00000  Uiso   1.00
H1438  H     0.63060   0.82261   0.29539   0.00000  Uiso   1.00
H1439  H     0.82261   0.86940   0.70461   0.00000  Uiso   1.00
H1440  H     0.67739   0.63060   0.29539   0.00000  Uiso   1.00
H1441  H     0.63060   0.82261   0.70461   0.00000  Uiso   1.00
H1442  H     0.86940   0.67739   0.29539   0.00000  Uiso   1.00
H1443  H     0.67739   0.63060   0.70460   0.00000  Uiso   1.00
H1444  H     0.82261   0.86940   0.29540   0.00000  Uiso   1.00
H1445  H     0.86940   0.82261   0.29539   0.00000  Uiso   1.00
H1446  H     0.63060   0.67739   0.70460   0.00000  Uiso   1.00
H1447  H     0.82261   0.63060   0.29539   0.00000  Uiso   1.00
H1448  H     0.67739   0.86940   0.70461   0.00000  Uiso   1.00
H1449  H     0.63060   0.67739   0.29539   0.00000  Uiso   1.00
H1450  H     0.86940   0.82261   0.70460   0.00000  Uiso   1.00
H1451  H     0.67739   0.86940   0.29539   0.00000  Uiso   1.00
H1452  H     0.82261   0.63060   0.70461   0.00000  Uiso   1.00
H1453  H     0.99415   0.80743   0.40093   0.00000  Uiso   1.00
H1454  H     0.99421   0.69257   0.59907   0.00000  Uiso   1.00
H1455  H     0.69257   0.99421   0.40093   0.00000  Uiso   1.00
H1456  H     0.80743   0.99415   0.59906   0.00000  Uiso   1.00
H1457  H     0.50585   0.69257   0.40094   0.00000  Uiso   1.00
H1458  H     0.50579   0.80743   0.59907   0.00000  Uiso   1.00
H1459  H     0.80743   0.50579   0.40093   0.00000  Uiso   1.00
H1460  H     0.69257   0.50585   0.59907   0.00000  Uiso   1.00
H1461  H     0.74415   0.55743   0.90093   0.00000  Uiso   1.00
H1462  H     0.74421   0.94257   0.09907   0.00000  Uiso   1.00
H1463  H     0.94257   0.74421   0.90093   0.00000  Uiso   1.00
H1464  H     0.55743   0.74415   0.09906   0.00000  Uiso   1.00
H1465  H     0.75585   0.94257   0.90094   0.00000  Uiso   1.00
H1466  H     0.75579   0.55743   0.09907   0.00000  Uiso   1.00
H1467  H     0.55743   0.75579   0.90093   0.00000  Uiso   1.00
H1468  H     0.94257   0.75585   0.09907   0.00000  Uiso   1.00
O1469  O     0.75000   0.50000   0.25000   0.00000  Uiso   1.00
O1470  O     0.75000   0.50000   0.75000   0.00000  Uiso   1.00
O1471  O     0.50000   0.75000   0.25000   0.00000  Uiso   1.00
O1472  O     0.50000   0.75000   0.75000   0.00000  Uiso   1.00
O1473  O     0.75000   0.96963   0.33755   0.00000  Uiso   1.00
O1474  O     0.75000   0.53036   0.66245   0.00000  Uiso   1.00
O1475  O     0.53037   0.75000   0.33755   0.00000  Uiso   1.00
O1476  O     0.96964   0.75000   0.66245   0.00000  Uiso   1.00
O1477  O     0.75000   0.53036   0.33755   0.00000  Uiso   1.00
O1478  O     0.75000   0.96963   0.66245   0.00000  Uiso   1.00
O1479  O     0.96964   0.75000   0.33755   0.00000  Uiso   1.00
O1480  O     0.53037   0.75000   0.66245   0.00000  Uiso   1.00
O1481  O     0.50000   0.71963   0.83755   0.00000  Uiso   1.00
O1482  O     0.50000   0.78036   0.16245   0.00000  Uiso   1.00
O1483  O     0.78037   0.50000   0.83755   0.00000  Uiso   1.00
O1484  O     0.71964   0.50000   0.16245   0.00000  Uiso   1.00
O1485  O     0.50000   0.78036   0.83755   0.00000  Uiso   1.00
O1486  O     0.50000   0.71963   0.16245   0.00000  Uiso   1.00
O1487  O     0.71964   0.50000   0.83755   0.00000  Uiso   1.00
O1488  O     0.78037   0.50000   0.16245   0.00000  Uiso   1.00
O1489  O     0.70725   0.57307   0.27302   0.00000  Uiso   1.00
O1490  O     0.79276   0.92692   0.72698   0.00000  Uiso   1.00
O1491  O     0.92693   0.70724   0.27302   0.00000  Uiso   1.00
O1492  O     0.57308   0.79275   0.72698   0.00000  Uiso   1.00
O1493  O     0.79276   0.92692   0.27302   0.00000  Uiso   1.00
O1494  O     0.70725   0.57307   0.72698   0.00000  Uiso   1.00
O1495  O     0.57308   0.79275   0.27302   0.00000  Uiso   1.00
O1496  O     0.92693   0.70724   0.72698   0.00000  Uiso   1.00
O1497  O     0.70725   0.92692   0.72698   0.00000  Uiso   1.00
O1498  O     0.79276   0.57307   0.27302   0.00000  Uiso   1.00
O1499  O     0.92693   0.79275   0.72698   0.00000  Uiso   1.00
O1500  O     0.57308   0.70724   0.27302   0.00000  Uiso   1.00
O1501  O     0.79276   0.57307   0.72698   0.00000  Uiso   1.00
O1502  O     0.70725   0.92692   0.27302   0.00000  Uiso   1.00
O1503  O     0.57308   0.70724   0.72698   0.00000  Uiso   1.00
O1504  O     0.92693   0.79275   0.27302   0.00000  Uiso   1.00
O1505  O     0.95725   0.82307   0.77302   0.00000  Uiso   1.00
O1506  O     0.54276   0.67692   0.22698   0.00000  Uiso   1.00
O1507  O     0.67693   0.95724   0.77302   0.00000  Uiso   1.00
O1508  O     0.82308   0.54275   0.22698   0.00000  Uiso   1.00
O1509  O     0.54276   0.67692   0.77302   0.00000  Uiso   1.00
O1510  O     0.95725   0.82307   0.22698   0.00000  Uiso   1.00
O1511  O     0.82308   0.54275   0.77302   0.00000  Uiso   1.00
O1512  O     0.67693   0.95724   0.22698   0.00000  Uiso   1.00
O1513  O     0.95725   0.67692   0.22698   0.00000  Uiso   1.00
O1514  O     0.54276   0.82308   0.77302   0.00000  Uiso   1.00
O1515  O     0.67693   0.54275   0.22698   0.00000  Uiso   1.00
O1516  O     0.82308   0.95724   0.77302   0.00000  Uiso   1.00
O1517  O     0.54276   0.82308   0.22698   0.00000  Uiso   1.00
O1518  O     0.95725   0.67692   0.77302   0.00000  Uiso   1.00
O1519  O     0.82308   0.95724   0.22698   0.00000  Uiso   1.00
O1520  O     0.67693   0.54275   0.77302   0.00000  Uiso   1.00
Zn1521 Zn    0.70660   0.50000   0.21735   0.00000  Uiso   1.00
Zn1522 Zn    0.79341   0.50000   0.78265   0.00000  Uiso   1.00
Zn1523 Zn    0.50000   0.70660   0.21735   0.00000  Uiso   1.00
Zn1524 Zn    0.50000   0.79340   0.78265   0.00000  Uiso   1.00
Zn1525 Zn    0.79341   0.50000   0.21735   0.00000  Uiso   1.00
Zn1526 Zn    0.70660   0.50000   0.78265   0.00000  Uiso   1.00
Zn1527 Zn    0.50000   0.79340   0.21735   0.00000  Uiso   1.00
Zn1528 Zn    0.50000   0.70660   0.78265   0.00000  Uiso   1.00
Zn1529 Zn    0.95660   0.75000   0.71735   0.00000  Uiso   1.00
Zn1530 Zn    0.54341   0.75000   0.28265   0.00000  Uiso   1.00
Zn1531 Zn    0.75000   0.95659   0.71735   0.00000  Uiso   1.00
Zn1532 Zn    0.75000   0.54340   0.28265   0.00000  Uiso   1.00
Zn1533 Zn    0.54341   0.75000   0.71735   0.00000  Uiso   1.00
Zn1534 Zn    0.95660   0.75000   0.28265   0.00000  Uiso   1.00
Zn1535 Zn    0.75000   0.54340   0.71735   0.00000  Uiso   1.00
Zn1536 Zn    0.75000   0.95659   0.28265   0.00000  Uiso   1.00
C1537  C     0.50600   0.64757   0.45866   0.00000  Uiso   1.00
C1538  C     0.97841   0.63408   0.43417   0.00000  Uiso   1.00
C1539  C     0.98271   0.60043   0.41557   0.00000  Uiso   1.00
C1540  C     0.51397   0.57956   0.42222   0.00000  Uiso   1.00
C1541  C     0.54124   0.59258   0.44704   0.00000  Uiso   1.00
C1542  C     0.53746   0.62657   0.46493   0.00000  Uiso   1.00
H1543  H     0.95374   0.64968   0.42945   0.00000  Uiso   1.00
H1544  H     0.96163   0.59035   0.39629   0.00000  Uiso   1.00
H1545  H     0.51700   0.55329   0.40823   0.00000  Uiso   1.00
H1546  H     0.56531   0.57641   0.45257   0.00000  Uiso   1.00
H1547  H     0.55884   0.63637   0.48404   0.00000  Uiso   1.00
C1548  C     0.50589   0.85245   0.54134   0.00000  Uiso   1.00
C1549  C     0.97829   0.86587   0.56587   0.00000  Uiso   1.00
C1550  C     0.98255   0.89951   0.58451   0.00000  Uiso   1.00
C1551  C     0.51377   0.92044   0.57785   0.00000  Uiso   1.00
C1552  C     0.54106   0.90748   0.55299   0.00000  Uiso   1.00
C1553  C     0.53732   0.87350   0.53508   0.00000  Uiso   1.00
H1554  H     0.95365   0.85023   0.57060   0.00000  Uiso   1.00
H1555  H     0.96146   0.90954   0.60382   0.00000  Uiso   1.00
H1556  H     0.51678   0.94670   0.59186   0.00000  Uiso   1.00
H1557  H     0.56510   0.92370   0.54745   0.00000  Uiso   1.00
H1558  H     0.55871   0.86375   0.51594   0.00000  Uiso   1.00
C1559  C     0.85244   0.50590   0.45865   0.00000  Uiso   1.00
C1560  C     0.86588   0.97830   0.43413   0.00000  Uiso   1.00
C1561  C     0.89951   0.98257   0.41549   0.00000  Uiso   1.00
C1562  C     0.92042   0.51380   0.42214   0.00000  Uiso   1.00
C1563  C     0.90746   0.54108   0.44699   0.00000  Uiso   1.00
C1564  C     0.87349   0.53734   0.46491   0.00000  Uiso   1.00
H1565  H     0.85024   0.95366   0.42941   0.00000  Uiso   1.00
H1566  H     0.90954   0.96149   0.39618   0.00000  Uiso   1.00
H1567  H     0.94668   0.51681   0.40812   0.00000  Uiso   1.00
H1568  H     0.92367   0.56513   0.45252   0.00000  Uiso   1.00
H1569  H     0.86373   0.55872   0.48404   0.00000  Uiso   1.00
C1570  C     0.64757   0.50601   0.54134   0.00000  Uiso   1.00
C1571  C     0.63408   0.97841   0.56583   0.00000  Uiso   1.00
C1572  C     0.60043   0.98272   0.58444   0.00000  Uiso   1.00
C1573  C     0.57957   0.51398   0.57779   0.00000  Uiso   1.00
C1574  C     0.59260   0.54126   0.55298   0.00000  Uiso   1.00
C1575  C     0.62658   0.53748   0.53509   0.00000  Uiso   1.00
H1576  H     0.64967   0.95375   0.57054   0.00000  Uiso   1.00
H1577  H     0.59034   0.96164   0.60370   0.00000  Uiso   1.00
H1578  H     0.55330   0.51702   0.59178   0.00000  Uiso   1.00
H1579  H     0.57643   0.56534   0.54745   0.00000  Uiso   1.00
H1580  H     0.63639   0.55886   0.51598   0.00000  Uiso   1.00
C1581  C     0.99399   0.85243   0.45866   0.00000  Uiso   1.00
C1582  C     0.52159   0.86592   0.43417   0.00000  Uiso   1.00
C1583  C     0.51728   0.89958   0.41556   0.00000  Uiso   1.00
C1584  C     0.98602   0.92043   0.42221   0.00000  Uiso   1.00
C1585  C     0.95874   0.90740   0.44702   0.00000  Uiso   1.00
C1586  C     0.96252   0.87342   0.46491   0.00000  Uiso   1.00
H1587  H     0.54625   0.85033   0.42946   0.00000  Uiso   1.00
H1588  H     0.53836   0.90966   0.39629   0.00000  Uiso   1.00
H1589  H     0.98298   0.94670   0.40822   0.00000  Uiso   1.00
H1590  H     0.93466   0.92357   0.45254   0.00000  Uiso   1.00
H1591  H     0.94114   0.86361   0.48402   0.00000  Uiso   1.00
C1592  C     0.99410   0.64756   0.54135   0.00000  Uiso   1.00
C1593  C     0.52170   0.63412   0.56587   0.00000  Uiso   1.00
C1594  C     0.51743   0.60049   0.58451   0.00000  Uiso   1.00
C1595  C     0.98620   0.57958   0.57786   0.00000  Uiso   1.00
C1596  C     0.95892   0.59254   0.55301   0.00000  Uiso   1.00
C1597  C     0.96266   0.62651   0.53509   0.00000  Uiso   1.00
H1598  H     0.54634   0.64976   0.57059   0.00000  Uiso   1.00
H1599  H     0.53851   0.59046   0.60382   0.00000  Uiso   1.00
H1600  H     0.98319   0.55332   0.59188   0.00000  Uiso   1.00
H1601  H     0.93487   0.57633   0.54748   0.00000  Uiso   1.00
H1602  H     0.94128   0.63627   0.51596   0.00000  Uiso   1.00
C1603  C     0.64755   0.99411   0.45866   0.00000  Uiso   1.00
C1604  C     0.63413   0.52171   0.43413   0.00000  Uiso   1.00
C1605  C     0.60049   0.51745   0.41549   0.00000  Uiso   1.00
C1606  C     0.57956   0.98623   0.42215   0.00000  Uiso   1.00
C1607  C     0.59252   0.95894   0.44701   0.00000  Uiso   1.00
C1608  C     0.62650   0.96268   0.46492   0.00000  Uiso   1.00
H1609  H     0.64977   0.54635   0.42940   0.00000  Uiso   1.00
H1610  H     0.59046   0.53854   0.39618   0.00000  Uiso   1.00
H1611  H     0.55330   0.98322   0.40814   0.00000  Uiso   1.00
H1612  H     0.57630   0.93490   0.45254   0.00000  Uiso   1.00
H1613  H     0.63625   0.94129   0.48406   0.00000  Uiso   1.00
C1614  C     0.85243   0.99400   0.54133   0.00000  Uiso   1.00
C1615  C     0.86592   0.52159   0.56583   0.00000  Uiso   1.00
C1616  C     0.89957   0.51729   0.58443   0.00000  Uiso   1.00
C1617  C     0.92044   0.98603   0.57778   0.00000  Uiso   1.00
C1618  C     0.90742   0.95876   0.55296   0.00000  Uiso   1.00
C1619  C     0.87343   0.96254   0.53507   0.00000  Uiso   1.00
H1620  H     0.85032   0.54626   0.57055   0.00000  Uiso   1.00
H1621  H     0.90965   0.53837   0.60371   0.00000  Uiso   1.00
H1622  H     0.94671   0.98300   0.59177   0.00000  Uiso   1.00
H1623  H     0.92359   0.93469   0.54742   0.00000  Uiso   1.00
H1624  H     0.86363   0.94116   0.51596   0.00000  Uiso   1.00
C1625  C     0.75600   0.89757   0.95866   0.00000  Uiso   1.00
C1626  C     0.72841   0.88408   0.93417   0.00000  Uiso   1.00
C1627  C     0.73271   0.85043   0.91557   0.00000  Uiso   1.00
C1628  C     0.76397   0.82956   0.92222   0.00000  Uiso   1.00
C1629  C     0.79124   0.84258   0.94704   0.00000  Uiso   1.00
C1630  C     0.78746   0.87657   0.96493   0.00000  Uiso   1.00
H1631  H     0.70374   0.89968   0.92945   0.00000  Uiso   1.00
H1632  H     0.71163   0.84035   0.89629   0.00000  Uiso   1.00
H1633  H     0.76700   0.80329   0.90823   0.00000  Uiso   1.00
H1634  H     0.81531   0.82641   0.95257   0.00000  Uiso   1.00
H1635  H     0.80884   0.88637   0.98404   0.00000  Uiso   1.00
C1636  C     0.75589   0.60245   0.04134   0.00000  Uiso   1.00
C1637  C     0.72829   0.61587   0.06587   0.00000  Uiso   1.00
C1638  C     0.73255   0.64951   0.08451   0.00000  Uiso   1.00
C1639  C     0.76377   0.67044   0.07785   0.00000  Uiso   1.00
C1640  C     0.79106   0.65748   0.05299   0.00000  Uiso   1.00
C1641  C     0.78732   0.62350   0.03508   0.00000  Uiso   1.00
H1642  H     0.70365   0.60023   0.07060   0.00000  Uiso   1.00
H1643  H     0.71146   0.65954   0.10382   0.00000  Uiso   1.00
H1644  H     0.76678   0.69670   0.09186   0.00000  Uiso   1.00
H1645  H     0.81510   0.67370   0.04745   0.00000  Uiso   1.00
H1646  H     0.80871   0.61375   0.01594   0.00000  Uiso   1.00
C1647  C     0.60244   0.75590   0.95865   0.00000  Uiso   1.00
C1648  C     0.61588   0.72830   0.93413   0.00000  Uiso   1.00
C1649  C     0.64951   0.73257   0.91549   0.00000  Uiso   1.00
C1650  C     0.67042   0.76380   0.92214   0.00000  Uiso   1.00
C1651  C     0.65746   0.79108   0.94699   0.00000  Uiso   1.00
C1652  C     0.62349   0.78734   0.96491   0.00000  Uiso   1.00
H1653  H     0.60024   0.70366   0.92941   0.00000  Uiso   1.00
H1654  H     0.65954   0.71149   0.89618   0.00000  Uiso   1.00
H1655  H     0.69668   0.76681   0.90812   0.00000  Uiso   1.00
H1656  H     0.67367   0.81513   0.95252   0.00000  Uiso   1.00
H1657  H     0.61373   0.80872   0.98404   0.00000  Uiso   1.00
C1658  C     0.89757   0.75601   0.04134   0.00000  Uiso   1.00
C1659  C     0.88408   0.72841   0.06583   0.00000  Uiso   1.00
C1660  C     0.85043   0.73272   0.08444   0.00000  Uiso   1.00
C1661  C     0.82957   0.76398   0.07779   0.00000  Uiso   1.00
C1662  C     0.84260   0.79126   0.05298   0.00000  Uiso   1.00
C1663  C     0.87658   0.78748   0.03509   0.00000  Uiso   1.00
H1664  H     0.89967   0.70375   0.07054   0.00000  Uiso   1.00
H1665  H     0.84034   0.71164   0.10370   0.00000  Uiso   1.00
H1666  H     0.80330   0.76702   0.09178   0.00000  Uiso   1.00
H1667  H     0.82643   0.81534   0.04745   0.00000  Uiso   1.00
H1668  H     0.88639   0.80886   0.01598   0.00000  Uiso   1.00
C1669  C     0.74399   0.60243   0.95866   0.00000  Uiso   1.00
C1670  C     0.77159   0.61592   0.93417   0.00000  Uiso   1.00
C1671  C     0.76728   0.64957   0.91556   0.00000  Uiso   1.00
C1672  C     0.73602   0.67043   0.92221   0.00000  Uiso   1.00
C1673  C     0.70874   0.65740   0.94702   0.00000  Uiso   1.00
C1674  C     0.71252   0.62342   0.96491   0.00000  Uiso   1.00
H1675  H     0.79625   0.60033   0.92946   0.00000  Uiso   1.00
H1676  H     0.78836   0.65966   0.89629   0.00000  Uiso   1.00
H1677  H     0.73298   0.69670   0.90822   0.00000  Uiso   1.00
H1678  H     0.68466   0.67357   0.95254   0.00000  Uiso   1.00
H1679  H     0.69114   0.61361   0.98402   0.00000  Uiso   1.00
C1680  C     0.74410   0.89756   0.04135   0.00000  Uiso   1.00
C1681  C     0.77170   0.88412   0.06587   0.00000  Uiso   1.00
C1682  C     0.76743   0.85049   0.08451   0.00000  Uiso   1.00
C1683  C     0.73620   0.82958   0.07786   0.00000  Uiso   1.00
C1684  C     0.70892   0.84254   0.05301   0.00000  Uiso   1.00
C1685  C     0.71266   0.87651   0.03509   0.00000  Uiso   1.00
H1686  H     0.79634   0.89976   0.07059   0.00000  Uiso   1.00
H1687  H     0.78851   0.84046   0.10382   0.00000  Uiso   1.00
H1688  H     0.73319   0.80332   0.09188   0.00000  Uiso   1.00
H1689  H     0.68487   0.82633   0.04748   0.00000  Uiso   1.00
H1690  H     0.69128   0.88627   0.01596   0.00000  Uiso   1.00
C1691  C     0.89755   0.74411   0.95866   0.00000  Uiso   1.00
C1692  C     0.88413   0.77171   0.93413   0.00000  Uiso   1.00
C1693  C     0.85049   0.76745   0.91549   0.00000  Uiso   1.00
C1694  C     0.82956   0.73623   0.92215   0.00000  Uiso   1.00
C1695  C     0.84252   0.70894   0.94701   0.00000  Uiso   1.00
C1696  C     0.87650   0.71268   0.96492   0.00000  Uiso   1.00
H1697  H     0.89977   0.79635   0.92940   0.00000  Uiso   1.00
H1698  H     0.84046   0.78854   0.89618   0.00000  Uiso   1.00
H1699  H     0.80330   0.73322   0.90814   0.00000  Uiso   1.00
H1700  H     0.82630   0.68490   0.95254   0.00000  Uiso   1.00
H1701  H     0.88625   0.69129   0.98406   0.00000  Uiso   1.00
C1702  C     0.60243   0.74400   0.04133   0.00000  Uiso   1.00
C1703  C     0.61592   0.77159   0.06583   0.00000  Uiso   1.00
C1704  C     0.64957   0.76729   0.08443   0.00000  Uiso   1.00
C1705  C     0.67044   0.73603   0.07778   0.00000  Uiso   1.00
C1706  C     0.65742   0.70876   0.05296   0.00000  Uiso   1.00
C1707  C     0.62343   0.71254   0.03507   0.00000  Uiso   1.00
H1708  H     0.60032   0.79626   0.07055   0.00000  Uiso   1.00
H1709  H     0.65965   0.78837   0.10371   0.00000  Uiso   1.00
H1710  H     0.69671   0.73300   0.09177   0.00000  Uiso   1.00
H1711  H     0.67359   0.68469   0.04742   0.00000  Uiso   1.00
H1712  H     0.61363   0.69116   0.01596   0.00000  Uiso   1.00
loop_
_geom_bond_atom_site_label_1
_geom_bond_atom_site_label_2
_geom_bond_distance
_geom_bond_site_symmetry_2
_ccdc_geom_bond_type
C1     C101    1.403   .     A
C1     C445    1.388   .     A
C1     H169    1.082   .     S
C2     C102    1.403   .     A
C2     H170    1.082   .     S
C2     C446    1.388   .     S
C3     C875    1.388   .     A
C3     C103    1.403   .     A
C3     H171    1.082   .     S
C4     C104    1.403   .     A
C4     H172    1.082   .     S
C4     C876    1.388   .     S
C5     H173    1.082   .     S
C5     C97     1.403   .     A
C5     C17     1.388   .     S
C6     H174    1.082   .     S
C6     C98     1.403   .     A
C6     C18     1.388   .     A
C7     C99     1.403   .     A
C7     H175    1.082   .     S
C7     C19     1.388   .     S
C8     H176    1.082   .     S
C8     C100    1.403   .     A
C8     C20     1.388   .     A
C9     H177    1.082   .     S
C9     C109    1.403   .     A
C9     C21     1.388   .     S
C10    C110    1.403   .     A
C10    H178    1.082   .     S
C10    C878    1.388   .     S
C11    H179    1.082   .     S
C11    C451    1.388   .     A
C11    C111    1.403   .     A
C12    H180    1.082   .     S
C12    C112    1.403   .     A
C12    C24     1.388   .     A
C13    C877    1.388   .     A
C13    H181    1.082   .     S
C13    C105    1.403   .     A
C14    H182    1.082   .     S
C14    C106    1.403   .     A
C14    C22     1.388   .     A
C15    C107    1.403   .     A
C15    H183    1.082   .     S
C15    C23     1.388   .     S
C16    H184    1.082   .     S
C16    C108    1.403   .     A
C16    C452    1.388   .     S
C17    C43     1.446   .     S
C17    C429    1.388   1_455 A
C18    C44     1.446   .     S
C18    C430    1.388   1_455 S
C19    C859    1.388   1_545 A
C19    C41     1.446   .     S
C20    C42     1.446   .     S
C20    C860    1.388   1_545 S
C21    C869    1.388   1_545 A
C21    C47     1.446   .     S
C22    C48     1.446   .     S
C22    C866    1.388   1_545 S
C23    C439    1.388   1_455 A
C23    C45     1.446   .     S
C24    C46     1.446   .     S
C24    C444    1.388   1_455 S
C25    C253    1.490   .     S
C25    C97     1.416   .     A
C25    C458    1.412   1_455 S
C26    C264    1.490   .     S
C26    C98     1.416   .     A
C26    C457    1.412   1_455 S
C27    C99     1.416   .     A
C27    C275    1.490   .     S
C27    C888    1.412   1_545 S
C28    C286    1.490   .     S
C28    C100    1.416   .     A
C28    C887    1.412   1_545 S
C29    C297    1.490   .     S
C29    C101    1.416   .     A
C29    C454    1.412   .     S
C30    C308    1.490   .     S
C30    C102    1.416   .     A
C30    C453    1.412   .     S
C31    C103    1.416   .     A
C31    C319    1.490   .     S
C31    C884    1.412   .     S
C32    C104    1.416   .     A
C32    C330    1.490   .     S
C32    C883    1.412   .     S
C33    C105    1.416   .     A
C33    C341    1.490   .     S
C33    C38     1.412   1_556 S
C34    C106    1.416   .     A
C34    C352    1.490   .     S
C34    C37     1.412   1_554 S
C35    C107    1.416   .     A
C35    C363    1.490   .     S
C35    C40     1.412   1_556 S
C36    C108    1.416   .     A
C36    C374    1.490   .     S
C36    C39     1.412   1_554 S
C37    C109    1.416   .     A
C37    C385    1.490   .     S
C37    C34     1.412   1_556 S
C38    C110    1.416   .     A
C38    C396    1.490   .     S
C38    C33     1.412   1_554 S
C39    C111    1.416   .     A
C39    C407    1.490   .     S
C39    C36     1.412   1_556 S
C40    C112    1.416   .     A
C40    C418    1.490   .     S
C40    C35     1.412   1_554 S
C41    O1045   1.277   1_545 A
C41    O193    1.277   .     S
C42    O190    1.277   .     A
C42    O1050   1.277   1_545 S
C43    O623    1.277   1_455 A
C43    O191    1.277   .     S
C44    O196    1.277   .     A
C44    O620    1.277   1_455 S
C45    O197    1.277   .     A
C45    O201    1.277   .     A
C46    O198    1.277   .     S
C46    O202    1.277   .     S
C47    O199    1.277   .     S
C47    O203    1.277   .     S
C48    O200    1.277   .     S
C48    O204    1.277   .     S
C49    C115    1.456   .     S
C49    O205    1.280   .     A
C49    O231    1.280   .     A
C50    O232    1.280   .     A
C50    O206    1.280   .     A
C50    C116    1.456   .     S
C51    O207    1.280   .     A
C51    C117    1.456   .     S
C51    O229    1.280   .     A
C52    O230    1.280   .     A
C52    O208    1.280   .     A
C52    C118    1.456   .     S
C53    O209    1.280   .     A
C53    O235    1.280   .     A
C53    C119    1.456   .     S
C54    O236    1.280   .     A
C54    O210    1.280   .     A
C54    C120    1.456   .     S
C55    C113    1.456   .     S
C55    O233    1.280   .     A
C55    O211    1.280   .     A
C56    O234    1.280   .     A
C56    O212    1.280   .     A
C56    C114    1.456   .     S
C57    O213    1.280   .     A
C57    C123    1.456   .     S
C57    O223    1.280   .     A
C58    O214    1.280   .     A
C58    O224    1.280   .     A
C58    C124    1.456   .     S
C59    O215    1.280   .     A
C59    C125    1.456   .     S
C59    O221    1.280   .     A
C60    O222    1.280   .     A
C60    O216    1.280   .     A
C60    C126    1.456   .     S
C61    O227    1.280   .     A
C61    O217    1.280   .     A
C61    C127    1.456   .     S
C62    O228    1.280   .     A
C62    O218    1.280   .     A
C62    C128    1.456   .     S
C63    O219    1.280   .     A
C63    C121    1.456   .     S
C63    O225    1.280   .     A
C64    O226    1.280   .     A
C64    O220    1.280   .     A
C64    C122    1.456   .     S
C65    H137    1.083   .     S
C65    C128    1.402   .     A
C65    C80     1.387   .     A
C66    C79     1.387   .     A
C66    H138    1.083   .     S
C66    C127    1.402   .     A
C67    H139    1.083   .     S
C67    C126    1.402   .     A
C67    C78     1.387   .     A
C68    C77     1.387   .     A
C68    H140    1.083   .     S
C68    C125    1.402   .     A
C69    C76     1.387   .     A
C69    H141    1.083   .     S
C69    C124    1.402   .     A
C70    C75     1.387   .     A
C70    C123    1.402   .     A
C70    H142    1.083   .     S
C71    C122    1.402   .     A
C71    C74     1.387   .     A
C71    H143    1.083   .     S
C72    H144    1.083   .     S
C72    C73     1.387   .     A
C72    C121    1.402   .     A
C73    H145    1.083   .     S
C73    C120    1.402   .     A
C74    H146    1.083   .     S
C74    C119    1.402   .     A
C75    C118    1.402   .     A
C75    H147    1.083   .     S
C76    H148    1.083   .     S
C76    C117    1.402   .     A
C77    H149    1.083   .     S
C77    C116    1.402   .     A
C78    C115    1.402   .     A
C78    H150    1.083   .     S
C79    H151    1.083   .     S
C79    C114    1.402   .     A
C80    C113    1.402   .     A
C80    H152    1.083   .     S
C81    H153    1.083   .     S
C81    C114    1.402   .     A
C81    C96     1.387   .     A
C82    C95     1.387   .     A
C82    C113    1.402   .     A
C82    H154    1.083   .     S
C83    H155    1.083   .     S
C83    C94     1.387   .     A
C83    C116    1.402   .     A
C84    H156    1.083   .     S
C84    C93     1.387   .     A
C84    C115    1.402   .     A
C85    C92     1.387   .     A
C85    H157    1.083   .     S
C85    C118    1.402   .     A
C86    C117    1.402   .     A
C86    C91     1.387   .     A
C86    H158    1.083   .     S
C87    H159    1.083   .     S
C87    C90     1.387   .     A
C87    C120    1.402   .     A
C88    C119    1.402   .     A
C88    H160    1.083   .     S
C88    C89     1.387   .     A
C89    C122    1.402   .     A
C89    H161    1.083   .     S
C90    H162    1.083   .     S
C90    C121    1.402   .     A
C91    H163    1.083   .     S
C91    C124    1.402   .     A
C92    C123    1.402   .     A
C92    H164    1.083   .     S
C93    C126    1.402   .     A
C93    H165    1.083   .     S
C94    C125    1.402   .     A
C94    H166    1.083   .     S
C95    C128    1.402   .     A
C95    H167    1.083   .     S
C96    C127    1.402   .     A
C96    H168    1.083   .     S
C97    C129    1.421   .     S
C98    C130    1.421   .     S
C99    C131    1.421   .     A
C100   C132    1.421   .     A
C101   C557    1.421   .     A
C102   C558    1.421   .     A
C103   C987    1.421   .     S
C104   C988    1.421   .     S
C105   C989    1.421   .     A
C106   C134    1.421   .     A
C107   C135    1.421   .     S
C108   C564    1.421   .     S
C109   C133    1.421   .     S
C110   C990    1.421   .     S
C111   C563    1.421   .     A
C112   C136    1.421   .     A
C129   C130    1.405   .     A
C129   C529    1.421   1_455 A
C130   C530    1.421   1_455 A
C131   C132    1.405   .     A
C131   C959    1.421   1_545 S
C132   C960    1.421   1_545 S
C133   C961    1.421   1_545 A
C133   C134    1.405   1_556 S
C134   C966    1.421   1_545 S
C134   C133    1.405   1_554 S
C135   C539    1.421   1_455 A
C135   C136    1.405   1_556 S
C136   C536    1.421   1_455 S
C136   C135    1.405   1_554 S
O185   Zn237   1.946   .     S
O185   Zn241   1.946   .     S
O185   Zn1108  1.946   1_545 S
O185   Zn248   1.946   .     S
O186   Zn251   1.946   .     S
O186   Zn238   1.946   .     S
O186   Zn242   1.946   .     S
O186   Zn1103  1.946   1_545 S
O187   Zn243   1.946   .     S
O187   Zn678   1.946   1_455 S
O187   Zn239   1.946   .     S
O187   Zn246   1.946   .     S
O188   Zn240   1.946   .     S
O188   Zn673   1.946   1_455 S
O188   Zn244   1.946   .     S
O188   Zn249   1.946   .     S
O189   C897    1.277   .     A
O189   Zn252   1.940   .     S
O190   Zn251   1.940   .     S
O191   Zn246   1.940   .     S
O192   Zn245   1.940   .     S
O192   C472    1.277   .     S
O193   Zn248   1.940   .     S
O194   Zn247   1.940   .     S
O194   C898    1.277   .     S
O195   C471    1.277   .     A
O195   Zn250   1.940   .     S
O196   Zn249   1.940   .     S
O197   Zn244   1.940   .     S
O198   Zn243   1.940   .     S
O199   Zn238   1.940   .     S
O200   Zn237   1.940   .     S
O201   Zn240   1.940   .     S
O202   Zn239   1.940   .     S
O203   Zn242   1.940   .     S
O204   Zn241   1.940   .     S
O205   Zn248   1.938   .     S
O206   Zn247   1.938   .     S
O207   Zn250   1.938   .     S
O208   Zn249   1.938   .     S
O209   Zn252   1.938   .     S
O210   Zn251   1.938   .     S
O211   Zn246   1.938   .     S
O212   Zn245   1.938   .     S
O213   Zn247   1.938   .     S
O214   Zn248   1.938   .     S
O215   Zn245   1.938   .     S
O216   Zn246   1.938   .     S
O217   Zn251   1.938   .     S
O218   Zn252   1.938   .     S
O219   Zn249   1.938   .     S
O220   Zn250   1.938   .     S
O221   Zn668   1.938   .     S
O222   Zn239   1.938   .     S
O223   Zn1098  1.938   .     S
O224   Zn241   1.938   .     S
O225   Zn244   1.938   .     S
O226   Zn671   1.938   .     S
O227   Zn238   1.938   .     S
O228   Zn1093  1.938   .     S
O229   Zn667   1.938   .     S
O230   Zn240   1.938   .     S
O231   Zn237   1.938   .     S
O232   Zn1094  1.938   .     S
O233   Zn243   1.938   .     S
O234   Zn672   1.938   .     S
O235   Zn1097  1.938   .     S
O236   Zn242   1.938   .     S
Zn237  O1084   1.938   1_545 S
Zn238  O1088   1.938   1_545 S
Zn239  O657    1.938   1_455 S
Zn240  O649    1.938   1_455 S
Zn241  O1091   1.938   1_545 S
Zn242  O1079   1.938   1_545 S
Zn243  O654    1.938   1_455 S
Zn244  O662    1.938   1_455 S
Zn245  O616    1.946   .     S
Zn247  O1042   1.946   .     S
Zn250  O615    1.946   .     S
Zn252  O1041   1.946   .     S
C253   C258    1.405   .     A
C253   C682    1.405   1_455 S
C254   H259    1.083   .     S
C254   C255    1.399   .     A
C254   C681    1.405   .     S
C255   H260    1.082   .     S
C255   C684    1.398   .     S
C256   H261    1.082   .     S
C256   C257    1.397   .     A
C256   C683    1.398   1_455 S
C257   C258    1.396   .     A
C257   H262    1.081   .     S
C258   H263    1.083   .     S
C264   C269    1.405   .     A
C264   C693    1.405   1_455 S
C265   H270    1.083   .     S
C265   C266    1.399   .     A
C265   C692    1.405   .     S
C266   H271    1.082   .     S
C266   C695    1.398   .     S
C267   H272    1.082   .     S
C267   C268    1.398   .     A
C267   C694    1.398   1_455 S
C268   C269    1.396   .     A
C268   H273    1.081   .     S
C269   H274    1.083   .     S
C275   C280    1.405   .     A
C275   C1132   1.405   1_545 S
C276   C277    1.399   .     A
C276   H281    1.083   .     S
C276   C1131   1.405   .     S
C277   H282    1.082   .     S
C277   C1134   1.398   .     S
C278   H283    1.082   .     S
C278   C279    1.398   .     A
C278   C1133   1.398   1_545 S
C279   C280    1.396   .     A
C279   H284    1.081   .     S
C280   H285    1.083   .     S
C286   C291    1.405   .     A
C286   C1143   1.405   1_545 S
C287   H292    1.083   .     S
C287   C288    1.399   .     A
C287   C1142   1.405   .     S
C288   H293    1.082   .     S
C288   C1145   1.398   .     S
C289   C290    1.397   .     A
C289   H294    1.082   .     S
C289   C1144   1.398   1_545 S
C290   C291    1.396   .     A
C290   H295    1.081   .     S
C291   H296    1.083   .     S
C297   C302    1.405   .     A
C297   C726    1.405   .     S
C298   C299    1.399   .     A
C298   H303    1.083   .     S
C298   C725    1.405   1_455 S
C299   H304    1.082   .     S
C299   C728    1.398   1_455 S
C300   C301    1.397   .     A
C300   H305    1.082   .     S
C300   C727    1.398   .     S
C301   C302    1.396   .     A
C301   H306    1.081   .     S
C302   H307    1.083   .     S
C308   C313    1.405   .     A
C308   C737    1.405   .     S
C309   H314    1.083   .     S
C309   C310    1.399   .     A
C309   C736    1.405   1_455 S
C310   H315    1.082   .     S
C310   C739    1.398   1_455 S
C311   C312    1.398   .     A
C311   H316    1.082   .     S
C311   C738    1.398   .     S
C312   C313    1.396   .     A
C312   H317    1.081   .     S
C313   H318    1.083   .     S
C319   C324    1.405   .     A
C319   C1176   1.405   .     S
C320   H325    1.083   .     S
C320   C321    1.399   .     A
C320   C1175   1.405   1_545 S
C321   H326    1.082   .     S
C321   C1178   1.398   1_545 S
C322   C323    1.398   .     A
C322   H327    1.082   .     S
C322   C1177   1.398   .     S
C323   C324    1.396   .     A
C323   H328    1.081   .     S
C324   H329    1.083   .     S
C330   C335    1.405   .     A
C330   C1187   1.405   .     S
C331   H336    1.083   .     S
C331   C332    1.399   .     A
C331   C1186   1.405   1_545 S
C332   H337    1.082   .     S
C332   C1189   1.398   1_545 S
C333   C334    1.397   .     A
C333   H338    1.082   .     S
C333   C1188   1.398   .     S
C334   H339    1.081   .     S
C334   C335    1.396   .     A
C335   H340    1.083   .     S
C341   C346    1.405   .     A
C341   C342    1.405   .     A
C342   H347    1.083   .     S
C342   C343    1.399   .     A
C343   C344    1.398   .     A
C343   H348    1.082   .     S
C344   H349    1.082   .     S
C344   C345    1.397   .     A
C345   H350    1.081   .     S
C345   C346    1.396   .     A
C346   H351    1.083   .     S
C352   C353    1.405   .     A
C352   C357    1.405   .     A
C353   C354    1.399   .     A
C353   H358    1.083   .     S
C354   C355    1.398   .     A
C354   H359    1.082   .     S
C355   C356    1.398   .     A
C355   H360    1.082   .     S
C356   H361    1.081   .     S
C356   C357    1.396   .     A
C357   H362    1.083   .     S
C363   C368    1.405   .     A
C363   C364    1.405   .     A
C364   C365    1.399   .     A
C364   H369    1.083   .     S
C365   C366    1.398   .     A
C365   H370    1.082   .     S
C366   H371    1.082   .     S
C366   C367    1.398   .     A
C367   H372    1.081   .     S
C367   C368    1.396   .     A
C368   H373    1.083   .     S
C374   C375    1.405   .     A
C374   C379    1.405   .     A
C375   C376    1.399   .     A
C375   H380    1.083   .     S
C376   H381    1.082   .     S
C376   C377    1.398   .     A
C377   H382    1.082   .     S
C377   C378    1.397   .     A
C378   C379    1.396   .     A
C378   H383    1.081   .     S
C379   H384    1.083   .     S
C385   C386    1.405   .     A
C385   C390    1.405   .     A
C386   H391    1.083   .     S
C386   C387    1.399   .     A
C387   C388    1.398   .     A
C387   H392    1.082   .     S
C388   H393    1.082   .     S
C388   C389    1.397   .     A
C389   H394    1.081   .     S
C389   C390    1.396   .     A
C390   H395    1.083   .     S
C396   C397    1.405   .     A
C396   C401    1.405   .     A
C397   H402    1.083   .     S
C397   C398    1.399   .     A
C398   C399    1.398   .     A
C398   H403    1.082   .     S
C399   C400    1.398   .     A
C399   H404    1.082   .     S
C400   H405    1.081   .     S
C400   C401    1.396   .     A
C401   H406    1.083   .     S
C407   C408    1.405   .     A
C407   C412    1.405   .     A
C408   C409    1.399   .     A
C408   H413    1.083   .     S
C409   H414    1.082   .     S
C409   C410    1.398   .     A
C410   H415    1.082   .     S
C410   C411    1.398   .     A
C411   H416    1.081   .     S
C411   C412    1.396   .     A
C412   H417    1.083   .     S
C418   C423    1.405   .     A
C418   C419    1.405   .     A
C419   C420    1.399   .     A
C419   H424    1.083   .     S
C420   C421    1.398   .     A
C420   H425    1.082   .     S
C421   H426    1.082   .     S
C421   C422    1.397   .     A
C422   H427    1.081   .     S
C422   C423    1.396   .     A
C423   H428    1.083   .     S
C429   C529    1.403   .     A
C429   C17     1.388   1_655 A
C429   H597    1.082   .     S
C430   C530    1.403   .     A
C430   H598    1.082   .     S
C430   C18     1.388   1_655 S
C431   C1303   1.388   .     A
C431   C531    1.403   .     A
C431   H599    1.082   .     S
C432   C532    1.403   .     A
C432   H600    1.082   .     S
C432   C1304   1.388   .     S
C433   H601    1.082   .     S
C433   C525    1.403   .     A
C433   C445    1.388   .     S
C434   H602    1.082   .     S
C434   C526    1.403   .     A
C434   C446    1.388   .     A
C435   C527    1.403   .     A
C435   H603    1.082   .     S
C435   C447    1.388   .     S
C436   H604    1.082   .     S
C436   C528    1.403   .     A
C436   C448    1.388   .     A
C437   H605    1.082   .     S
C437   C537    1.403   .     A
C437   C449    1.388   .     S
C438   C538    1.403   .     A
C438   H606    1.082   .     S
C438   C1306   1.388   .     S
C439   H607    1.082   .     S
C439   C23     1.388   1_655 A
C439   C539    1.403   .     A
C440   H608    1.082   .     S
C440   C540    1.403   .     A
C440   C452    1.388   .     A
C441   C1305   1.388   .     A
C441   H609    1.082   .     S
C441   C533    1.403   .     A
C442   H610    1.082   .     S
C442   C534    1.403   .     A
C442   C450    1.388   .     A
C443   C535    1.403   .     A
C443   H611    1.082   .     S
C443   C451    1.388   .     S
C444   H612    1.082   .     S
C444   C536    1.403   .     A
C444   C24     1.388   1_655 S
C445   C471    1.446   .     S
C446   C472    1.446   .     S
C447   C1287   1.388   1_545 A
C447   C469    1.446   .     S
C448   C470    1.446   .     S
C448   C1288   1.388   1_545 S
C449   C1297   1.388   1_545 A
C449   C475    1.446   .     S
C450   C476    1.446   .     S
C450   C1294   1.388   1_545 S
C451   C473    1.446   .     S
C452   C474    1.446   .     S
C453   C681    1.490   .     S
C453   C525    1.416   .     A
C454   C692    1.490   .     S
C454   C526    1.416   .     A
C455   C527    1.416   .     A
C455   C703    1.490   .     S
C455   C1316   1.412   1_545 S
C456   C714    1.490   .     S
C456   C528    1.416   .     A
C456   C1315   1.412   1_545 S
C457   C725    1.490   .     S
C457   C529    1.416   .     A
C457   C26     1.412   1_655 S
C458   C736    1.490   .     S
C458   C530    1.416   .     A
C458   C25     1.412   1_655 S
C459   C531    1.416   .     A
C459   C747    1.490   .     S
C459   C1312   1.412   .     S
C460   C532    1.416   .     A
C460   C758    1.490   .     S
C460   C1311   1.412   .     S
C461   C533    1.416   .     A
C461   C769    1.490   .     S
C461   C466    1.412   1_556 S
C462   C534    1.416   .     A
C462   C780    1.490   .     S
C462   C465    1.412   1_554 S
C463   C535    1.416   .     A
C463   C791    1.490   .     S
C463   C468    1.412   1_556 S
C464   C536    1.416   .     A
C464   C802    1.490   .     S
C464   C467    1.412   1_554 S
C465   C537    1.416   .     A
C465   C813    1.490   .     S
C465   C462    1.412   1_556 S
C466   C538    1.416   .     A
C466   C824    1.490   .     S
C466   C461    1.412   1_554 S
C467   C539    1.416   .     A
C467   C835    1.490   .     S
C467   C464    1.412   1_556 S
C468   C540    1.416   .     A
C468   C846    1.490   .     S
C468   C463    1.412   1_554 S
C469   O1473   1.277   1_545 A
C469   O621    1.277   .     S
C470   O618    1.277   .     A
C470   O1478   1.277   1_545 S
C471   O619    1.277   .     S
C472   O624    1.277   .     A
C473   O625    1.277   .     A
C473   O629    1.277   .     A
C474   O626    1.277   .     S
C474   O630    1.277   .     S
C475   O627    1.277   .     S
C475   O631    1.277   .     S
C476   O628    1.277   .     S
C476   O632    1.277   .     S
C477   C543    1.456   .     S
C477   O633    1.280   .     A
C477   O659    1.280   .     A
C478   O660    1.280   .     A
C478   O634    1.280   .     A
C478   C544    1.456   .     S
C479   O635    1.280   .     A
C479   C545    1.456   .     S
C479   O657    1.280   .     A
C480   O658    1.280   .     A
C480   O636    1.280   .     A
C480   C546    1.456   .     S
C481   O637    1.280   .     A
C481   O663    1.280   .     A
C481   C547    1.456   .     S
C482   O664    1.280   .     A
C482   O638    1.280   .     A
C482   C548    1.456   .     S
C483   C541    1.456   .     S
C483   O661    1.280   .     A
C483   O639    1.280   .     A
C484   O662    1.280   .     A
C484   O640    1.280   .     A
C484   C542    1.456   .     S
C485   O641    1.280   .     A
C485   C551    1.456   .     S
C485   O651    1.280   .     A
C486   O642    1.280   .     A
C486   O652    1.280   .     A
C486   C552    1.456   .     S
C487   O643    1.280   .     A
C487   C553    1.456   .     S
C487   O649    1.280   .     A
C488   O650    1.280   .     A
C488   O644    1.280   .     A
C488   C554    1.456   .     S
C489   O655    1.280   .     A
C489   O645    1.280   .     A
C489   C555    1.456   .     S
C490   O656    1.280   .     A
C490   O646    1.280   .     A
C490   C556    1.456   .     S
C491   O647    1.280   .     A
C491   C549    1.456   .     S
C491   O653    1.280   .     A
C492   O654    1.280   .     A
C492   O648    1.280   .     A
C492   C550    1.456   .     S
C493   H565    1.083   .     S
C493   C556    1.402   .     A
C493   C508    1.387   .     A
C494   C507    1.387   .     A
C494   H566    1.083   .     S
C494   C555    1.402   .     A
C495   H567    1.083   .     S
C495   C554    1.402   .     A
C495   C506    1.387   .     A
C496   C505    1.387   .     A
C496   H568    1.083   .     S
C496   C553    1.402   .     A
C497   C504    1.387   .     A
C497   H569    1.083   .     S
C497   C552    1.402   .     A
C498   C503    1.387   .     A
C498   C551    1.402   .     A
C498   H570    1.083   .     S
C499   C550    1.402   .     A
C499   C502    1.387   .     A
C499   H571    1.083   .     S
C500   H572    1.083   .     S
C500   C501    1.387   .     A
C500   C549    1.402   .     A
C501   H573    1.083   .     S
C501   C548    1.402   .     A
C502   H574    1.083   .     S
C502   C547    1.402   .     A
C503   C546    1.402   .     A
C503   H575    1.083   .     S
C504   H576    1.083   .     S
C504   C545    1.402   .     A
C505   H577    1.083   .     S
C505   C544    1.402   .     A
C506   C543    1.402   .     A
C506   H578    1.083   .     S
C507   H579    1.083   .     S
C507   C542    1.402   .     A
C508   C541    1.402   .     A
C508   H580    1.083   .     S
C509   H581    1.083   .     S
C509   C542    1.402   .     A
C509   C524    1.387   .     A
C510   C523    1.387   .     A
C510   C541    1.402   .     A
C510   H582    1.083   .     S
C511   H583    1.083   .     S
C511   C522    1.387   .     A
C511   C544    1.402   .     A
C512   H584    1.083   .     S
C512   C521    1.387   .     A
C512   C543    1.402   .     A
C513   C520    1.387   .     A
C513   H585    1.083   .     S
C513   C546    1.402   .     A
C514   C545    1.402   .     A
C514   C519    1.387   .     A
C514   H586    1.083   .     S
C515   H587    1.083   .     S
C515   C518    1.387   .     A
C515   C548    1.402   .     A
C516   C547    1.402   .     A
C516   H588    1.083   .     S
C516   C517    1.387   .     A
C517   C550    1.402   .     A
C517   H589    1.083   .     S
C518   H590    1.083   .     S
C518   C549    1.402   .     A
C519   H591    1.083   .     S
C519   C552    1.402   .     A
C520   C551    1.402   .     A
C520   H592    1.083   .     S
C521   C554    1.402   .     A
C521   H593    1.083   .     S
C522   C553    1.402   .     A
C522   H594    1.083   .     S
C523   C556    1.402   .     A
C523   H595    1.083   .     S
C524   C555    1.402   .     A
C524   H596    1.083   .     S
C525   C557    1.421   .     S
C526   C558    1.421   .     S
C527   C559    1.421   .     A
C528   C560    1.421   .     A
C529   C129    1.421   1_655 A
C530   C130    1.421   1_655 A
C531   C1415   1.421   .     S
C532   C1416   1.421   .     S
C533   C1417   1.421   .     A
C534   C562    1.421   .     A
C535   C563    1.421   .     S
C536   C136    1.421   1_655 S
C537   C561    1.421   .     S
C538   C1418   1.421   .     S
C539   C135    1.421   1_655 A
C540   C564    1.421   .     A
C557   C558    1.405   .     A
C559   C560    1.405   .     A
C559   C1387   1.421   1_545 S
C560   C1388   1.421   1_545 S
C561   C1389   1.421   1_545 A
C561   C562    1.405   1_556 S
C562   C1394   1.421   1_545 S
C562   C561    1.405   1_554 S
C563   C564    1.405   1_556 S
C564   C563    1.405   1_554 S
O613   Zn665   1.946   .     S
O613   Zn669   1.946   .     S
O613   Zn1536  1.946   1_545 S
O613   Zn676   1.946   .     S
O614   Zn679   1.946   .     S
O614   Zn666   1.946   .     S
O614   Zn670   1.946   .     S
O614   Zn1531  1.946   1_545 S
O615   Zn671   1.946   .     S
O615   Zn667   1.946   .     S
O615   Zn674   1.946   .     S
O616   Zn668   1.946   .     S
O616   Zn672   1.946   .     S
O616   Zn677   1.946   .     S
O617   C1325   1.277   .     A
O617   Zn680   1.940   .     S
O618   Zn679   1.940   .     S
O619   Zn674   1.940   .     S
O620   Zn673   1.940   .     S
O620   C44     1.277   1_655 S
O621   Zn676   1.940   .     S
O622   Zn675   1.940   .     S
O622   C1326   1.277   .     S
O623   C43     1.277   1_655 A
O623   Zn678   1.940   .     S
O624   Zn677   1.940   .     S
O625   Zn672   1.940   .     S
O626   Zn671   1.940   .     S
O627   Zn666   1.940   .     S
O628   Zn665   1.940   .     S
O629   Zn668   1.940   .     S
O630   Zn667   1.940   .     S
O631   Zn670   1.940   .     S
O632   Zn669   1.940   .     S
O633   Zn676   1.938   .     S
O634   Zn675   1.938   .     S
O635   Zn678   1.938   .     S
O636   Zn677   1.938   .     S
O637   Zn680   1.938   .     S
O638   Zn679   1.938   .     S
O639   Zn674   1.938   .     S
O640   Zn673   1.938   .     S
O641   Zn675   1.938   .     S
O642   Zn676   1.938   .     S
O643   Zn673   1.938   .     S
O644   Zn674   1.938   .     S
O645   Zn679   1.938   .     S
O646   Zn680   1.938   .     S
O647   Zn677   1.938   .     S
O648   Zn678   1.938   .     S
O649   Zn240   1.938   1_655 S
O650   Zn667   1.938   .     S
O651   Zn1526  1.938   .     S
O652   Zn669   1.938   .     S
O653   Zn672   1.938   .     S
O654   Zn243   1.938   1_655 S
O655   Zn666   1.938   .     S
O656   Zn1521  1.938   .     S
O657   Zn239   1.938   1_655 S
O658   Zn668   1.938   .     S
O659   Zn665   1.938   .     S
O660   Zn1522  1.938   .     S
O661   Zn671   1.938   .     S
O662   Zn244   1.938   1_655 S
O663   Zn1525  1.938   .     S
O664   Zn670   1.938   .     S
Zn665  O1512   1.938   1_545 S
Zn666  O1516   1.938   1_545 S
Zn669  O1519   1.938   1_545 S
Zn670  O1507   1.938   1_545 S
Zn673  O188    1.946   1_655 S
Zn675  O1470   1.946   .     S
Zn678  O187    1.946   1_655 S
Zn680  O1469   1.946   .     S
C681   C686    1.405   .     A
C682   H687    1.083   .     S
C682   C683    1.399   .     A
C682   C253    1.405   1_655 S
C683   H688    1.082   .     S
C683   C256    1.398   1_655 S
C684   H689    1.082   .     S
C684   C685    1.397   .     A
C685   C686    1.396   .     A
C685   H690    1.081   .     S
C686   H691    1.083   .     S
C692   C697    1.405   .     A
C693   H698    1.083   .     S
C693   C694    1.399   .     A
C693   C264    1.405   1_655 S
C694   H699    1.082   .     S
C694   C267    1.398   1_655 S
C695   H700    1.082   .     S
C695   C696    1.398   .     A
C696   C697    1.396   .     A
C696   H701    1.081   .     S
C697   H702    1.083   .     S
C703   C708    1.405   .     A
C703   C1560   1.405   1_545 S
C704   C705    1.399   .     A
C704   H709    1.083   .     S
C704   C1559   1.405   .     S
C705   H710    1.082   .     S
C705   C1562   1.398   .     S
C706   H711    1.082   .     S
C706   C707    1.398   .     A
C706   C1561   1.398   1_545 S
C707   C708    1.396   .     A
C707   H712    1.081   .     S
C708   H713    1.083   .     S
C714   C719    1.405   .     A
C714   C1571   1.405   1_545 S
C715   H720    1.083   .     S
C715   C716    1.399   .     A
C715   C1570   1.405   .     S
C716   H721    1.082   .     S
C716   C1573   1.398   .     S
C717   C718    1.397   .     A
C717   H722    1.082   .     S
C717   C1572   1.398   1_545 S
C718   C719    1.396   .     A
C718   H723    1.081   .     S
C719   H724    1.083   .     S
C725   C730    1.405   .     A
C725   C298    1.405   1_655 S
C726   C727    1.399   .     A
C726   H731    1.083   .     S
C727   H732    1.082   .     S
C728   C729    1.397   .     A
C728   H733    1.082   .     S
C728   C299    1.398   1_655 S
C729   C730    1.396   .     A
C729   H734    1.081   .     S
C730   H735    1.083   .     S
C736   C741    1.405   .     A
C736   C309    1.405   1_655 S
C737   H742    1.083   .     S
C737   C738    1.399   .     A
C738   H743    1.082   .     S
C739   C740    1.398   .     A
C739   H744    1.082   .     S
C739   C310    1.398   1_655 S
C740   C741    1.396   .     A
C740   H745    1.081   .     S
C741   H746    1.083   .     S
C747   C752    1.405   .     A
C747   C1604   1.405   .     S
C748   H753    1.083   .     S
C748   C749    1.399   .     A
C748   C1603   1.405   1_545 S
C749   H754    1.082   .     S
C749   C1606   1.398   1_545 S
C750   C751    1.398   .     A
C750   H755    1.082   .     S
C750   C1605   1.398   .     S
C751   C752    1.396   .     A
C751   H756    1.081   .     S
C752   H757    1.083   .     S
C758   C763    1.405   .     A
C758   C1615   1.405   .     S
C759   H764    1.083   .     S
C759   C760    1.399   .     A
C759   C1614   1.405   1_545 S
C760   H765    1.082   .     S
C760   C1617   1.398   1_545 S
C761   C762    1.397   .     A
C761   H766    1.082   .     S
C761   C1616   1.398   .     S
C762   H767    1.081   .     S
C762   C763    1.396   .     A
C763   H768    1.083   .     S
C769   C774    1.405   .     A
C769   C770    1.405   .     A
C770   H775    1.083   .     S
C770   C771    1.399   .     A
C771   C772    1.398   .     A
C771   H776    1.082   .     S
C772   H777    1.082   .     S
C772   C773    1.397   .     A
C773   H778    1.081   .     S
C773   C774    1.396   .     A
C774   H779    1.083   .     S
C780   C781    1.405   .     A
C780   C785    1.405   .     A
C781   C782    1.399   .     A
C781   H786    1.083   .     S
C782   C783    1.398   .     A
C782   H787    1.082   .     S
C783   C784    1.398   .     A
C783   H788    1.082   .     S
C784   H789    1.081   .     S
C784   C785    1.396   .     A
C785   H790    1.083   .     S
C791   C796    1.405   .     A
C791   C792    1.405   .     A
C792   C793    1.399   .     A
C792   H797    1.083   .     S
C793   C794    1.398   .     A
C793   H798    1.082   .     S
C794   H799    1.082   .     S
C794   C795    1.398   .     A
C795   H800    1.081   .     S
C795   C796    1.396   .     A
C796   H801    1.083   .     S
C802   C803    1.405   .     A
C802   C807    1.405   .     A
C803   C804    1.399   .     A
C803   H808    1.083   .     S
C804   H809    1.082   .     S
C804   C805    1.398   .     A
C805   H810    1.082   .     S
C805   C806    1.397   .     A
C806   C807    1.396   .     A
C806   H811    1.081   .     S
C807   H812    1.083   .     S
C813   C814    1.405   .     A
C813   C818    1.405   .     A
C814   H819    1.083   .     S
C814   C815    1.399   .     A
C815   C816    1.398   .     A
C815   H820    1.082   .     S
C816   H821    1.082   .     S
C816   C817    1.397   .     A
C817   H822    1.081   .     S
C817   C818    1.396   .     A
C818   H823    1.083   .     S
C824   C825    1.405   .     A
C824   C829    1.405   .     A
C825   H830    1.083   .     S
C825   C826    1.399   .     A
C826   C827    1.398   .     A
C826   H831    1.082   .     S
C827   C828    1.398   .     A
C827   H832    1.082   .     S
C828   H833    1.081   .     S
C828   C829    1.396   .     A
C829   H834    1.083   .     S
C835   C836    1.405   .     A
C835   C840    1.405   .     A
C836   C837    1.399   .     A
C836   H841    1.083   .     S
C837   H842    1.082   .     S
C837   C838    1.398   .     A
C838   H843    1.082   .     S
C838   C839    1.398   .     A
C839   H844    1.081   .     S
C839   C840    1.396   .     A
C840   H845    1.083   .     S
C846   C851    1.405   .     A
C846   C847    1.405   .     A
C847   C848    1.399   .     A
C847   H852    1.083   .     S
C848   C849    1.398   .     A
C848   H853    1.082   .     S
C849   H854    1.082   .     S
C849   C850    1.397   .     A
C850   H855    1.081   .     S
C850   C851    1.396   .     A
C851   H856    1.083   .     S
C857   C957    1.403   .     A
C857   C1301   1.388   .     A
C857   H1025   1.082   .     S
C858   C958    1.403   .     A
C858   H1026   1.082   .     S
C858   C1302   1.388   .     S
C859   C19     1.388   1_565 A
C859   C959    1.403   .     A
C859   H1027   1.082   .     S
C860   C960    1.403   .     A
C860   H1028   1.082   .     S
C860   C20     1.388   1_565 S
C861   H1029   1.082   .     S
C861   C953    1.403   .     A
C861   C873    1.388   .     S
C862   H1030   1.082   .     S
C862   C954    1.403   .     A
C862   C874    1.388   .     A
C863   C955    1.403   .     A
C863   H1031   1.082   .     S
C863   C875    1.388   .     S
C864   H1032   1.082   .     S
C864   C956    1.403   .     A
C864   C876    1.388   .     A
C865   H1033   1.082   .     S
C865   C965    1.403   .     A
C865   C877    1.388   .     S
C866   C966    1.403   .     A
C866   H1034   1.082   .     S
C866   C22     1.388   1_565 S
C867   H1035   1.082   .     S
C867   C1307   1.388   .     A
C867   C967    1.403   .     A
C868   H1036   1.082   .     S
C868   C968    1.403   .     A
C868   C880    1.388   .     A
C869   C21     1.388   1_565 A
C869   H1037   1.082   .     S
C869   C961    1.403   .     A
C870   H1038   1.082   .     S
C870   C962    1.403   .     A
C870   C878    1.388   .     A
C871   C963    1.403   .     A
C871   H1039   1.082   .     S
C871   C879    1.388   .     S
C872   H1040   1.082   .     S
C872   C964    1.403   .     A
C872   C1308   1.388   .     S
C873   C899    1.446   .     S
C873   C1285   1.388   1_455 A
C874   C900    1.446   .     S
C874   C1286   1.388   1_455 S
C875   C897    1.446   .     S
C876   C898    1.446   .     S
C877   C903    1.446   .     S
C878   C904    1.446   .     S
C879   C1295   1.388   1_455 A
C879   C901    1.446   .     S
C880   C902    1.446   .     S
C880   C1300   1.388   1_455 S
C881   C1109   1.490   .     S
C881   C953    1.416   .     A
C881   C1314   1.412   1_455 S
C882   C1120   1.490   .     S
C882   C954    1.416   .     A
C882   C1313   1.412   1_455 S
C883   C955    1.416   .     A
C883   C1131   1.490   .     S
C884   C1142   1.490   .     S
C884   C956    1.416   .     A
C885   C1153   1.490   .     S
C885   C957    1.416   .     A
C885   C1310   1.412   .     S
C886   C1164   1.490   .     S
C886   C958    1.416   .     A
C886   C1309   1.412   .     S
C887   C959    1.416   .     A
C887   C1175   1.490   .     S
C887   C28     1.412   1_565 S
C888   C960    1.416   .     A
C888   C1186   1.490   .     S
C888   C27     1.412   1_565 S
C889   C961    1.416   .     A
C889   C1197   1.490   .     S
C889   C894    1.412   1_556 S
C890   C962    1.416   .     A
C890   C1208   1.490   .     S
C890   C893    1.412   1_554 S
C891   C963    1.416   .     A
C891   C1219   1.490   .     S
C891   C896    1.412   1_556 S
C892   C964    1.416   .     A
C892   C1230   1.490   .     S
C892   C895    1.412   1_554 S
C893   C965    1.416   .     A
C893   C1241   1.490   .     S
C893   C890    1.412   1_556 S
C894   C966    1.416   .     A
C894   C1252   1.490   .     S
C894   C889    1.412   1_554 S
C895   C967    1.416   .     A
C895   C1263   1.490   .     S
C895   C892    1.412   1_556 S
C896   C968    1.416   .     A
C896   C1274   1.490   .     S
C896   C891    1.412   1_554 S
C897   O1049   1.277   .     S
C898   O1046   1.277   .     A
C899   O1479   1.277   1_455 A
C899   O1047   1.277   .     S
C900   O1052   1.277   .     A
C900   O1476   1.277   1_455 S
C901   O1053   1.277   .     A
C901   O1057   1.277   .     A
C902   O1054   1.277   .     S
C902   O1058   1.277   .     S
C903   O1055   1.277   .     S
C903   O1059   1.277   .     S
C904   O1056   1.277   .     S
C904   O1060   1.277   .     S
C905   C971    1.456   .     S
C905   O1061   1.280   .     A
C905   O1087   1.280   .     A
C906   O1088   1.280   .     A
C906   O1062   1.280   .     A
C906   C972    1.456   .     S
C907   O1063   1.280   .     A
C907   C973    1.456   .     S
C907   O1085   1.280   .     A
C908   O1086   1.280   .     A
C908   O1064   1.280   .     A
C908   C974    1.456   .     S
C909   O1065   1.280   .     A
C909   O1091   1.280   .     A
C909   C975    1.456   .     S
C910   O1092   1.280   .     A
C910   O1066   1.280   .     A
C910   C976    1.456   .     S
C911   C969    1.456   .     S
C911   O1089   1.280   .     A
C911   O1067   1.280   .     A
C912   O1090   1.280   .     A
C912   O1068   1.280   .     A
C912   C970    1.456   .     S
C913   O1069   1.280   .     A
C913   C979    1.456   .     S
C913   O1079   1.280   .     A
C914   O1070   1.280   .     A
C914   O1080   1.280   .     A
C914   C980    1.456   .     S
C915   O1071   1.280   .     A
C915   C981    1.456   .     S
C915   O1077   1.280   .     A
C916   O1078   1.280   .     A
C916   O1072   1.280   .     A
C916   C982    1.456   .     S
C917   O1083   1.280   .     A
C917   O1073   1.280   .     A
C917   C983    1.456   .     S
C918   O1084   1.280   .     A
C918   O1074   1.280   .     A
C918   C984    1.456   .     S
C919   O1075   1.280   .     A
C919   C977    1.456   .     S
C919   O1081   1.280   .     A
C920   O1082   1.280   .     A
C920   O1076   1.280   .     A
C920   C978    1.456   .     S
C921   H993    1.083   .     S
C921   C984    1.402   .     A
C921   C936    1.387   .     A
C922   C935    1.387   .     A
C922   H994    1.083   .     S
C922   C983    1.402   .     A
C923   H995    1.083   .     S
C923   C982    1.402   .     A
C923   C934    1.387   .     A
C924   C933    1.387   .     A
C924   H996    1.083   .     S
C924   C981    1.402   .     A
C925   C932    1.387   .     A
C925   H997    1.083   .     S
C925   C980    1.402   .     A
C926   C931    1.387   .     A
C926   C979    1.402   .     A
C926   H998    1.083   .     S
C927   C978    1.402   .     A
C927   C930    1.387   .     A
C927   H999    1.083   .     S
C928   H1000   1.083   .     S
C928   C929    1.387   .     A
C928   C977    1.402   .     A
C929   H1001   1.083   .     S
C929   C976    1.402   .     A
C930   H1002   1.083   .     S
C930   C975    1.402   .     A
C931   C974    1.402   .     A
C931   H1003   1.083   .     S
C932   H1004   1.083   .     S
C932   C973    1.402   .     A
C933   H1005   1.083   .     S
C933   C972    1.402   .     A
C934   C971    1.402   .     A
C934   H1006   1.083   .     S
C935   H1007   1.083   .     S
C935   C970    1.402   .     A
C936   C969    1.402   .     A
C936   H1008   1.083   .     S
C937   H1009   1.083   .     S
C937   C970    1.402   .     A
C937   C952    1.387   .     A
C938   C951    1.387   .     A
C938   C969    1.402   .     A
C938   H1010   1.083   .     S
C939   H1011   1.083   .     S
C939   C950    1.387   .     A
C939   C972    1.402   .     A
C940   H1012   1.083   .     S
C940   C949    1.387   .     A
C940   C971    1.402   .     A
C941   C948    1.387   .     A
C941   H1013   1.083   .     S
C941   C974    1.402   .     A
C942   C973    1.402   .     A
C942   C947    1.387   .     A
C942   H1014   1.083   .     S
C943   H1015   1.083   .     S
C943   C946    1.387   .     A
C943   C976    1.402   .     A
C944   C975    1.402   .     A
C944   H1016   1.083   .     S
C944   C945    1.387   .     A
C945   C978    1.402   .     A
C945   H1017   1.083   .     S
C946   H1018   1.083   .     S
C946   C977    1.402   .     A
C947   H1019   1.083   .     S
C947   C980    1.402   .     A
C948   C979    1.402   .     A
C948   H1020   1.083   .     S
C949   C982    1.402   .     A
C949   H1021   1.083   .     S
C950   C981    1.402   .     A
C950   H1022   1.083   .     S
C951   C984    1.402   .     A
C951   H1023   1.083   .     S
C952   C983    1.402   .     A
C952   H1024   1.083   .     S
C953   C985    1.421   .     S
C954   C986    1.421   .     S
C955   C987    1.421   .     A
C956   C988    1.421   .     A
C957   C1413   1.421   .     A
C958   C1414   1.421   .     A
C959   C131    1.421   1_565 S
C960   C132    1.421   1_565 S
C961   C133    1.421   1_565 A
C962   C990    1.421   .     A
C963   C991    1.421   .     S
C964   C1420   1.421   .     S
C965   C989    1.421   .     S
C966   C134    1.421   1_565 S
C967   C1419   1.421   .     A
C968   C992    1.421   .     A
C985   C986    1.405   .     A
C985   C1385   1.421   1_455 A
C986   C1386   1.421   1_455 A
C987   C988    1.405   .     A
C989   C990    1.405   1_556 S
C990   C989    1.405   1_554 S
C991   C1395   1.421   1_455 A
C991   C992    1.405   1_556 S
C992   C1392   1.421   1_455 S
C992   C991    1.405   1_554 S
O1041  Zn1093  1.946   .     S
O1041  Zn1097  1.946   .     S
O1041  Zn1104  1.946   .     S
O1042  Zn1107  1.946   .     S
O1042  Zn1094  1.946   .     S
O1042  Zn1098  1.946   .     S
O1043  Zn1099  1.946   .     S
O1043  Zn1534  1.946   1_455 S
O1043  Zn1095  1.946   .     S
O1043  Zn1102  1.946   .     S
O1044  Zn1096  1.946   .     S
O1044  Zn1529  1.946   1_455 S
O1044  Zn1100  1.946   .     S
O1044  Zn1105  1.946   .     S
O1045  C41     1.277   1_565 A
O1045  Zn1108  1.940   .     S
O1046  Zn1107  1.940   .     S
O1047  Zn1102  1.940   .     S
O1048  Zn1101  1.940   .     S
O1048  C1328   1.277   .     S
O1049  Zn1104  1.940   .     S
O1050  Zn1103  1.940   .     S
O1050  C42     1.277   1_565 S
O1051  C1327   1.277   .     A
O1051  Zn1106  1.940   .     S
O1052  Zn1105  1.940   .     S
O1053  Zn1100  1.940   .     S
O1054  Zn1099  1.940   .     S
O1055  Zn1094  1.940   .     S
O1056  Zn1093  1.940   .     S
O1057  Zn1096  1.940   .     S
O1058  Zn1095  1.940   .     S
O1059  Zn1098  1.940   .     S
O1060  Zn1097  1.940   .     S
O1061  Zn1104  1.938   .     S
O1062  Zn1103  1.938   .     S
O1063  Zn1106  1.938   .     S
O1064  Zn1105  1.938   .     S
O1065  Zn1108  1.938   .     S
O1066  Zn1107  1.938   .     S
O1067  Zn1102  1.938   .     S
O1068  Zn1101  1.938   .     S
O1069  Zn1103  1.938   .     S
O1070  Zn1104  1.938   .     S
O1071  Zn1101  1.938   .     S
O1072  Zn1102  1.938   .     S
O1073  Zn1107  1.938   .     S
O1074  Zn1108  1.938   .     S
O1075  Zn1105  1.938   .     S
O1076  Zn1106  1.938   .     S
O1077  Zn1524  1.938   .     S
O1078  Zn1095  1.938   .     S
O1079  Zn242   1.938   1_565 S
O1080  Zn1097  1.938   .     S
O1081  Zn1100  1.938   .     S
O1082  Zn1527  1.938   .     S
O1083  Zn1094  1.938   .     S
O1084  Zn237   1.938   1_565 S
O1085  Zn1523  1.938   .     S
O1086  Zn1096  1.938   .     S
O1087  Zn1093  1.938   .     S
O1088  Zn238   1.938   1_565 S
O1089  Zn1099  1.938   .     S
O1090  Zn1528  1.938   .     S
O1091  Zn241   1.938   1_565 S
O1092  Zn1098  1.938   .     S
Zn1095 O1513   1.938   1_455 S
Zn1096 O1505   1.938   1_455 S
Zn1099 O1510   1.938   1_455 S
Zn1100 O1518   1.938   1_455 S
Zn1101 O1472   1.946   .     S
Zn1103 O186    1.946   1_565 S
Zn1106 O1471   1.946   .     S
Zn1108 O185    1.946   1_565 S
C1109  C1114   1.405   .     A
C1109  C1538   1.405   1_455 S
C1110  H1115   1.083   .     S
C1110  C1111   1.399   .     A
C1110  C1537   1.405   .     S
C1111  H1116   1.082   .     S
C1111  C1540   1.398   .     S
C1112  H1117   1.082   .     S
C1112  C1113   1.397   .     A
C1112  C1539   1.398   1_455 S
C1113  C1114   1.396   .     A
C1113  H1118   1.081   .     S
C1114  H1119   1.083   .     S
C1120  C1125   1.405   .     A
C1120  C1549   1.405   1_455 S
C1121  H1126   1.083   .     S
C1121  C1122   1.399   .     A
C1121  C1548   1.405   .     S
C1122  H1127   1.082   .     S
C1122  C1551   1.398   .     S
C1123  H1128   1.082   .     S
C1123  C1124   1.398   .     A
C1123  C1550   1.398   1_455 S
C1124  C1125   1.396   .     A
C1124  H1129   1.081   .     S
C1125  H1130   1.083   .     S
C1131  C1136   1.405   .     A
C1132  C1133   1.399   .     A
C1132  H1137   1.083   .     S
C1132  C275    1.405   1_565 S
C1133  H1138   1.082   .     S
C1133  C278    1.398   1_565 S
C1134  H1139   1.082   .     S
C1134  C1135   1.398   .     A
C1135  C1136   1.396   .     A
C1135  H1140   1.081   .     S
C1136  H1141   1.083   .     S
C1142  C1147   1.405   .     A
C1143  H1148   1.083   .     S
C1143  C1144   1.399   .     A
C1143  C286    1.405   1_565 S
C1144  H1149   1.082   .     S
C1144  C289    1.398   1_565 S
C1145  C1146   1.397   .     A
C1145  H1150   1.082   .     S
C1146  C1147   1.396   .     A
C1146  H1151   1.081   .     S
C1147  H1152   1.083   .     S
C1153  C1158   1.405   .     A
C1153  C1582   1.405   .     S
C1154  C1155   1.399   .     A
C1154  H1159   1.083   .     S
C1154  C1581   1.405   1_455 S
C1155  H1160   1.082   .     S
C1155  C1584   1.398   1_455 S
C1156  C1157   1.397   .     A
C1156  H1161   1.082   .     S
C1156  C1583   1.398   .     S
C1157  C1158   1.396   .     A
C1157  H1162   1.081   .     S
C1158  H1163   1.083   .     S
C1164  C1169   1.405   .     A
C1164  C1593   1.405   .     S
C1165  H1170   1.083   .     S
C1165  C1166   1.399   .     A
C1165  C1592   1.405   1_455 S
C1166  H1171   1.082   .     S
C1166  C1595   1.398   1_455 S
C1167  C1168   1.398   .     A
C1167  H1172   1.082   .     S
C1167  C1594   1.398   .     S
C1168  C1169   1.396   .     A
C1168  H1173   1.081   .     S
C1169  H1174   1.083   .     S
C1175  C1180   1.405   .     A
C1175  C320    1.405   1_565 S
C1176  H1181   1.083   .     S
C1176  C1177   1.399   .     A
C1177  H1182   1.082   .     S
C1178  C1179   1.398   .     A
C1178  H1183   1.082   .     S
C1178  C321    1.398   1_565 S
C1179  C1180   1.396   .     A
C1179  H1184   1.081   .     S
C1180  H1185   1.083   .     S
C1186  C1191   1.405   .     A
C1186  C331    1.405   1_565 S
C1187  H1192   1.083   .     S
C1187  C1188   1.399   .     A
C1188  H1193   1.082   .     S
C1189  C1190   1.397   .     A
C1189  H1194   1.082   .     S
C1189  C332    1.398   1_565 S
C1190  H1195   1.081   .     S
C1190  C1191   1.396   .     A
C1191  H1196   1.083   .     S
C1197  C1202   1.405   .     A
C1197  C1198   1.405   .     A
C1198  H1203   1.083   .     S
C1198  C1199   1.399   .     A
C1199  C1200   1.398   .     A
C1199  H1204   1.082   .     S
C1200  H1205   1.082   .     S
C1200  C1201   1.397   .     A
C1201  H1206   1.081   .     S
C1201  C1202   1.396   .     A
C1202  H1207   1.083   .     S
C1208  C1209   1.405   .     A
C1208  C1213   1.405   .     A
C1209  C1210   1.399   .     A
C1209  H1214   1.083   .     S
C1210  C1211   1.398   .     A
C1210  H1215   1.082   .     S
C1211  C1212   1.398   .     A
C1211  H1216   1.082   .     S
C1212  H1217   1.081   .     S
C1212  C1213   1.396   .     A
C1213  H1218   1.083   .     S
C1219  C1224   1.405   .     A
C1219  C1220   1.405   .     A
C1220  C1221   1.399   .     A
C1220  H1225   1.083   .     S
C1221  C1222   1.398   .     A
C1221  H1226   1.082   .     S
C1222  H1227   1.082   .     S
C1222  C1223   1.398   .     A
C1223  H1228   1.081   .     S
C1223  C1224   1.396   .     A
C1224  H1229   1.083   .     S
C1230  C1231   1.405   .     A
C1230  C1235   1.405   .     A
C1231  C1232   1.399   .     A
C1231  H1236   1.083   .     S
C1232  H1237   1.082   .     S
C1232  C1233   1.398   .     A
C1233  H1238   1.082   .     S
C1233  C1234   1.397   .     A
C1234  C1235   1.396   .     A
C1234  H1239   1.081   .     S
C1235  H1240   1.083   .     S
C1241  C1242   1.405   .     A
C1241  C1246   1.405   .     A
C1242  H1247   1.083   .     S
C1242  C1243   1.399   .     A
C1243  C1244   1.398   .     A
C1243  H1248   1.082   .     S
C1244  H1249   1.082   .     S
C1244  C1245   1.397   .     A
C1245  H1250   1.081   .     S
C1245  C1246   1.396   .     A
C1246  H1251   1.083   .     S
C1252  C1253   1.405   .     A
C1252  C1257   1.405   .     A
C1253  H1258   1.083   .     S
C1253  C1254   1.399   .     A
C1254  C1255   1.398   .     A
C1254  H1259   1.082   .     S
C1255  C1256   1.398   .     A
C1255  H1260   1.082   .     S
C1256  H1261   1.081   .     S
C1256  C1257   1.396   .     A
C1257  H1262   1.083   .     S
C1263  C1264   1.405   .     A
C1263  C1268   1.405   .     A
C1264  C1265   1.399   .     A
C1264  H1269   1.083   .     S
C1265  H1270   1.082   .     S
C1265  C1266   1.398   .     A
C1266  H1271   1.082   .     S
C1266  C1267   1.398   .     A
C1267  H1272   1.081   .     S
C1267  C1268   1.396   .     A
C1268  H1273   1.083   .     S
C1274  C1279   1.405   .     A
C1274  C1275   1.405   .     A
C1275  C1276   1.399   .     A
C1275  H1280   1.083   .     S
C1276  C1277   1.398   .     A
C1276  H1281   1.082   .     S
C1277  H1282   1.082   .     S
C1277  C1278   1.397   .     A
C1278  H1283   1.081   .     S
C1278  C1279   1.396   .     A
C1279  H1284   1.083   .     S
C1285  C1385   1.403   .     A
C1285  C873    1.388   1_655 A
C1285  H1453   1.082   .     S
C1286  C1386   1.403   .     A
C1286  H1454   1.082   .     S
C1286  C874    1.388   1_655 S
C1287  C447    1.388   1_565 A
C1287  C1387   1.403   .     A
C1287  H1455   1.082   .     S
C1288  C1388   1.403   .     A
C1288  H1456   1.082   .     S
C1288  C448    1.388   1_565 S
C1289  H1457   1.082   .     S
C1289  C1381   1.403   .     A
C1289  C1301   1.388   .     S
C1290  H1458   1.082   .     S
C1290  C1382   1.403   .     A
C1290  C1302   1.388   .     A
C1291  C1383   1.403   .     A
C1291  H1459   1.082   .     S
C1291  C1303   1.388   .     S
C1292  H1460   1.082   .     S
C1292  C1384   1.403   .     A
C1292  C1304   1.388   .     A
C1293  H1461   1.082   .     S
C1293  C1393   1.403   .     A
C1293  C1305   1.388   .     S
C1294  C1394   1.403   .     A
C1294  H1462   1.082   .     S
C1294  C450    1.388   1_565 S
C1295  H1463   1.082   .     S
C1295  C879    1.388   1_655 A
C1295  C1395   1.403   .     A
C1296  H1464   1.082   .     S
C1296  C1396   1.403   .     A
C1296  C1308   1.388   .     A
C1297  C449    1.388   1_565 A
C1297  H1465   1.082   .     S
C1297  C1389   1.403   .     A
C1298  H1466   1.082   .     S
C1298  C1390   1.403   .     A
C1298  C1306   1.388   .     A
C1299  C1391   1.403   .     A
C1299  H1467   1.082   .     S
C1299  C1307   1.388   .     S
C1300  H1468   1.082   .     S
C1300  C1392   1.403   .     A
C1300  C880    1.388   1_655 S
C1301  C1327   1.446   .     S
C1302  C1328   1.446   .     S
C1303  C1325   1.446   .     S
C1304  C1326   1.446   .     S
C1305  C1331   1.446   .     S
C1306  C1332   1.446   .     S
C1307  C1329   1.446   .     S
C1308  C1330   1.446   .     S
C1309  C1537   1.490   .     S
C1309  C1381   1.416   .     A
C1310  C1548   1.490   .     S
C1310  C1382   1.416   .     A
C1311  C1383   1.416   .     A
C1311  C1559   1.490   .     S
C1312  C1570   1.490   .     S
C1312  C1384   1.416   .     A
C1313  C1581   1.490   .     S
C1313  C1385   1.416   .     A
C1313  C882    1.412   1_655 S
C1314  C1592   1.490   .     S
C1314  C1386   1.416   .     A
C1314  C881    1.412   1_655 S
C1315  C1387   1.416   .     A
C1315  C1603   1.490   .     S
C1315  C456    1.412   1_565 S
C1316  C1388   1.416   .     A
C1316  C1614   1.490   .     S
C1316  C455    1.412   1_565 S
C1317  C1389   1.416   .     A
C1317  C1625   1.490   .     S
C1317  C1322   1.412   1_556 S
C1318  C1390   1.416   .     A
C1318  C1636   1.490   .     S
C1318  C1321   1.412   1_554 S
C1319  C1391   1.416   .     A
C1319  C1647   1.490   .     S
C1319  C1324   1.412   1_556 S
C1320  C1392   1.416   .     A
C1320  C1658   1.490   .     S
C1320  C1323   1.412   1_554 S
C1321  C1393   1.416   .     A
C1321  C1669   1.490   .     S
C1321  C1318   1.412   1_556 S
C1322  C1394   1.416   .     A
C1322  C1680   1.490   .     S
C1322  C1317   1.412   1_554 S
C1323  C1395   1.416   .     A
C1323  C1691   1.490   .     S
C1323  C1320   1.412   1_556 S
C1324  C1396   1.416   .     A
C1324  C1702   1.490   .     S
C1324  C1319   1.412   1_554 S
C1325  O1477   1.277   .     S
C1326  O1474   1.277   .     A
C1327  O1475   1.277   .     S
C1328  O1480   1.277   .     A
C1329  O1481   1.277   .     A
C1329  O1485   1.277   .     A
C1330  O1482   1.277   .     S
C1330  O1486   1.277   .     S
C1331  O1483   1.277   .     S
C1331  O1487   1.277   .     S
C1332  O1484   1.277   .     S
C1332  O1488   1.277   .     S
C1333  C1399   1.456   .     S
C1333  O1489   1.280   .     A
C1333  O1515   1.280   .     A
C1334  O1516   1.280   .     A
C1334  O1490   1.280   .     A
C1334  C1400   1.456   .     S
C1335  O1491   1.280   .     A
C1335  C1401   1.456   .     S
C1335  O1513   1.280   .     A
C1336  O1514   1.280   .     A
C1336  O1492   1.280   .     A
C1336  C1402   1.456   .     S
C1337  O1493   1.280   .     A
C1337  O1519   1.280   .     A
C1337  C1403   1.456   .     S
C1338  O1520   1.280   .     A
C1338  O1494   1.280   .     A
C1338  C1404   1.456   .     S
C1339  C1397   1.456   .     S
C1339  O1517   1.280   .     A
C1339  O1495   1.280   .     A
C1340  O1518   1.280   .     A
C1340  O1496   1.280   .     A
C1340  C1398   1.456   .     S
C1341  O1497   1.280   .     A
C1341  C1407   1.456   .     S
C1341  O1507   1.280   .     A
C1342  O1498   1.280   .     A
C1342  O1508   1.280   .     A
C1342  C1408   1.456   .     S
C1343  O1499   1.280   .     A
C1343  C1409   1.456   .     S
C1343  O1505   1.280   .     A
C1344  O1506   1.280   .     A
C1344  O1500   1.280   .     A
C1344  C1410   1.456   .     S
C1345  O1511   1.280   .     A
C1345  O1501   1.280   .     A
C1345  C1411   1.456   .     S
C1346  O1512   1.280   .     A
C1346  O1502   1.280   .     A
C1346  C1412   1.456   .     S
C1347  O1503   1.280   .     A
C1347  C1405   1.456   .     S
C1347  O1509   1.280   .     A
C1348  O1510   1.280   .     A
C1348  O1504   1.280   .     A
C1348  C1406   1.456   .     S
C1349  H1421   1.083   .     S
C1349  C1412   1.402   .     A
C1349  C1364   1.387   .     A
C1350  C1363   1.387   .     A
C1350  H1422   1.083   .     S
C1350  C1411   1.402   .     A
C1351  H1423   1.083   .     S
C1351  C1410   1.402   .     A
C1351  C1362   1.387   .     A
C1352  C1361   1.387   .     A
C1352  H1424   1.083   .     S
C1352  C1409   1.402   .     A
C1353  C1360   1.387   .     A
C1353  H1425   1.083   .     S
C1353  C1408   1.402   .     A
C1354  C1359   1.387   .     A
C1354  C1407   1.402   .     A
C1354  H1426   1.083   .     S
C1355  C1406   1.402   .     A
C1355  C1358   1.387   .     A
C1355  H1427   1.083   .     S
C1356  H1428   1.083   .     S
C1356  C1357   1.387   .     A
C1356  C1405   1.402   .     A
C1357  H1429   1.083   .     S
C1357  C1404   1.402   .     A
C1358  H1430   1.083   .     S
C1358  C1403   1.402   .     A
C1359  C1402   1.402   .     A
C1359  H1431   1.083   .     S
C1360  H1432   1.083   .     S
C1360  C1401   1.402   .     A
C1361  H1433   1.083   .     S
C1361  C1400   1.402   .     A
C1362  C1399   1.402   .     A
C1362  H1434   1.083   .     S
C1363  H1435   1.083   .     S
C1363  C1398   1.402   .     A
C1364  C1397   1.402   .     A
C1364  H1436   1.083   .     S
C1365  H1437   1.083   .     S
C1365  C1398   1.402   .     A
C1365  C1380   1.387   .     A
C1366  C1379   1.387   .     A
C1366  C1397   1.402   .     A
C1366  H1438   1.083   .     S
C1367  H1439   1.083   .     S
C1367  C1378   1.387   .     A
C1367  C1400   1.402   .     A
C1368  H1440   1.083   .     S
C1368  C1377   1.387   .     A
C1368  C1399   1.402   .     A
C1369  C1376   1.387   .     A
C1369  H1441   1.083   .     S
C1369  C1402   1.402   .     A
C1370  C1401   1.402   .     A
C1370  C1375   1.387   .     A
C1370  H1442   1.083   .     S
C1371  H1443   1.083   .     S
C1371  C1374   1.387   .     A
C1371  C1404   1.402   .     A
C1372  C1403   1.402   .     A
C1372  H1444   1.083   .     S
C1372  C1373   1.387   .     A
C1373  C1406   1.402   .     A
C1373  H1445   1.083   .     S
C1374  H1446   1.083   .     S
C1374  C1405   1.402   .     A
C1375  H1447   1.083   .     S
C1375  C1408   1.402   .     A
C1376  C1407   1.402   .     A
C1376  H1448   1.083   .     S
C1377  C1410   1.402   .     A
C1377  H1449   1.083   .     S
C1378  C1409   1.402   .     A
C1378  H1450   1.083   .     S
C1379  C1412   1.402   .     A
C1379  H1451   1.083   .     S
C1380  C1411   1.402   .     A
C1380  H1452   1.083   .     S
C1381  C1413   1.421   .     S
C1382  C1414   1.421   .     S
C1383  C1415   1.421   .     A
C1384  C1416   1.421   .     A
C1385  C985    1.421   1_655 A
C1386  C986    1.421   1_655 A
C1387  C559    1.421   1_565 S
C1388  C560    1.421   1_565 S
C1389  C561    1.421   1_565 A
C1390  C1418   1.421   .     A
C1391  C1419   1.421   .     S
C1392  C992    1.421   1_655 S
C1393  C1417   1.421   .     S
C1394  C562    1.421   1_565 S
C1395  C991    1.421   1_655 A
C1396  C1420   1.421   .     A
C1413  C1414   1.405   .     A
C1415  C1416   1.405   .     A
C1417  C1418   1.405   1_556 S
C1418  C1417   1.405   1_554 S
C1419  C1420   1.405   1_556 S
C1420  C1419   1.405   1_554 S
O1469  Zn1521  1.946   .     S
O1469  Zn1525  1.946   .     S
O1469  Zn1532  1.946   .     S
O1470  Zn1535  1.946   .     S
O1470  Zn1522  1.946   .     S
O1470  Zn1526  1.946   .     S
O1471  Zn1527  1.946   .     S
O1471  Zn1523  1.946   .     S
O1471  Zn1530  1.946   .     S
O1472  Zn1524  1.946   .     S
O1472  Zn1528  1.946   .     S
O1472  Zn1533  1.946   .     S
O1473  C469    1.277   1_565 A
O1473  Zn1536  1.940   .     S
O1474  Zn1535  1.940   .     S
O1475  Zn1530  1.940   .     S
O1476  Zn1529  1.940   .     S
O1476  C900    1.277   1_655 S
O1477  Zn1532  1.940   .     S
O1478  Zn1531  1.940   .     S
O1478  C470    1.277   1_565 S
O1479  C899    1.277   1_655 A
O1479  Zn1534  1.940   .     S
O1480  Zn1533  1.940   .     S
O1481  Zn1528  1.940   .     S
O1482  Zn1527  1.940   .     S
O1483  Zn1522  1.940   .     S
O1484  Zn1521  1.940   .     S
O1485  Zn1524  1.940   .     S
O1486  Zn1523  1.940   .     S
O1487  Zn1526  1.940   .     S
O1488  Zn1525  1.940   .     S
O1489  Zn1532  1.938   .     S
O1490  Zn1531  1.938   .     S
O1491  Zn1534  1.938   .     S
O1492  Zn1533  1.938   .     S
O1493  Zn1536  1.938   .     S
O1494  Zn1535  1.938   .     S
O1495  Zn1530  1.938   .     S
O1496  Zn1529  1.938   .     S
O1497  Zn1531  1.938   .     S
O1498  Zn1532  1.938   .     S
O1499  Zn1529  1.938   .     S
O1500  Zn1530  1.938   .     S
O1501  Zn1535  1.938   .     S
O1502  Zn1536  1.938   .     S
O1503  Zn1533  1.938   .     S
O1504  Zn1534  1.938   .     S
O1505  Zn1096  1.938   1_655 S
O1506  Zn1523  1.938   .     S
O1507  Zn670   1.938   1_565 S
O1508  Zn1525  1.938   .     S
O1509  Zn1528  1.938   .     S
O1510  Zn1099  1.938   1_655 S
O1511  Zn1522  1.938   .     S
O1512  Zn665   1.938   1_565 S
O1513  Zn1095  1.938   1_655 S
O1514  Zn1524  1.938   .     S
O1515  Zn1521  1.938   .     S
O1516  Zn666   1.938   1_565 S
O1517  Zn1527  1.938   .     S
O1518  Zn1100  1.938   1_655 S
O1519  Zn669   1.938   1_565 S
O1520  Zn1526  1.938   .     S
Zn1529 O1044   1.946   1_655 S
Zn1531 O614    1.946   1_565 S
Zn1534 O1043   1.946   1_655 S
Zn1536 O613    1.946   1_565 S
C1537  C1542   1.405   .     A
C1538  H1543   1.083   .     S
C1538  C1539   1.399   .     A
C1538  C1109   1.405   1_655 S
C1539  H1544   1.082   .     S
C1539  C1112   1.398   1_655 S
C1540  H1545   1.082   .     S
C1540  C1541   1.397   .     A
C1541  C1542   1.396   .     A
C1541  H1546   1.081   .     S
C1542  H1547   1.083   .     S
C1548  C1553   1.405   .     A
C1549  H1554   1.083   .     S
C1549  C1550   1.399   .     A
C1549  C1120   1.405   1_655 S
C1550  H1555   1.082   .     S
C1550  C1123   1.398   1_655 S
C1551  H1556   1.082   .     S
C1551  C1552   1.398   .     A
C1552  C1553   1.396   .     A
C1552  H1557   1.081   .     S
C1553  H1558   1.083   .     S
C1559  C1564   1.405   .     A
C1560  C1561   1.399   .     A
C1560  H1565   1.083   .     S
C1560  C703    1.405   1_565 S
C1561  H1566   1.082   .     S
C1561  C706    1.398   1_565 S
C1562  H1567   1.082   .     S
C1562  C1563   1.398   .     A
C1563  C1564   1.396   .     A
C1563  H1568   1.081   .     S
C1564  H1569   1.083   .     S
C1570  C1575   1.405   .     A
C1571  H1576   1.083   .     S
C1571  C1572   1.399   .     A
C1571  C714    1.405   1_565 S
C1572  H1577   1.082   .     S
C1572  C717    1.398   1_565 S
C1573  C1574   1.397   .     A
C1573  H1578   1.082   .     S
C1574  C1575   1.396   .     A
C1574  H1579   1.081   .     S
C1575  H1580   1.083   .     S
C1581  C1586   1.405   .     A
C1581  C1154   1.405   1_655 S
C1582  C1583   1.399   .     A
C1582  H1587   1.083   .     S
C1583  H1588   1.082   .     S
C1584  C1585   1.397   .     A
C1584  H1589   1.082   .     S
C1584  C1155   1.398   1_655 S
C1585  C1586   1.396   .     A
C1585  H1590   1.081   .     S
C1586  H1591   1.083   .     S
C1592  C1597   1.405   .     A
C1592  C1165   1.405   1_655 S
C1593  H1598   1.083   .     S
C1593  C1594   1.399   .     A
C1594  H1599   1.082   .     S
C1595  C1596   1.398   .     A
C1595  H1600   1.082   .     S
C1595  C1166   1.398   1_655 S
C1596  C1597   1.396   .     A
C1596  H1601   1.081   .     S
C1597  H1602   1.083   .     S
C1603  C1608   1.405   .     A
C1603  C748    1.405   1_565 S
C1604  H1609   1.083   .     S
C1604  C1605   1.399   .     A
C1605  H1610   1.082   .     S
C1606  C1607   1.398   .     A
C1606  H1611   1.082   .     S
C1606  C749    1.398   1_565 S
C1607  C1608   1.396   .     A
C1607  H1612   1.081   .     S
C1608  H1613   1.083   .     S
C1614  C1619   1.405   .     A
C1614  C759    1.405   1_565 S
C1615  H1620   1.083   .     S
C1615  C1616   1.399   .     A
C1616  H1621   1.082   .     S
C1617  C1618   1.397   .     A
C1617  H1622   1.082   .     S
C1617  C760    1.398   1_565 S
C1618  H1623   1.081   .     S
C1618  C1619   1.396   .     A
C1619  H1624   1.083   .     S
C1625  C1630   1.405   .     A
C1625  C1626   1.405   .     A
C1626  H1631   1.083   .     S
C1626  C1627   1.399   .     A
C1627  C1628   1.398   .     A
C1627  H1632   1.082   .     S
C1628  H1633   1.082   .     S
C1628  C1629   1.397   .     A
C1629  H1634   1.081   .     S
C1629  C1630   1.396   .     A
C1630  H1635   1.083   .     S
C1636  C1637   1.405   .     A
C1636  C1641   1.405   .     A
C1637  C1638   1.399   .     A
C1637  H1642   1.083   .     S
C1638  C1639   1.398   .     A
C1638  H1643   1.082   .     S
C1639  C1640   1.398   .     A
C1639  H1644   1.082   .     S
C1640  H1645   1.081   .     S
C1640  C1641   1.396   .     A
C1641  H1646   1.083   .     S
C1647  C1652   1.405   .     A
C1647  C1648   1.405   .     A
C1648  C1649   1.399   .     A
C1648  H1653   1.083   .     S
C1649  C1650   1.398   .     A
C1649  H1654   1.082   .     S
C1650  H1655   1.082   .     S
C1650  C1651   1.398   .     A
C1651  H1656   1.081   .     S
C1651  C1652   1.396   .     A
C1652  H1657   1.083   .     S
C1658  C1659   1.405   .     A
C1658  C1663   1.405   .     A
C1659  C1660   1.399   .     A
C1659  H1664   1.083   .     S
C1660  H1665   1.082   .     S
C1660  C1661   1.398   .     A
C1661  H1666   1.082   .     S
C1661  C1662   1.397   .     A
C1662  C1663   1.396   .     A
C1662  H1667   1.081   .     S
C1663  H1668   1.083   .     S
C1669  C1670   1.405   .     A
C1669  C1674   1.405   .     A
C1670  H1675   1.083   .     S
C1670  C1671   1.399   .     A
C1671  C1672   1.398   .     A
C1671  H1676   1.082   .     S
C1672  H1677   1.082   .     S
C1672  C1673   1.397   .     A
C1673  H1678   1.081   .     S
C1673  C1674   1.396   .     A
C1674  H1679   1.083   .     S
C1680  C1681   1.405   .     A
C1680  C1685   1.405   .     A
C1681  H1686   1.083   .     S
C1681  C1682   1.399   .     A
C1682  C1683   1.398   .     A
C1682  H1687   1.082   .     S
C1683  C1684   1.398   .     A
C1683  H1688   1.082   .     S
C1684  H1689   1.081   .     S
C1684  C1685   1.396   .     A
C1685  H1690   1.083   .     S
C1691  C1692   1.405   .     A
C1691  C1696   1.405   .     A
C1692  C1693   1.399   .     A
C1692  H1697   1.083   .     S
C1693  H1698   1.082   .     S
C1693  C1694   1.398   .     A
C1694  H1699   1.082   .     S
C1694  C1695   1.398   .     A
C1695  H1700   1.081   .     S
C1695  C1696   1.396   .     A
C1696  H1701   1.083   .     S
C1702  C1707   1.405   .     A
C1702  C1703   1.405   .     A
C1703  C1704   1.399   .     A
C1703  H1708   1.083   .     S
C1704  C1705   1.398   .     A
C1704  H1709   1.082   .     S
C1705  H1710   1.082   .     S
C1705  C1706   1.397   .     A
C1706  H1711   1.081   .     S
C1706  C1707   1.396   .     A
C1707  H1712   1.083   .     S
