data_str_m3_o10_o18_pcu_sym.37
_audit_creation_date              2020-01-03
_audit_creation_method            'Materials Studio'
_symmetry_space_group_name_H-M    'P1'
_symmetry_Int_Tables_number       1
_symmetry_cell_setting            triclinic
loop_
_symmetry_equiv_pos_as_xyz
  x,y,z
_cell_length_a                    23.6882
_cell_length_b                    25.6773
_cell_length_c                    27.4290
_cell_angle_alpha                 93.8359
_cell_angle_beta                  92.9775
_cell_angle_gamma                 94.1007
loop_
_atom_site_label
_atom_site_type_symbol
_atom_site_fract_x
_atom_site_fract_y
_atom_site_fract_z
_atom_site_U_iso_or_equiv
_atom_site_adp_type
_atom_site_occupancy
Br1    Br    0.13991   0.19949   0.12687   0.00000  Uiso   1.00
Br2    Br    0.19342   0.13385   0.37313   0.00000  Uiso   1.00
C3     C     0.01495   0.26479   0.24880   0.00000  Uiso   1.00
C4     C     0.31250   0.16289   0.15897   0.00000  Uiso   1.00
C5     C     0.03120   0.17767   0.39363   0.00000  Uiso   1.00
C6     C     0.30213   0.15567   0.10637   0.00000  Uiso   1.00
C7     C     0.02190   0.22688   0.47020   0.00000  Uiso   1.00
C8     C     0.31143   0.10645   0.02980   0.00000  Uiso   1.00
C9     C     0.00272   0.21360   0.42186   0.00000  Uiso   1.00
C10    C     0.33062   0.11973   0.07814   0.00000  Uiso   1.00
C11    C     0.07657   0.15401   0.41421   0.00000  Uiso   1.00
C12    C     0.25676   0.17932   0.08579   0.00000  Uiso   1.00
C13    C     0.10300   0.17409   0.45870   0.00000  Uiso   1.00
C14    C     0.31839   0.06854   0.25120   0.00000  Uiso   1.00
C15    C     0.23034   0.15925   0.04130   0.00000  Uiso   1.00
C16    C     0.07232   0.20780   0.48857   0.00000  Uiso   1.00
C17    C     0.26101   0.12553   0.01143   0.00000  Uiso   1.00
C18    C     0.15748   0.16011   0.47498   0.00000  Uiso   1.00
C19    C     0.17585   0.17322   0.02502   0.00000  Uiso   1.00
C20    C     0.16180   0.10124   0.22321   0.00000  Uiso   1.00
C21    C     0.17153   0.23209   0.27680   0.00000  Uiso   1.00
C22    C     0.13832   0.19882   0.05656   0.00000  Uiso   1.00
C23    C     0.19502   0.13451   0.44344   0.00000  Uiso   1.00
C24    C     0.09011   0.21930   0.03714   0.00000  Uiso   1.00
C25    C     0.24322   0.11404   0.46286   0.00000  Uiso   1.00
C26    C     0.02262   0.31935   0.24781   0.00000  Uiso   1.00
C27    C     0.31072   0.01398   0.25219   0.00000  Uiso   1.00
C28    C     0.02083   0.17044   0.34103   0.00000  Uiso   1.00
H29    H     0.06369   0.24086   0.06118   0.00000  Uiso   1.00
H30    H     0.26812   0.33041   0.25672   0.00000  Uiso   1.00
H31    H     0.18731   0.05192   0.16989   0.00000  Uiso   1.00
H32    H     0.14603   0.28142   0.33011   0.00000  Uiso   1.00
H33    H     0.26965   0.09247   0.43882   0.00000  Uiso   1.00
H34    H     0.24277   0.21327   0.10542   0.00000  Uiso   1.00
H35    H     0.09057   0.12007   0.39458   0.00000  Uiso   1.00
H36    H     0.03342   0.10161   0.09353   0.00000  Uiso   1.00
H37    H     0.29991   0.23173   0.40647   0.00000  Uiso   1.00
H38    H     0.33182   0.25310   0.49268   0.00000  Uiso   1.00
H39    H     0.00152   0.08023   0.00732   0.00000  Uiso   1.00
H40    H     0.06521   0.00293   0.24328   0.00000  Uiso   1.00
N41    N     0.14695   0.15216   0.23740   0.00000  Uiso   1.00
N42    N     0.18638   0.18117   0.26261   0.00000  Uiso   1.00
O43    O     0.29719   0.24631   0.25310   0.00000  Uiso   1.00
O44    O     0.17809   0.08970   0.17571   0.00000  Uiso   1.00
O45    O     0.17493   0.26625   0.24789   0.00000  Uiso   1.00
O46    O     0.15526   0.24363   0.32429   0.00000  Uiso   1.00
O47    O     0.03614   0.08702   0.24690   0.00000  Uiso   1.00
O48    O     0.05822   0.23702   0.24502   0.00000  Uiso   1.00
O49    O     0.27512   0.09632   0.25499   0.00000  Uiso   1.00
O50    O     0.30328   0.17397   0.32247   0.00000  Uiso   1.00
O51    O     0.03005   0.15937   0.17753   0.00000  Uiso   1.00
O52    O     0.06431   0.16467   0.31439   0.00000  Uiso   1.00
O53    O     0.26902   0.16866   0.18561   0.00000  Uiso   1.00
O54    O     0.15840   0.06708   0.25211   0.00000  Uiso   1.00
Zn55   Zn    0.27033   0.17287   0.25540   0.00000  Uiso   1.00
Zn56   Zn    0.06300   0.16046   0.24461   0.00000  Uiso   1.00
Br57   Br    0.47325   0.19949   0.12687   0.00000  Uiso   1.00
Br58   Br    0.52675   0.13385   0.37313   0.00000  Uiso   1.00
C59    C     0.34828   0.26479   0.24880   0.00000  Uiso   1.00
C60    C     0.64583   0.16289   0.15897   0.00000  Uiso   1.00
C61    C     0.36454   0.17767   0.39363   0.00000  Uiso   1.00
C62    C     0.63546   0.15567   0.10637   0.00000  Uiso   1.00
C63    C     0.35524   0.22688   0.47020   0.00000  Uiso   1.00
C64    C     0.64476   0.10645   0.02980   0.00000  Uiso   1.00
C65    C     0.33605   0.21360   0.42186   0.00000  Uiso   1.00
C66    C     0.66395   0.11973   0.07814   0.00000  Uiso   1.00
C67    C     0.40991   0.15401   0.41421   0.00000  Uiso   1.00
C68    C     0.59009   0.17932   0.08579   0.00000  Uiso   1.00
C69    C     0.43633   0.17409   0.45870   0.00000  Uiso   1.00
C70    C     0.65172   0.06854   0.25120   0.00000  Uiso   1.00
C71    C     0.56367   0.15925   0.04130   0.00000  Uiso   1.00
C72    C     0.40566   0.20780   0.48857   0.00000  Uiso   1.00
C73    C     0.59434   0.12553   0.01143   0.00000  Uiso   1.00
C74    C     0.49081   0.16011   0.47498   0.00000  Uiso   1.00
C75    C     0.50919   0.17322   0.02502   0.00000  Uiso   1.00
C76    C     0.49514   0.10124   0.22321   0.00000  Uiso   1.00
C77    C     0.50487   0.23209   0.27680   0.00000  Uiso   1.00
C78    C     0.47165   0.19882   0.05656   0.00000  Uiso   1.00
C79    C     0.52835   0.13451   0.44344   0.00000  Uiso   1.00
C80    C     0.42345   0.21930   0.03714   0.00000  Uiso   1.00
C81    C     0.57655   0.11404   0.46286   0.00000  Uiso   1.00
C82    C     0.35595   0.31935   0.24781   0.00000  Uiso   1.00
C83    C     0.64405   0.01398   0.25219   0.00000  Uiso   1.00
C84    C     0.35417   0.17044   0.34103   0.00000  Uiso   1.00
H85    H     0.39702   0.24086   0.06118   0.00000  Uiso   1.00
H86    H     0.60146   0.33041   0.25672   0.00000  Uiso   1.00
H87    H     0.52065   0.05192   0.16989   0.00000  Uiso   1.00
H88    H     0.47936   0.28142   0.33011   0.00000  Uiso   1.00
H89    H     0.60298   0.09247   0.43882   0.00000  Uiso   1.00
H90    H     0.57610   0.21327   0.10542   0.00000  Uiso   1.00
H91    H     0.42390   0.12007   0.39458   0.00000  Uiso   1.00
H92    H     0.36675   0.10161   0.09353   0.00000  Uiso   1.00
H93    H     0.63325   0.23173   0.40647   0.00000  Uiso   1.00
H94    H     0.66515   0.25310   0.49268   0.00000  Uiso   1.00
H95    H     0.33485   0.08023   0.00732   0.00000  Uiso   1.00
H96    H     0.39854   0.00293   0.24328   0.00000  Uiso   1.00
N97    N     0.48029   0.15216   0.23740   0.00000  Uiso   1.00
N98    N     0.51971   0.18117   0.26261   0.00000  Uiso   1.00
O99    O     0.63052   0.24631   0.25310   0.00000  Uiso   1.00
O100   O     0.51142   0.08970   0.17571   0.00000  Uiso   1.00
O101   O     0.50827   0.26625   0.24789   0.00000  Uiso   1.00
O102   O     0.48859   0.24363   0.32429   0.00000  Uiso   1.00
O103   O     0.36948   0.08702   0.24690   0.00000  Uiso   1.00
O104   O     0.39155   0.23702   0.24502   0.00000  Uiso   1.00
O105   O     0.60845   0.09632   0.25499   0.00000  Uiso   1.00
O106   O     0.63662   0.17397   0.32247   0.00000  Uiso   1.00
O107   O     0.36338   0.15937   0.17753   0.00000  Uiso   1.00
O108   O     0.39764   0.16467   0.31439   0.00000  Uiso   1.00
O109   O     0.60236   0.16866   0.18561   0.00000  Uiso   1.00
O110   O     0.49173   0.06708   0.25211   0.00000  Uiso   1.00
Zn111  Zn    0.60366   0.17287   0.25540   0.00000  Uiso   1.00
Zn112  Zn    0.39634   0.16046   0.24461   0.00000  Uiso   1.00
Br113  Br    0.80658   0.19949   0.12687   0.00000  Uiso   1.00
Br114  Br    0.86009   0.13385   0.37313   0.00000  Uiso   1.00
C115   C     0.68161   0.26479   0.24880   0.00000  Uiso   1.00
C116   C     0.97917   0.16289   0.15897   0.00000  Uiso   1.00
C117   C     0.69787   0.17767   0.39363   0.00000  Uiso   1.00
C118   C     0.96880   0.15567   0.10637   0.00000  Uiso   1.00
C119   C     0.68857   0.22688   0.47020   0.00000  Uiso   1.00
C120   C     0.97810   0.10645   0.02980   0.00000  Uiso   1.00
C121   C     0.66938   0.21360   0.42186   0.00000  Uiso   1.00
C122   C     0.99728   0.11973   0.07814   0.00000  Uiso   1.00
C123   C     0.74324   0.15401   0.41421   0.00000  Uiso   1.00
C124   C     0.92343   0.17932   0.08579   0.00000  Uiso   1.00
C125   C     0.76966   0.17409   0.45870   0.00000  Uiso   1.00
C126   C     0.98506   0.06854   0.25120   0.00000  Uiso   1.00
C127   C     0.89700   0.15925   0.04130   0.00000  Uiso   1.00
C128   C     0.73899   0.20780   0.48857   0.00000  Uiso   1.00
C129   C     0.92768   0.12553   0.01143   0.00000  Uiso   1.00
C130   C     0.82415   0.16011   0.47498   0.00000  Uiso   1.00
C131   C     0.84252   0.17322   0.02502   0.00000  Uiso   1.00
C132   C     0.82847   0.10124   0.22321   0.00000  Uiso   1.00
C133   C     0.83820   0.23209   0.27680   0.00000  Uiso   1.00
C134   C     0.80498   0.19882   0.05656   0.00000  Uiso   1.00
C135   C     0.86168   0.13451   0.44344   0.00000  Uiso   1.00
C136   C     0.75678   0.21930   0.03714   0.00000  Uiso   1.00
C137   C     0.90989   0.11404   0.46286   0.00000  Uiso   1.00
C138   C     0.68928   0.31935   0.24781   0.00000  Uiso   1.00
C139   C     0.97738   0.01398   0.25219   0.00000  Uiso   1.00
C140   C     0.68750   0.17044   0.34103   0.00000  Uiso   1.00
H141   H     0.73035   0.24086   0.06118   0.00000  Uiso   1.00
H142   H     0.93479   0.33041   0.25672   0.00000  Uiso   1.00
H143   H     0.85398   0.05192   0.16989   0.00000  Uiso   1.00
H144   H     0.81270   0.28142   0.33011   0.00000  Uiso   1.00
H145   H     0.93631   0.09247   0.43882   0.00000  Uiso   1.00
H146   H     0.90943   0.21327   0.10542   0.00000  Uiso   1.00
H147   H     0.75723   0.12007   0.39458   0.00000  Uiso   1.00
H148   H     0.70009   0.10161   0.09353   0.00000  Uiso   1.00
H149   H     0.96658   0.23173   0.40647   0.00000  Uiso   1.00
H150   H     0.99848   0.25310   0.49268   0.00000  Uiso   1.00
H151   H     0.66818   0.08023   0.00732   0.00000  Uiso   1.00
H152   H     0.73188   0.00293   0.24328   0.00000  Uiso   1.00
N153   N     0.81362   0.15216   0.23740   0.00000  Uiso   1.00
N154   N     0.85305   0.18117   0.26261   0.00000  Uiso   1.00
O155   O     0.96386   0.24631   0.25310   0.00000  Uiso   1.00
O156   O     0.84476   0.08970   0.17571   0.00000  Uiso   1.00
O157   O     0.84160   0.26625   0.24789   0.00000  Uiso   1.00
O158   O     0.82192   0.24363   0.32429   0.00000  Uiso   1.00
O159   O     0.70281   0.08702   0.24690   0.00000  Uiso   1.00
O160   O     0.72488   0.23702   0.24502   0.00000  Uiso   1.00
O161   O     0.94178   0.09632   0.25499   0.00000  Uiso   1.00
O162   O     0.96995   0.17397   0.32247   0.00000  Uiso   1.00
O163   O     0.69672   0.15937   0.17753   0.00000  Uiso   1.00
O164   O     0.73098   0.16467   0.31439   0.00000  Uiso   1.00
O165   O     0.93569   0.16866   0.18561   0.00000  Uiso   1.00
O166   O     0.82506   0.06708   0.25211   0.00000  Uiso   1.00
Zn167  Zn    0.93700   0.17287   0.25540   0.00000  Uiso   1.00
Zn168  Zn    0.72967   0.16046   0.24461   0.00000  Uiso   1.00
Br169  Br    0.13991   0.53282   0.12687   0.00000  Uiso   1.00
Br170  Br    0.19342   0.46718   0.37313   0.00000  Uiso   1.00
C171   C     0.01495   0.59812   0.24880   0.00000  Uiso   1.00
C172   C     0.31250   0.49623   0.15897   0.00000  Uiso   1.00
C173   C     0.03120   0.51100   0.39363   0.00000  Uiso   1.00
C174   C     0.30213   0.48900   0.10637   0.00000  Uiso   1.00
C175   C     0.02190   0.56022   0.47020   0.00000  Uiso   1.00
C176   C     0.31143   0.43978   0.02980   0.00000  Uiso   1.00
C177   C     0.00272   0.54694   0.42186   0.00000  Uiso   1.00
C178   C     0.33062   0.45306   0.07814   0.00000  Uiso   1.00
C179   C     0.07657   0.48735   0.41421   0.00000  Uiso   1.00
C180   C     0.25676   0.51265   0.08579   0.00000  Uiso   1.00
C181   C     0.10300   0.50742   0.45870   0.00000  Uiso   1.00
C182   C     0.31839   0.40188   0.25120   0.00000  Uiso   1.00
C183   C     0.23034   0.49258   0.04130   0.00000  Uiso   1.00
C184   C     0.07232   0.54114   0.48857   0.00000  Uiso   1.00
C185   C     0.26101   0.45886   0.01143   0.00000  Uiso   1.00
C186   C     0.15748   0.49345   0.47498   0.00000  Uiso   1.00
C187   C     0.17585   0.50655   0.02502   0.00000  Uiso   1.00
C188   C     0.16180   0.43458   0.22321   0.00000  Uiso   1.00
C189   C     0.17153   0.56542   0.27680   0.00000  Uiso   1.00
C190   C     0.13832   0.53216   0.05656   0.00000  Uiso   1.00
C191   C     0.19502   0.46784   0.44344   0.00000  Uiso   1.00
C192   C     0.09011   0.55263   0.03714   0.00000  Uiso   1.00
C193   C     0.24322   0.44737   0.46286   0.00000  Uiso   1.00
C194   C     0.02262   0.65269   0.24781   0.00000  Uiso   1.00
C195   C     0.31072   0.34731   0.25219   0.00000  Uiso   1.00
C196   C     0.02083   0.50377   0.34103   0.00000  Uiso   1.00
H197   H     0.06369   0.57420   0.06118   0.00000  Uiso   1.00
H198   H     0.26812   0.66374   0.25672   0.00000  Uiso   1.00
H199   H     0.18731   0.38525   0.16989   0.00000  Uiso   1.00
H200   H     0.14603   0.61475   0.33011   0.00000  Uiso   1.00
H201   H     0.26965   0.42580   0.43882   0.00000  Uiso   1.00
H202   H     0.24277   0.54660   0.10542   0.00000  Uiso   1.00
H203   H     0.09057   0.45340   0.39458   0.00000  Uiso   1.00
H204   H     0.03342   0.43494   0.09353   0.00000  Uiso   1.00
H205   H     0.29991   0.56506   0.40647   0.00000  Uiso   1.00
H206   H     0.33182   0.58644   0.49268   0.00000  Uiso   1.00
H207   H     0.00152   0.41356   0.00732   0.00000  Uiso   1.00
H208   H     0.06521   0.33626   0.24328   0.00000  Uiso   1.00
N209   N     0.14695   0.48550   0.23740   0.00000  Uiso   1.00
N210   N     0.18638   0.51450   0.26261   0.00000  Uiso   1.00
O211   O     0.29719   0.57964   0.25310   0.00000  Uiso   1.00
O212   O     0.17809   0.42304   0.17571   0.00000  Uiso   1.00
O213   O     0.17493   0.59958   0.24789   0.00000  Uiso   1.00
O214   O     0.15526   0.57697   0.32429   0.00000  Uiso   1.00
O215   O     0.03614   0.42036   0.24690   0.00000  Uiso   1.00
O216   O     0.05822   0.57035   0.24502   0.00000  Uiso   1.00
O217   O     0.27512   0.42965   0.25499   0.00000  Uiso   1.00
O218   O     0.30328   0.50730   0.32247   0.00000  Uiso   1.00
O219   O     0.03005   0.49270   0.17753   0.00000  Uiso   1.00
O220   O     0.06431   0.49801   0.31439   0.00000  Uiso   1.00
O221   O     0.26902   0.50199   0.18561   0.00000  Uiso   1.00
O222   O     0.15840   0.40042   0.25211   0.00000  Uiso   1.00
Zn223  Zn    0.27033   0.50621   0.25540   0.00000  Uiso   1.00
Zn224  Zn    0.06300   0.49379   0.24461   0.00000  Uiso   1.00
Br225  Br    0.47325   0.53282   0.12687   0.00000  Uiso   1.00
Br226  Br    0.52675   0.46718   0.37313   0.00000  Uiso   1.00
C227   C     0.34828   0.59812   0.24880   0.00000  Uiso   1.00
C228   C     0.64583   0.49623   0.15897   0.00000  Uiso   1.00
C229   C     0.36454   0.51100   0.39363   0.00000  Uiso   1.00
C230   C     0.63546   0.48900   0.10637   0.00000  Uiso   1.00
C231   C     0.35524   0.56022   0.47020   0.00000  Uiso   1.00
C232   C     0.64476   0.43978   0.02980   0.00000  Uiso   1.00
C233   C     0.33605   0.54694   0.42186   0.00000  Uiso   1.00
C234   C     0.66395   0.45306   0.07814   0.00000  Uiso   1.00
C235   C     0.40991   0.48735   0.41421   0.00000  Uiso   1.00
C236   C     0.59009   0.51265   0.08579   0.00000  Uiso   1.00
C237   C     0.43633   0.50742   0.45870   0.00000  Uiso   1.00
C238   C     0.65172   0.40188   0.25120   0.00000  Uiso   1.00
C239   C     0.56367   0.49258   0.04130   0.00000  Uiso   1.00
C240   C     0.40566   0.54114   0.48857   0.00000  Uiso   1.00
C241   C     0.59434   0.45886   0.01143   0.00000  Uiso   1.00
C242   C     0.49081   0.49345   0.47498   0.00000  Uiso   1.00
C243   C     0.50919   0.50655   0.02502   0.00000  Uiso   1.00
C244   C     0.49514   0.43458   0.22321   0.00000  Uiso   1.00
C245   C     0.50487   0.56542   0.27680   0.00000  Uiso   1.00
C246   C     0.47165   0.53216   0.05656   0.00000  Uiso   1.00
C247   C     0.52835   0.46784   0.44344   0.00000  Uiso   1.00
C248   C     0.42345   0.55263   0.03714   0.00000  Uiso   1.00
C249   C     0.57655   0.44737   0.46286   0.00000  Uiso   1.00
C250   C     0.35595   0.65269   0.24781   0.00000  Uiso   1.00
C251   C     0.64405   0.34731   0.25219   0.00000  Uiso   1.00
C252   C     0.35417   0.50377   0.34103   0.00000  Uiso   1.00
H253   H     0.39702   0.57420   0.06118   0.00000  Uiso   1.00
H254   H     0.60146   0.66374   0.25672   0.00000  Uiso   1.00
H255   H     0.52065   0.38525   0.16989   0.00000  Uiso   1.00
H256   H     0.47936   0.61475   0.33011   0.00000  Uiso   1.00
H257   H     0.60298   0.42580   0.43882   0.00000  Uiso   1.00
H258   H     0.57610   0.54660   0.10542   0.00000  Uiso   1.00
H259   H     0.42390   0.45340   0.39458   0.00000  Uiso   1.00
H260   H     0.36675   0.43494   0.09353   0.00000  Uiso   1.00
H261   H     0.63325   0.56506   0.40647   0.00000  Uiso   1.00
H262   H     0.66515   0.58644   0.49268   0.00000  Uiso   1.00
H263   H     0.33485   0.41356   0.00732   0.00000  Uiso   1.00
H264   H     0.39854   0.33626   0.24328   0.00000  Uiso   1.00
N265   N     0.48029   0.48550   0.23740   0.00000  Uiso   1.00
N266   N     0.51971   0.51450   0.26261   0.00000  Uiso   1.00
O267   O     0.63052   0.57964   0.25310   0.00000  Uiso   1.00
O268   O     0.51142   0.42304   0.17571   0.00000  Uiso   1.00
O269   O     0.50827   0.59958   0.24789   0.00000  Uiso   1.00
O270   O     0.48859   0.57697   0.32429   0.00000  Uiso   1.00
O271   O     0.36948   0.42036   0.24690   0.00000  Uiso   1.00
O272   O     0.39155   0.57035   0.24502   0.00000  Uiso   1.00
O273   O     0.60845   0.42965   0.25499   0.00000  Uiso   1.00
O274   O     0.63662   0.50730   0.32247   0.00000  Uiso   1.00
O275   O     0.36338   0.49270   0.17753   0.00000  Uiso   1.00
O276   O     0.39764   0.49801   0.31439   0.00000  Uiso   1.00
O277   O     0.60236   0.50199   0.18561   0.00000  Uiso   1.00
O278   O     0.49173   0.40042   0.25211   0.00000  Uiso   1.00
Zn279  Zn    0.60366   0.50621   0.25540   0.00000  Uiso   1.00
Zn280  Zn    0.39634   0.49379   0.24461   0.00000  Uiso   1.00
Br281  Br    0.80658   0.53282   0.12687   0.00000  Uiso   1.00
Br282  Br    0.86009   0.46718   0.37313   0.00000  Uiso   1.00
C283   C     0.68161   0.59812   0.24880   0.00000  Uiso   1.00
C284   C     0.97917   0.49623   0.15897   0.00000  Uiso   1.00
C285   C     0.69787   0.51100   0.39363   0.00000  Uiso   1.00
C286   C     0.96880   0.48900   0.10637   0.00000  Uiso   1.00
C287   C     0.68857   0.56022   0.47020   0.00000  Uiso   1.00
C288   C     0.97810   0.43978   0.02980   0.00000  Uiso   1.00
C289   C     0.66938   0.54694   0.42186   0.00000  Uiso   1.00
C290   C     0.99728   0.45306   0.07814   0.00000  Uiso   1.00
C291   C     0.74324   0.48735   0.41421   0.00000  Uiso   1.00
C292   C     0.92343   0.51265   0.08579   0.00000  Uiso   1.00
C293   C     0.76966   0.50742   0.45870   0.00000  Uiso   1.00
C294   C     0.98506   0.40188   0.25120   0.00000  Uiso   1.00
C295   C     0.89700   0.49258   0.04130   0.00000  Uiso   1.00
C296   C     0.73899   0.54114   0.48857   0.00000  Uiso   1.00
C297   C     0.92768   0.45886   0.01143   0.00000  Uiso   1.00
C298   C     0.82415   0.49345   0.47498   0.00000  Uiso   1.00
C299   C     0.84252   0.50655   0.02502   0.00000  Uiso   1.00
C300   C     0.82847   0.43458   0.22321   0.00000  Uiso   1.00
C301   C     0.83820   0.56542   0.27680   0.00000  Uiso   1.00
C302   C     0.80498   0.53216   0.05656   0.00000  Uiso   1.00
C303   C     0.86168   0.46784   0.44344   0.00000  Uiso   1.00
C304   C     0.75678   0.55263   0.03714   0.00000  Uiso   1.00
C305   C     0.90989   0.44737   0.46286   0.00000  Uiso   1.00
C306   C     0.68928   0.65269   0.24781   0.00000  Uiso   1.00
C307   C     0.97738   0.34731   0.25219   0.00000  Uiso   1.00
C308   C     0.68750   0.50377   0.34103   0.00000  Uiso   1.00
H309   H     0.73035   0.57420   0.06118   0.00000  Uiso   1.00
H310   H     0.93479   0.66374   0.25672   0.00000  Uiso   1.00
H311   H     0.85398   0.38525   0.16989   0.00000  Uiso   1.00
H312   H     0.81270   0.61475   0.33011   0.00000  Uiso   1.00
H313   H     0.93631   0.42580   0.43882   0.00000  Uiso   1.00
H314   H     0.90943   0.54660   0.10542   0.00000  Uiso   1.00
H315   H     0.75723   0.45340   0.39458   0.00000  Uiso   1.00
H316   H     0.70009   0.43494   0.09353   0.00000  Uiso   1.00
H317   H     0.96658   0.56506   0.40647   0.00000  Uiso   1.00
H318   H     0.99848   0.58644   0.49268   0.00000  Uiso   1.00
H319   H     0.66818   0.41356   0.00732   0.00000  Uiso   1.00
H320   H     0.73188   0.33626   0.24328   0.00000  Uiso   1.00
N321   N     0.81362   0.48550   0.23740   0.00000  Uiso   1.00
N322   N     0.85305   0.51450   0.26261   0.00000  Uiso   1.00
O323   O     0.96386   0.57964   0.25310   0.00000  Uiso   1.00
O324   O     0.84476   0.42304   0.17571   0.00000  Uiso   1.00
O325   O     0.84160   0.59958   0.24789   0.00000  Uiso   1.00
O326   O     0.82192   0.57697   0.32429   0.00000  Uiso   1.00
O327   O     0.70281   0.42036   0.24690   0.00000  Uiso   1.00
O328   O     0.72488   0.57035   0.24502   0.00000  Uiso   1.00
O329   O     0.94178   0.42965   0.25499   0.00000  Uiso   1.00
O330   O     0.96995   0.50730   0.32247   0.00000  Uiso   1.00
O331   O     0.69672   0.49270   0.17753   0.00000  Uiso   1.00
O332   O     0.73098   0.49801   0.31439   0.00000  Uiso   1.00
O333   O     0.93569   0.50199   0.18561   0.00000  Uiso   1.00
O334   O     0.82506   0.40042   0.25211   0.00000  Uiso   1.00
Zn335  Zn    0.93700   0.50621   0.25540   0.00000  Uiso   1.00
Zn336  Zn    0.72967   0.49379   0.24461   0.00000  Uiso   1.00
Br337  Br    0.13991   0.86615   0.12687   0.00000  Uiso   1.00
Br338  Br    0.19342   0.80051   0.37313   0.00000  Uiso   1.00
C339   C     0.01495   0.93146   0.24880   0.00000  Uiso   1.00
C340   C     0.31250   0.82956   0.15897   0.00000  Uiso   1.00
C341   C     0.03120   0.84433   0.39363   0.00000  Uiso   1.00
C342   C     0.30213   0.82233   0.10637   0.00000  Uiso   1.00
C343   C     0.02190   0.89355   0.47020   0.00000  Uiso   1.00
C344   C     0.31143   0.77312   0.02980   0.00000  Uiso   1.00
C345   C     0.00272   0.88027   0.42186   0.00000  Uiso   1.00
C346   C     0.33062   0.78640   0.07814   0.00000  Uiso   1.00
C347   C     0.07657   0.82068   0.41421   0.00000  Uiso   1.00
C348   C     0.25676   0.84599   0.08579   0.00000  Uiso   1.00
C349   C     0.10300   0.84075   0.45870   0.00000  Uiso   1.00
C350   C     0.31839   0.73521   0.25120   0.00000  Uiso   1.00
C351   C     0.23034   0.82591   0.04130   0.00000  Uiso   1.00
C352   C     0.07232   0.87447   0.48857   0.00000  Uiso   1.00
C353   C     0.26101   0.79219   0.01143   0.00000  Uiso   1.00
C354   C     0.15748   0.82678   0.47498   0.00000  Uiso   1.00
C355   C     0.17585   0.83989   0.02502   0.00000  Uiso   1.00
C356   C     0.16180   0.76791   0.22321   0.00000  Uiso   1.00
C357   C     0.17153   0.89876   0.27680   0.00000  Uiso   1.00
C358   C     0.13832   0.86549   0.05656   0.00000  Uiso   1.00
C359   C     0.19502   0.80118   0.44344   0.00000  Uiso   1.00
C360   C     0.09011   0.88596   0.03714   0.00000  Uiso   1.00
C361   C     0.24322   0.78070   0.46286   0.00000  Uiso   1.00
C362   C     0.02262   0.98602   0.24781   0.00000  Uiso   1.00
C363   C     0.31072   0.68065   0.25219   0.00000  Uiso   1.00
C364   C     0.02083   0.83711   0.34103   0.00000  Uiso   1.00
H365   H     0.06369   0.90753   0.06118   0.00000  Uiso   1.00
H366   H     0.26812   0.99707   0.25672   0.00000  Uiso   1.00
H367   H     0.18731   0.71858   0.16989   0.00000  Uiso   1.00
H368   H     0.14603   0.94809   0.33011   0.00000  Uiso   1.00
H369   H     0.26965   0.75914   0.43882   0.00000  Uiso   1.00
H370   H     0.24277   0.87993   0.10542   0.00000  Uiso   1.00
H371   H     0.09057   0.78673   0.39458   0.00000  Uiso   1.00
H372   H     0.03342   0.76827   0.09353   0.00000  Uiso   1.00
H373   H     0.29991   0.89839   0.40647   0.00000  Uiso   1.00
H374   H     0.33182   0.91977   0.49268   0.00000  Uiso   1.00
H375   H     0.00152   0.74690   0.00732   0.00000  Uiso   1.00
H376   H     0.06521   0.66959   0.24328   0.00000  Uiso   1.00
N377   N     0.14695   0.81883   0.23740   0.00000  Uiso   1.00
N378   N     0.18638   0.84784   0.26261   0.00000  Uiso   1.00
O379   O     0.29719   0.91298   0.25310   0.00000  Uiso   1.00
O380   O     0.17809   0.75637   0.17571   0.00000  Uiso   1.00
O381   O     0.17493   0.93292   0.24789   0.00000  Uiso   1.00
O382   O     0.15526   0.91030   0.32429   0.00000  Uiso   1.00
O383   O     0.03614   0.75369   0.24690   0.00000  Uiso   1.00
O384   O     0.05822   0.90368   0.24502   0.00000  Uiso   1.00
O385   O     0.27512   0.76298   0.25499   0.00000  Uiso   1.00
O386   O     0.30328   0.84063   0.32247   0.00000  Uiso   1.00
O387   O     0.03005   0.82603   0.17753   0.00000  Uiso   1.00
O388   O     0.06431   0.83134   0.31439   0.00000  Uiso   1.00
O389   O     0.26902   0.83533   0.18561   0.00000  Uiso   1.00
O390   O     0.15840   0.73375   0.25211   0.00000  Uiso   1.00
Zn391  Zn    0.27033   0.83954   0.25540   0.00000  Uiso   1.00
Zn392  Zn    0.06300   0.82713   0.24461   0.00000  Uiso   1.00
Br393  Br    0.47325   0.86615   0.12687   0.00000  Uiso   1.00
Br394  Br    0.52675   0.80051   0.37313   0.00000  Uiso   1.00
C395   C     0.34828   0.93146   0.24880   0.00000  Uiso   1.00
C396   C     0.64583   0.82956   0.15897   0.00000  Uiso   1.00
C397   C     0.36454   0.84433   0.39363   0.00000  Uiso   1.00
C398   C     0.63546   0.82233   0.10637   0.00000  Uiso   1.00
C399   C     0.35524   0.89355   0.47020   0.00000  Uiso   1.00
C400   C     0.64476   0.77312   0.02980   0.00000  Uiso   1.00
C401   C     0.33605   0.88027   0.42186   0.00000  Uiso   1.00
C402   C     0.66395   0.78640   0.07814   0.00000  Uiso   1.00
C403   C     0.40991   0.82068   0.41421   0.00000  Uiso   1.00
C404   C     0.59009   0.84599   0.08579   0.00000  Uiso   1.00
C405   C     0.43633   0.84075   0.45870   0.00000  Uiso   1.00
C406   C     0.65172   0.73521   0.25120   0.00000  Uiso   1.00
C407   C     0.56367   0.82591   0.04130   0.00000  Uiso   1.00
C408   C     0.40566   0.87447   0.48857   0.00000  Uiso   1.00
C409   C     0.59434   0.79219   0.01143   0.00000  Uiso   1.00
C410   C     0.49081   0.82678   0.47498   0.00000  Uiso   1.00
C411   C     0.50919   0.83989   0.02502   0.00000  Uiso   1.00
C412   C     0.49514   0.76791   0.22321   0.00000  Uiso   1.00
C413   C     0.50487   0.89876   0.27680   0.00000  Uiso   1.00
C414   C     0.47165   0.86549   0.05656   0.00000  Uiso   1.00
C415   C     0.52835   0.80118   0.44344   0.00000  Uiso   1.00
C416   C     0.42345   0.88596   0.03714   0.00000  Uiso   1.00
C417   C     0.57655   0.78070   0.46286   0.00000  Uiso   1.00
C418   C     0.35595   0.98602   0.24781   0.00000  Uiso   1.00
C419   C     0.64405   0.68065   0.25219   0.00000  Uiso   1.00
C420   C     0.35417   0.83711   0.34103   0.00000  Uiso   1.00
H421   H     0.39702   0.90753   0.06118   0.00000  Uiso   1.00
H422   H     0.60146   0.99707   0.25672   0.00000  Uiso   1.00
H423   H     0.52065   0.71858   0.16989   0.00000  Uiso   1.00
H424   H     0.47936   0.94809   0.33011   0.00000  Uiso   1.00
H425   H     0.60298   0.75914   0.43882   0.00000  Uiso   1.00
H426   H     0.57610   0.87993   0.10542   0.00000  Uiso   1.00
H427   H     0.42390   0.78673   0.39458   0.00000  Uiso   1.00
H428   H     0.36675   0.76827   0.09353   0.00000  Uiso   1.00
H429   H     0.63325   0.89839   0.40647   0.00000  Uiso   1.00
H430   H     0.66515   0.91977   0.49268   0.00000  Uiso   1.00
H431   H     0.33485   0.74690   0.00732   0.00000  Uiso   1.00
H432   H     0.39854   0.66959   0.24328   0.00000  Uiso   1.00
N433   N     0.48029   0.81883   0.23740   0.00000  Uiso   1.00
N434   N     0.51971   0.84784   0.26261   0.00000  Uiso   1.00
O435   O     0.63052   0.91298   0.25310   0.00000  Uiso   1.00
O436   O     0.51142   0.75637   0.17571   0.00000  Uiso   1.00
O437   O     0.50827   0.93292   0.24789   0.00000  Uiso   1.00
O438   O     0.48859   0.91030   0.32429   0.00000  Uiso   1.00
O439   O     0.36948   0.75369   0.24690   0.00000  Uiso   1.00
O440   O     0.39155   0.90368   0.24502   0.00000  Uiso   1.00
O441   O     0.60845   0.76298   0.25499   0.00000  Uiso   1.00
O442   O     0.63662   0.84063   0.32247   0.00000  Uiso   1.00
O443   O     0.36338   0.82603   0.17753   0.00000  Uiso   1.00
O444   O     0.39764   0.83134   0.31439   0.00000  Uiso   1.00
O445   O     0.60236   0.83533   0.18561   0.00000  Uiso   1.00
O446   O     0.49173   0.73375   0.25211   0.00000  Uiso   1.00
Zn447  Zn    0.60366   0.83954   0.25540   0.00000  Uiso   1.00
Zn448  Zn    0.39634   0.82713   0.24461   0.00000  Uiso   1.00
Br449  Br    0.80658   0.86615   0.12687   0.00000  Uiso   1.00
Br450  Br    0.86009   0.80051   0.37313   0.00000  Uiso   1.00
C451   C     0.68161   0.93146   0.24880   0.00000  Uiso   1.00
C452   C     0.97917   0.82956   0.15897   0.00000  Uiso   1.00
C453   C     0.69787   0.84433   0.39363   0.00000  Uiso   1.00
C454   C     0.96880   0.82233   0.10637   0.00000  Uiso   1.00
C455   C     0.68857   0.89355   0.47020   0.00000  Uiso   1.00
C456   C     0.97810   0.77312   0.02980   0.00000  Uiso   1.00
C457   C     0.66938   0.88027   0.42186   0.00000  Uiso   1.00
C458   C     0.99728   0.78640   0.07814   0.00000  Uiso   1.00
C459   C     0.74324   0.82068   0.41421   0.00000  Uiso   1.00
C460   C     0.92343   0.84599   0.08579   0.00000  Uiso   1.00
C461   C     0.76966   0.84075   0.45870   0.00000  Uiso   1.00
C462   C     0.98506   0.73521   0.25120   0.00000  Uiso   1.00
C463   C     0.89700   0.82591   0.04130   0.00000  Uiso   1.00
C464   C     0.73899   0.87447   0.48857   0.00000  Uiso   1.00
C465   C     0.92768   0.79219   0.01143   0.00000  Uiso   1.00
C466   C     0.82415   0.82678   0.47498   0.00000  Uiso   1.00
C467   C     0.84252   0.83989   0.02502   0.00000  Uiso   1.00
C468   C     0.82847   0.76791   0.22321   0.00000  Uiso   1.00
C469   C     0.83820   0.89876   0.27680   0.00000  Uiso   1.00
C470   C     0.80498   0.86549   0.05656   0.00000  Uiso   1.00
C471   C     0.86168   0.80118   0.44344   0.00000  Uiso   1.00
C472   C     0.75678   0.88596   0.03714   0.00000  Uiso   1.00
C473   C     0.90989   0.78070   0.46286   0.00000  Uiso   1.00
C474   C     0.68928   0.98602   0.24781   0.00000  Uiso   1.00
C475   C     0.97738   0.68065   0.25219   0.00000  Uiso   1.00
C476   C     0.68750   0.83711   0.34103   0.00000  Uiso   1.00
H477   H     0.73035   0.90753   0.06118   0.00000  Uiso   1.00
H478   H     0.93479   0.99707   0.25672   0.00000  Uiso   1.00
H479   H     0.85398   0.71858   0.16989   0.00000  Uiso   1.00
H480   H     0.81270   0.94809   0.33011   0.00000  Uiso   1.00
H481   H     0.93631   0.75914   0.43882   0.00000  Uiso   1.00
H482   H     0.90943   0.87993   0.10542   0.00000  Uiso   1.00
H483   H     0.75723   0.78673   0.39458   0.00000  Uiso   1.00
H484   H     0.70009   0.76827   0.09353   0.00000  Uiso   1.00
H485   H     0.96658   0.89839   0.40647   0.00000  Uiso   1.00
H486   H     0.99848   0.91977   0.49268   0.00000  Uiso   1.00
H487   H     0.66818   0.74690   0.00732   0.00000  Uiso   1.00
H488   H     0.73188   0.66959   0.24328   0.00000  Uiso   1.00
N489   N     0.81362   0.81883   0.23740   0.00000  Uiso   1.00
N490   N     0.85305   0.84784   0.26261   0.00000  Uiso   1.00
O491   O     0.96386   0.91298   0.25310   0.00000  Uiso   1.00
O492   O     0.84476   0.75637   0.17571   0.00000  Uiso   1.00
O493   O     0.84160   0.93292   0.24789   0.00000  Uiso   1.00
O494   O     0.82192   0.91030   0.32429   0.00000  Uiso   1.00
O495   O     0.70281   0.75369   0.24690   0.00000  Uiso   1.00
O496   O     0.72488   0.90368   0.24502   0.00000  Uiso   1.00
O497   O     0.94178   0.76298   0.25499   0.00000  Uiso   1.00
O498   O     0.96995   0.84063   0.32247   0.00000  Uiso   1.00
O499   O     0.69672   0.82603   0.17753   0.00000  Uiso   1.00
O500   O     0.73098   0.83134   0.31439   0.00000  Uiso   1.00
O501   O     0.93569   0.83533   0.18561   0.00000  Uiso   1.00
O502   O     0.82506   0.73375   0.25211   0.00000  Uiso   1.00
Zn503  Zn    0.93700   0.83954   0.25540   0.00000  Uiso   1.00
Zn504  Zn    0.72967   0.82713   0.24461   0.00000  Uiso   1.00
Br505  Br    0.13991   0.19949   0.62687   0.00000  Uiso   1.00
Br506  Br    0.19342   0.13385   0.87313   0.00000  Uiso   1.00
C507   C     0.01495   0.26479   0.74880   0.00000  Uiso   1.00
C508   C     0.31250   0.16289   0.65897   0.00000  Uiso   1.00
C509   C     0.03120   0.17767   0.89363   0.00000  Uiso   1.00
C510   C     0.30213   0.15567   0.60637   0.00000  Uiso   1.00
C511   C     0.02190   0.22688   0.97020   0.00000  Uiso   1.00
C512   C     0.31143   0.10645   0.52980   0.00000  Uiso   1.00
C513   C     0.00272   0.21360   0.92186   0.00000  Uiso   1.00
C514   C     0.33062   0.11973   0.57814   0.00000  Uiso   1.00
C515   C     0.07657   0.15401   0.91421   0.00000  Uiso   1.00
C516   C     0.25676   0.17932   0.58579   0.00000  Uiso   1.00
C517   C     0.10300   0.17409   0.95870   0.00000  Uiso   1.00
C518   C     0.31839   0.06854   0.75120   0.00000  Uiso   1.00
C519   C     0.23034   0.15925   0.54130   0.00000  Uiso   1.00
C520   C     0.07232   0.20780   0.98857   0.00000  Uiso   1.00
C521   C     0.26101   0.12553   0.51143   0.00000  Uiso   1.00
C522   C     0.15748   0.16011   0.97498   0.00000  Uiso   1.00
C523   C     0.17585   0.17322   0.52502   0.00000  Uiso   1.00
C524   C     0.16180   0.10124   0.72321   0.00000  Uiso   1.00
C525   C     0.17153   0.23209   0.77680   0.00000  Uiso   1.00
C526   C     0.13832   0.19882   0.55656   0.00000  Uiso   1.00
C527   C     0.19502   0.13451   0.94344   0.00000  Uiso   1.00
C528   C     0.09011   0.21930   0.53714   0.00000  Uiso   1.00
C529   C     0.24322   0.11404   0.96286   0.00000  Uiso   1.00
C530   C     0.02262   0.31935   0.74781   0.00000  Uiso   1.00
C531   C     0.31072   0.01398   0.75219   0.00000  Uiso   1.00
C532   C     0.02083   0.17044   0.84103   0.00000  Uiso   1.00
H533   H     0.06369   0.24086   0.56118   0.00000  Uiso   1.00
H534   H     0.26812   0.33041   0.75672   0.00000  Uiso   1.00
H535   H     0.18731   0.05192   0.66989   0.00000  Uiso   1.00
H536   H     0.14603   0.28142   0.83011   0.00000  Uiso   1.00
H537   H     0.26965   0.09247   0.93882   0.00000  Uiso   1.00
H538   H     0.24277   0.21327   0.60542   0.00000  Uiso   1.00
H539   H     0.09057   0.12007   0.89458   0.00000  Uiso   1.00
H540   H     0.03342   0.10161   0.59353   0.00000  Uiso   1.00
H541   H     0.29991   0.23173   0.90647   0.00000  Uiso   1.00
H542   H     0.33182   0.25310   0.99268   0.00000  Uiso   1.00
H543   H     0.00152   0.08023   0.50732   0.00000  Uiso   1.00
H544   H     0.06521   0.00293   0.74328   0.00000  Uiso   1.00
N545   N     0.14695   0.15216   0.73740   0.00000  Uiso   1.00
N546   N     0.18638   0.18117   0.76261   0.00000  Uiso   1.00
O547   O     0.29719   0.24631   0.75310   0.00000  Uiso   1.00
O548   O     0.17809   0.08970   0.67571   0.00000  Uiso   1.00
O549   O     0.17493   0.26625   0.74789   0.00000  Uiso   1.00
O550   O     0.15526   0.24363   0.82429   0.00000  Uiso   1.00
O551   O     0.03614   0.08702   0.74690   0.00000  Uiso   1.00
O552   O     0.05822   0.23702   0.74502   0.00000  Uiso   1.00
O553   O     0.27512   0.09632   0.75499   0.00000  Uiso   1.00
O554   O     0.30328   0.17397   0.82247   0.00000  Uiso   1.00
O555   O     0.03005   0.15937   0.67753   0.00000  Uiso   1.00
O556   O     0.06431   0.16467   0.81439   0.00000  Uiso   1.00
O557   O     0.26902   0.16866   0.68561   0.00000  Uiso   1.00
O558   O     0.15840   0.06708   0.75211   0.00000  Uiso   1.00
Zn559  Zn    0.27033   0.17287   0.75540   0.00000  Uiso   1.00
Zn560  Zn    0.06300   0.16046   0.74461   0.00000  Uiso   1.00
Br561  Br    0.47325   0.19949   0.62687   0.00000  Uiso   1.00
Br562  Br    0.52675   0.13385   0.87313   0.00000  Uiso   1.00
C563   C     0.34828   0.26479   0.74880   0.00000  Uiso   1.00
C564   C     0.64583   0.16289   0.65897   0.00000  Uiso   1.00
C565   C     0.36454   0.17767   0.89363   0.00000  Uiso   1.00
C566   C     0.63546   0.15567   0.60637   0.00000  Uiso   1.00
C567   C     0.35524   0.22688   0.97020   0.00000  Uiso   1.00
C568   C     0.64476   0.10645   0.52980   0.00000  Uiso   1.00
C569   C     0.33605   0.21360   0.92186   0.00000  Uiso   1.00
C570   C     0.66395   0.11973   0.57814   0.00000  Uiso   1.00
C571   C     0.40991   0.15401   0.91421   0.00000  Uiso   1.00
C572   C     0.59009   0.17932   0.58579   0.00000  Uiso   1.00
C573   C     0.43633   0.17409   0.95870   0.00000  Uiso   1.00
C574   C     0.65172   0.06854   0.75120   0.00000  Uiso   1.00
C575   C     0.56367   0.15925   0.54130   0.00000  Uiso   1.00
C576   C     0.40566   0.20780   0.98857   0.00000  Uiso   1.00
C577   C     0.59434   0.12553   0.51143   0.00000  Uiso   1.00
C578   C     0.49081   0.16011   0.97498   0.00000  Uiso   1.00
C579   C     0.50919   0.17322   0.52502   0.00000  Uiso   1.00
C580   C     0.49514   0.10124   0.72321   0.00000  Uiso   1.00
C581   C     0.50487   0.23209   0.77680   0.00000  Uiso   1.00
C582   C     0.47165   0.19882   0.55656   0.00000  Uiso   1.00
C583   C     0.52835   0.13451   0.94344   0.00000  Uiso   1.00
C584   C     0.42345   0.21930   0.53714   0.00000  Uiso   1.00
C585   C     0.57655   0.11404   0.96286   0.00000  Uiso   1.00
C586   C     0.35595   0.31935   0.74781   0.00000  Uiso   1.00
C587   C     0.64405   0.01398   0.75219   0.00000  Uiso   1.00
C588   C     0.35417   0.17044   0.84103   0.00000  Uiso   1.00
H589   H     0.39702   0.24086   0.56118   0.00000  Uiso   1.00
H590   H     0.60146   0.33041   0.75672   0.00000  Uiso   1.00
H591   H     0.52065   0.05192   0.66989   0.00000  Uiso   1.00
H592   H     0.47936   0.28142   0.83011   0.00000  Uiso   1.00
H593   H     0.60298   0.09247   0.93882   0.00000  Uiso   1.00
H594   H     0.57610   0.21327   0.60542   0.00000  Uiso   1.00
H595   H     0.42390   0.12007   0.89458   0.00000  Uiso   1.00
H596   H     0.36675   0.10161   0.59353   0.00000  Uiso   1.00
H597   H     0.63325   0.23173   0.90647   0.00000  Uiso   1.00
H598   H     0.66515   0.25310   0.99268   0.00000  Uiso   1.00
H599   H     0.33485   0.08023   0.50732   0.00000  Uiso   1.00
H600   H     0.39854   0.00293   0.74328   0.00000  Uiso   1.00
N601   N     0.48029   0.15216   0.73740   0.00000  Uiso   1.00
N602   N     0.51971   0.18117   0.76261   0.00000  Uiso   1.00
O603   O     0.63052   0.24631   0.75310   0.00000  Uiso   1.00
O604   O     0.51142   0.08970   0.67571   0.00000  Uiso   1.00
O605   O     0.50827   0.26625   0.74789   0.00000  Uiso   1.00
O606   O     0.48859   0.24363   0.82429   0.00000  Uiso   1.00
O607   O     0.36948   0.08702   0.74690   0.00000  Uiso   1.00
O608   O     0.39155   0.23702   0.74502   0.00000  Uiso   1.00
O609   O     0.60845   0.09632   0.75499   0.00000  Uiso   1.00
O610   O     0.63662   0.17397   0.82247   0.00000  Uiso   1.00
O611   O     0.36338   0.15937   0.67753   0.00000  Uiso   1.00
O612   O     0.39764   0.16467   0.81439   0.00000  Uiso   1.00
O613   O     0.60236   0.16866   0.68561   0.00000  Uiso   1.00
O614   O     0.49173   0.06708   0.75211   0.00000  Uiso   1.00
Zn615  Zn    0.60366   0.17287   0.75540   0.00000  Uiso   1.00
Zn616  Zn    0.39634   0.16046   0.74461   0.00000  Uiso   1.00
Br617  Br    0.80658   0.19949   0.62687   0.00000  Uiso   1.00
Br618  Br    0.86009   0.13385   0.87313   0.00000  Uiso   1.00
C619   C     0.68161   0.26479   0.74880   0.00000  Uiso   1.00
C620   C     0.97917   0.16289   0.65897   0.00000  Uiso   1.00
C621   C     0.69787   0.17767   0.89363   0.00000  Uiso   1.00
C622   C     0.96880   0.15567   0.60637   0.00000  Uiso   1.00
C623   C     0.68857   0.22688   0.97020   0.00000  Uiso   1.00
C624   C     0.97810   0.10645   0.52980   0.00000  Uiso   1.00
C625   C     0.66938   0.21360   0.92186   0.00000  Uiso   1.00
C626   C     0.99728   0.11973   0.57814   0.00000  Uiso   1.00
C627   C     0.74324   0.15401   0.91421   0.00000  Uiso   1.00
C628   C     0.92343   0.17932   0.58579   0.00000  Uiso   1.00
C629   C     0.76966   0.17409   0.95870   0.00000  Uiso   1.00
C630   C     0.98506   0.06854   0.75120   0.00000  Uiso   1.00
C631   C     0.89700   0.15925   0.54130   0.00000  Uiso   1.00
C632   C     0.73899   0.20780   0.98857   0.00000  Uiso   1.00
C633   C     0.92768   0.12553   0.51143   0.00000  Uiso   1.00
C634   C     0.82415   0.16011   0.97498   0.00000  Uiso   1.00
C635   C     0.84252   0.17322   0.52502   0.00000  Uiso   1.00
C636   C     0.82847   0.10124   0.72321   0.00000  Uiso   1.00
C637   C     0.83820   0.23209   0.77680   0.00000  Uiso   1.00
C638   C     0.80498   0.19882   0.55656   0.00000  Uiso   1.00
C639   C     0.86168   0.13451   0.94344   0.00000  Uiso   1.00
C640   C     0.75678   0.21930   0.53714   0.00000  Uiso   1.00
C641   C     0.90989   0.11404   0.96286   0.00000  Uiso   1.00
C642   C     0.68928   0.31935   0.74781   0.00000  Uiso   1.00
C643   C     0.97738   0.01398   0.75219   0.00000  Uiso   1.00
C644   C     0.68750   0.17044   0.84103   0.00000  Uiso   1.00
H645   H     0.73035   0.24086   0.56118   0.00000  Uiso   1.00
H646   H     0.93479   0.33041   0.75672   0.00000  Uiso   1.00
H647   H     0.85398   0.05192   0.66989   0.00000  Uiso   1.00
H648   H     0.81270   0.28142   0.83011   0.00000  Uiso   1.00
H649   H     0.93631   0.09247   0.93882   0.00000  Uiso   1.00
H650   H     0.90943   0.21327   0.60542   0.00000  Uiso   1.00
H651   H     0.75723   0.12007   0.89458   0.00000  Uiso   1.00
H652   H     0.70009   0.10161   0.59353   0.00000  Uiso   1.00
H653   H     0.96658   0.23173   0.90647   0.00000  Uiso   1.00
H654   H     0.99848   0.25310   0.99268   0.00000  Uiso   1.00
H655   H     0.66818   0.08023   0.50732   0.00000  Uiso   1.00
H656   H     0.73188   0.00293   0.74328   0.00000  Uiso   1.00
N657   N     0.81362   0.15216   0.73740   0.00000  Uiso   1.00
N658   N     0.85305   0.18117   0.76261   0.00000  Uiso   1.00
O659   O     0.96386   0.24631   0.75310   0.00000  Uiso   1.00
O660   O     0.84476   0.08970   0.67571   0.00000  Uiso   1.00
O661   O     0.84160   0.26625   0.74789   0.00000  Uiso   1.00
O662   O     0.82192   0.24363   0.82429   0.00000  Uiso   1.00
O663   O     0.70281   0.08702   0.74690   0.00000  Uiso   1.00
O664   O     0.72488   0.23702   0.74502   0.00000  Uiso   1.00
O665   O     0.94178   0.09632   0.75499   0.00000  Uiso   1.00
O666   O     0.96995   0.17397   0.82247   0.00000  Uiso   1.00
O667   O     0.69672   0.15937   0.67753   0.00000  Uiso   1.00
O668   O     0.73098   0.16467   0.81439   0.00000  Uiso   1.00
O669   O     0.93569   0.16866   0.68561   0.00000  Uiso   1.00
O670   O     0.82506   0.06708   0.75211   0.00000  Uiso   1.00
Zn671  Zn    0.93700   0.17287   0.75540   0.00000  Uiso   1.00
Zn672  Zn    0.72967   0.16046   0.74461   0.00000  Uiso   1.00
Br673  Br    0.13991   0.53282   0.62687   0.00000  Uiso   1.00
Br674  Br    0.19342   0.46718   0.87313   0.00000  Uiso   1.00
C675   C     0.01495   0.59812   0.74880   0.00000  Uiso   1.00
C676   C     0.31250   0.49623   0.65897   0.00000  Uiso   1.00
C677   C     0.03120   0.51100   0.89363   0.00000  Uiso   1.00
C678   C     0.30213   0.48900   0.60637   0.00000  Uiso   1.00
C679   C     0.02190   0.56022   0.97020   0.00000  Uiso   1.00
C680   C     0.31143   0.43978   0.52980   0.00000  Uiso   1.00
C681   C     0.00272   0.54694   0.92186   0.00000  Uiso   1.00
C682   C     0.33062   0.45306   0.57814   0.00000  Uiso   1.00
C683   C     0.07657   0.48735   0.91421   0.00000  Uiso   1.00
C684   C     0.25676   0.51265   0.58579   0.00000  Uiso   1.00
C685   C     0.10300   0.50742   0.95870   0.00000  Uiso   1.00
C686   C     0.31839   0.40188   0.75120   0.00000  Uiso   1.00
C687   C     0.23034   0.49258   0.54130   0.00000  Uiso   1.00
C688   C     0.07232   0.54114   0.98857   0.00000  Uiso   1.00
C689   C     0.26101   0.45886   0.51143   0.00000  Uiso   1.00
C690   C     0.15748   0.49345   0.97498   0.00000  Uiso   1.00
C691   C     0.17585   0.50655   0.52502   0.00000  Uiso   1.00
C692   C     0.16180   0.43458   0.72321   0.00000  Uiso   1.00
C693   C     0.17153   0.56542   0.77680   0.00000  Uiso   1.00
C694   C     0.13832   0.53216   0.55656   0.00000  Uiso   1.00
C695   C     0.19502   0.46784   0.94344   0.00000  Uiso   1.00
C696   C     0.09011   0.55263   0.53714   0.00000  Uiso   1.00
C697   C     0.24322   0.44737   0.96286   0.00000  Uiso   1.00
C698   C     0.02262   0.65269   0.74781   0.00000  Uiso   1.00
C699   C     0.31072   0.34731   0.75219   0.00000  Uiso   1.00
C700   C     0.02083   0.50377   0.84103   0.00000  Uiso   1.00
H701   H     0.06369   0.57420   0.56118   0.00000  Uiso   1.00
H702   H     0.26812   0.66374   0.75672   0.00000  Uiso   1.00
H703   H     0.18731   0.38525   0.66989   0.00000  Uiso   1.00
H704   H     0.14603   0.61475   0.83011   0.00000  Uiso   1.00
H705   H     0.26965   0.42580   0.93882   0.00000  Uiso   1.00
H706   H     0.24277   0.54660   0.60542   0.00000  Uiso   1.00
H707   H     0.09057   0.45340   0.89458   0.00000  Uiso   1.00
H708   H     0.03342   0.43494   0.59353   0.00000  Uiso   1.00
H709   H     0.29991   0.56506   0.90647   0.00000  Uiso   1.00
H710   H     0.33182   0.58644   0.99268   0.00000  Uiso   1.00
H711   H     0.00152   0.41356   0.50732   0.00000  Uiso   1.00
H712   H     0.06521   0.33626   0.74328   0.00000  Uiso   1.00
N713   N     0.14695   0.48550   0.73740   0.00000  Uiso   1.00
N714   N     0.18638   0.51450   0.76261   0.00000  Uiso   1.00
O715   O     0.29719   0.57964   0.75310   0.00000  Uiso   1.00
O716   O     0.17809   0.42304   0.67571   0.00000  Uiso   1.00
O717   O     0.17493   0.59958   0.74789   0.00000  Uiso   1.00
O718   O     0.15526   0.57697   0.82429   0.00000  Uiso   1.00
O719   O     0.03614   0.42036   0.74690   0.00000  Uiso   1.00
O720   O     0.05822   0.57035   0.74502   0.00000  Uiso   1.00
O721   O     0.27512   0.42965   0.75499   0.00000  Uiso   1.00
O722   O     0.30328   0.50730   0.82247   0.00000  Uiso   1.00
O723   O     0.03005   0.49270   0.67753   0.00000  Uiso   1.00
O724   O     0.06431   0.49801   0.81439   0.00000  Uiso   1.00
O725   O     0.26902   0.50199   0.68561   0.00000  Uiso   1.00
O726   O     0.15840   0.40042   0.75211   0.00000  Uiso   1.00
Zn727  Zn    0.27033   0.50621   0.75540   0.00000  Uiso   1.00
Zn728  Zn    0.06300   0.49379   0.74461   0.00000  Uiso   1.00
Br729  Br    0.47325   0.53282   0.62687   0.00000  Uiso   1.00
Br730  Br    0.52675   0.46718   0.87313   0.00000  Uiso   1.00
C731   C     0.34828   0.59812   0.74880   0.00000  Uiso   1.00
C732   C     0.64583   0.49623   0.65897   0.00000  Uiso   1.00
C733   C     0.36454   0.51100   0.89363   0.00000  Uiso   1.00
C734   C     0.63546   0.48900   0.60637   0.00000  Uiso   1.00
C735   C     0.35524   0.56022   0.97020   0.00000  Uiso   1.00
C736   C     0.64476   0.43978   0.52980   0.00000  Uiso   1.00
C737   C     0.33605   0.54694   0.92186   0.00000  Uiso   1.00
C738   C     0.66395   0.45306   0.57814   0.00000  Uiso   1.00
C739   C     0.40991   0.48735   0.91421   0.00000  Uiso   1.00
C740   C     0.59009   0.51265   0.58579   0.00000  Uiso   1.00
C741   C     0.43633   0.50742   0.95870   0.00000  Uiso   1.00
C742   C     0.65172   0.40188   0.75120   0.00000  Uiso   1.00
C743   C     0.56367   0.49258   0.54130   0.00000  Uiso   1.00
C744   C     0.40566   0.54114   0.98857   0.00000  Uiso   1.00
C745   C     0.59434   0.45886   0.51143   0.00000  Uiso   1.00
C746   C     0.49081   0.49345   0.97498   0.00000  Uiso   1.00
C747   C     0.50919   0.50655   0.52502   0.00000  Uiso   1.00
C748   C     0.49514   0.43458   0.72321   0.00000  Uiso   1.00
C749   C     0.50487   0.56542   0.77680   0.00000  Uiso   1.00
C750   C     0.47165   0.53216   0.55656   0.00000  Uiso   1.00
C751   C     0.52835   0.46784   0.94344   0.00000  Uiso   1.00
C752   C     0.42345   0.55263   0.53714   0.00000  Uiso   1.00
C753   C     0.57655   0.44737   0.96286   0.00000  Uiso   1.00
C754   C     0.35595   0.65269   0.74781   0.00000  Uiso   1.00
C755   C     0.64405   0.34731   0.75219   0.00000  Uiso   1.00
C756   C     0.35417   0.50377   0.84103   0.00000  Uiso   1.00
H757   H     0.39702   0.57420   0.56118   0.00000  Uiso   1.00
H758   H     0.60146   0.66374   0.75672   0.00000  Uiso   1.00
H759   H     0.52065   0.38525   0.66989   0.00000  Uiso   1.00
H760   H     0.47936   0.61475   0.83011   0.00000  Uiso   1.00
H761   H     0.60298   0.42580   0.93882   0.00000  Uiso   1.00
H762   H     0.57610   0.54660   0.60542   0.00000  Uiso   1.00
H763   H     0.42390   0.45340   0.89458   0.00000  Uiso   1.00
H764   H     0.36675   0.43494   0.59353   0.00000  Uiso   1.00
H765   H     0.63325   0.56506   0.90647   0.00000  Uiso   1.00
H766   H     0.66515   0.58644   0.99268   0.00000  Uiso   1.00
H767   H     0.33485   0.41356   0.50732   0.00000  Uiso   1.00
H768   H     0.39854   0.33626   0.74328   0.00000  Uiso   1.00
N769   N     0.48029   0.48550   0.73740   0.00000  Uiso   1.00
N770   N     0.51971   0.51450   0.76261   0.00000  Uiso   1.00
O771   O     0.63052   0.57964   0.75310   0.00000  Uiso   1.00
O772   O     0.51142   0.42304   0.67571   0.00000  Uiso   1.00
O773   O     0.50827   0.59958   0.74789   0.00000  Uiso   1.00
O774   O     0.48859   0.57697   0.82429   0.00000  Uiso   1.00
O775   O     0.36948   0.42036   0.74690   0.00000  Uiso   1.00
O776   O     0.39155   0.57035   0.74502   0.00000  Uiso   1.00
O777   O     0.60845   0.42965   0.75499   0.00000  Uiso   1.00
O778   O     0.63662   0.50730   0.82247   0.00000  Uiso   1.00
O779   O     0.36338   0.49270   0.67753   0.00000  Uiso   1.00
O780   O     0.39764   0.49801   0.81439   0.00000  Uiso   1.00
O781   O     0.60236   0.50199   0.68561   0.00000  Uiso   1.00
O782   O     0.49173   0.40042   0.75211   0.00000  Uiso   1.00
Zn783  Zn    0.60366   0.50621   0.75540   0.00000  Uiso   1.00
Zn784  Zn    0.39634   0.49379   0.74461   0.00000  Uiso   1.00
Br785  Br    0.80658   0.53282   0.62687   0.00000  Uiso   1.00
Br786  Br    0.86009   0.46718   0.87313   0.00000  Uiso   1.00
C787   C     0.68161   0.59812   0.74880   0.00000  Uiso   1.00
C788   C     0.97917   0.49623   0.65897   0.00000  Uiso   1.00
C789   C     0.69787   0.51100   0.89363   0.00000  Uiso   1.00
C790   C     0.96880   0.48900   0.60637   0.00000  Uiso   1.00
C791   C     0.68857   0.56022   0.97020   0.00000  Uiso   1.00
C792   C     0.97810   0.43978   0.52980   0.00000  Uiso   1.00
C793   C     0.66938   0.54694   0.92186   0.00000  Uiso   1.00
C794   C     0.99728   0.45306   0.57814   0.00000  Uiso   1.00
C795   C     0.74324   0.48735   0.91421   0.00000  Uiso   1.00
C796   C     0.92343   0.51265   0.58579   0.00000  Uiso   1.00
C797   C     0.76966   0.50742   0.95870   0.00000  Uiso   1.00
C798   C     0.98506   0.40188   0.75120   0.00000  Uiso   1.00
C799   C     0.89700   0.49258   0.54130   0.00000  Uiso   1.00
C800   C     0.73899   0.54114   0.98857   0.00000  Uiso   1.00
C801   C     0.92768   0.45886   0.51143   0.00000  Uiso   1.00
C802   C     0.82415   0.49345   0.97498   0.00000  Uiso   1.00
C803   C     0.84252   0.50655   0.52502   0.00000  Uiso   1.00
C804   C     0.82847   0.43458   0.72321   0.00000  Uiso   1.00
C805   C     0.83820   0.56542   0.77680   0.00000  Uiso   1.00
C806   C     0.80498   0.53216   0.55656   0.00000  Uiso   1.00
C807   C     0.86168   0.46784   0.94344   0.00000  Uiso   1.00
C808   C     0.75678   0.55263   0.53714   0.00000  Uiso   1.00
C809   C     0.90989   0.44737   0.96286   0.00000  Uiso   1.00
C810   C     0.68928   0.65269   0.74781   0.00000  Uiso   1.00
C811   C     0.97738   0.34731   0.75219   0.00000  Uiso   1.00
C812   C     0.68750   0.50377   0.84103   0.00000  Uiso   1.00
H813   H     0.73035   0.57420   0.56118   0.00000  Uiso   1.00
H814   H     0.93479   0.66374   0.75672   0.00000  Uiso   1.00
H815   H     0.85398   0.38525   0.66989   0.00000  Uiso   1.00
H816   H     0.81270   0.61475   0.83011   0.00000  Uiso   1.00
H817   H     0.93631   0.42580   0.93882   0.00000  Uiso   1.00
H818   H     0.90943   0.54660   0.60542   0.00000  Uiso   1.00
H819   H     0.75723   0.45340   0.89458   0.00000  Uiso   1.00
H820   H     0.70009   0.43494   0.59353   0.00000  Uiso   1.00
H821   H     0.96658   0.56506   0.90647   0.00000  Uiso   1.00
H822   H     0.99848   0.58644   0.99268   0.00000  Uiso   1.00
H823   H     0.66818   0.41356   0.50732   0.00000  Uiso   1.00
H824   H     0.73188   0.33626   0.74328   0.00000  Uiso   1.00
N825   N     0.81362   0.48550   0.73740   0.00000  Uiso   1.00
N826   N     0.85305   0.51450   0.76261   0.00000  Uiso   1.00
O827   O     0.96386   0.57964   0.75310   0.00000  Uiso   1.00
O828   O     0.84476   0.42304   0.67571   0.00000  Uiso   1.00
O829   O     0.84160   0.59958   0.74789   0.00000  Uiso   1.00
O830   O     0.82192   0.57697   0.82429   0.00000  Uiso   1.00
O831   O     0.70281   0.42036   0.74690   0.00000  Uiso   1.00
O832   O     0.72488   0.57035   0.74502   0.00000  Uiso   1.00
O833   O     0.94178   0.42965   0.75499   0.00000  Uiso   1.00
O834   O     0.96995   0.50730   0.82247   0.00000  Uiso   1.00
O835   O     0.69672   0.49270   0.67753   0.00000  Uiso   1.00
O836   O     0.73098   0.49801   0.81439   0.00000  Uiso   1.00
O837   O     0.93569   0.50199   0.68561   0.00000  Uiso   1.00
O838   O     0.82506   0.40042   0.75211   0.00000  Uiso   1.00
Zn839  Zn    0.93700   0.50621   0.75540   0.00000  Uiso   1.00
Zn840  Zn    0.72967   0.49379   0.74461   0.00000  Uiso   1.00
Br841  Br    0.13991   0.86615   0.62687   0.00000  Uiso   1.00
Br842  Br    0.19342   0.80051   0.87313   0.00000  Uiso   1.00
C843   C     0.01495   0.93146   0.74880   0.00000  Uiso   1.00
C844   C     0.31250   0.82956   0.65897   0.00000  Uiso   1.00
C845   C     0.03120   0.84433   0.89363   0.00000  Uiso   1.00
C846   C     0.30213   0.82233   0.60637   0.00000  Uiso   1.00
C847   C     0.02190   0.89355   0.97020   0.00000  Uiso   1.00
C848   C     0.31143   0.77312   0.52980   0.00000  Uiso   1.00
C849   C     0.00272   0.88027   0.92186   0.00000  Uiso   1.00
C850   C     0.33062   0.78640   0.57814   0.00000  Uiso   1.00
C851   C     0.07657   0.82068   0.91421   0.00000  Uiso   1.00
C852   C     0.25676   0.84599   0.58579   0.00000  Uiso   1.00
C853   C     0.10300   0.84075   0.95870   0.00000  Uiso   1.00
C854   C     0.31839   0.73521   0.75120   0.00000  Uiso   1.00
C855   C     0.23034   0.82591   0.54130   0.00000  Uiso   1.00
C856   C     0.07232   0.87447   0.98857   0.00000  Uiso   1.00
C857   C     0.26101   0.79219   0.51143   0.00000  Uiso   1.00
C858   C     0.15748   0.82678   0.97498   0.00000  Uiso   1.00
C859   C     0.17585   0.83989   0.52502   0.00000  Uiso   1.00
C860   C     0.16180   0.76791   0.72321   0.00000  Uiso   1.00
C861   C     0.17153   0.89876   0.77680   0.00000  Uiso   1.00
C862   C     0.13832   0.86549   0.55656   0.00000  Uiso   1.00
C863   C     0.19502   0.80118   0.94344   0.00000  Uiso   1.00
C864   C     0.09011   0.88596   0.53714   0.00000  Uiso   1.00
C865   C     0.24322   0.78070   0.96286   0.00000  Uiso   1.00
C866   C     0.02262   0.98602   0.74781   0.00000  Uiso   1.00
C867   C     0.31072   0.68065   0.75219   0.00000  Uiso   1.00
C868   C     0.02083   0.83711   0.84103   0.00000  Uiso   1.00
H869   H     0.06369   0.90753   0.56118   0.00000  Uiso   1.00
H870   H     0.26812   0.99707   0.75672   0.00000  Uiso   1.00
H871   H     0.18731   0.71858   0.66989   0.00000  Uiso   1.00
H872   H     0.14603   0.94809   0.83011   0.00000  Uiso   1.00
H873   H     0.26965   0.75914   0.93882   0.00000  Uiso   1.00
H874   H     0.24277   0.87993   0.60542   0.00000  Uiso   1.00
H875   H     0.09057   0.78673   0.89458   0.00000  Uiso   1.00
H876   H     0.03342   0.76827   0.59353   0.00000  Uiso   1.00
H877   H     0.29991   0.89839   0.90647   0.00000  Uiso   1.00
H878   H     0.33182   0.91977   0.99268   0.00000  Uiso   1.00
H879   H     0.00152   0.74690   0.50732   0.00000  Uiso   1.00
H880   H     0.06521   0.66959   0.74328   0.00000  Uiso   1.00
N881   N     0.14695   0.81883   0.73740   0.00000  Uiso   1.00
N882   N     0.18638   0.84784   0.76261   0.00000  Uiso   1.00
O883   O     0.29719   0.91298   0.75310   0.00000  Uiso   1.00
O884   O     0.17809   0.75637   0.67571   0.00000  Uiso   1.00
O885   O     0.17493   0.93292   0.74789   0.00000  Uiso   1.00
O886   O     0.15526   0.91030   0.82429   0.00000  Uiso   1.00
O887   O     0.03614   0.75369   0.74690   0.00000  Uiso   1.00
O888   O     0.05822   0.90368   0.74502   0.00000  Uiso   1.00
O889   O     0.27512   0.76298   0.75499   0.00000  Uiso   1.00
O890   O     0.30328   0.84063   0.82247   0.00000  Uiso   1.00
O891   O     0.03005   0.82603   0.67753   0.00000  Uiso   1.00
O892   O     0.06431   0.83134   0.81439   0.00000  Uiso   1.00
O893   O     0.26902   0.83533   0.68561   0.00000  Uiso   1.00
O894   O     0.15840   0.73375   0.75211   0.00000  Uiso   1.00
Zn895  Zn    0.27033   0.83954   0.75540   0.00000  Uiso   1.00
Zn896  Zn    0.06300   0.82713   0.74461   0.00000  Uiso   1.00
Br897  Br    0.47325   0.86615   0.62687   0.00000  Uiso   1.00
Br898  Br    0.52675   0.80051   0.87313   0.00000  Uiso   1.00
C899   C     0.34828   0.93146   0.74880   0.00000  Uiso   1.00
C900   C     0.64583   0.82956   0.65897   0.00000  Uiso   1.00
C901   C     0.36454   0.84433   0.89363   0.00000  Uiso   1.00
C902   C     0.63546   0.82233   0.60637   0.00000  Uiso   1.00
C903   C     0.35524   0.89355   0.97020   0.00000  Uiso   1.00
C904   C     0.64476   0.77312   0.52980   0.00000  Uiso   1.00
C905   C     0.33605   0.88027   0.92186   0.00000  Uiso   1.00
C906   C     0.66395   0.78640   0.57814   0.00000  Uiso   1.00
C907   C     0.40991   0.82068   0.91421   0.00000  Uiso   1.00
C908   C     0.59009   0.84599   0.58579   0.00000  Uiso   1.00
C909   C     0.43633   0.84075   0.95870   0.00000  Uiso   1.00
C910   C     0.65172   0.73521   0.75120   0.00000  Uiso   1.00
C911   C     0.56367   0.82591   0.54130   0.00000  Uiso   1.00
C912   C     0.40566   0.87447   0.98857   0.00000  Uiso   1.00
C913   C     0.59434   0.79219   0.51143   0.00000  Uiso   1.00
C914   C     0.49081   0.82678   0.97498   0.00000  Uiso   1.00
C915   C     0.50919   0.83989   0.52502   0.00000  Uiso   1.00
C916   C     0.49514   0.76791   0.72321   0.00000  Uiso   1.00
C917   C     0.50487   0.89876   0.77680   0.00000  Uiso   1.00
C918   C     0.47165   0.86549   0.55656   0.00000  Uiso   1.00
C919   C     0.52835   0.80118   0.94344   0.00000  Uiso   1.00
C920   C     0.42345   0.88596   0.53714   0.00000  Uiso   1.00
C921   C     0.57655   0.78070   0.96286   0.00000  Uiso   1.00
C922   C     0.35595   0.98602   0.74781   0.00000  Uiso   1.00
C923   C     0.64405   0.68065   0.75219   0.00000  Uiso   1.00
C924   C     0.35417   0.83711   0.84103   0.00000  Uiso   1.00
H925   H     0.39702   0.90753   0.56118   0.00000  Uiso   1.00
H926   H     0.60146   0.99707   0.75672   0.00000  Uiso   1.00
H927   H     0.52065   0.71858   0.66989   0.00000  Uiso   1.00
H928   H     0.47936   0.94809   0.83011   0.00000  Uiso   1.00
H929   H     0.60298   0.75914   0.93882   0.00000  Uiso   1.00
H930   H     0.57610   0.87993   0.60542   0.00000  Uiso   1.00
H931   H     0.42390   0.78673   0.89458   0.00000  Uiso   1.00
H932   H     0.36675   0.76827   0.59353   0.00000  Uiso   1.00
H933   H     0.63325   0.89839   0.90647   0.00000  Uiso   1.00
H934   H     0.66515   0.91977   0.99268   0.00000  Uiso   1.00
H935   H     0.33485   0.74690   0.50732   0.00000  Uiso   1.00
H936   H     0.39854   0.66959   0.74328   0.00000  Uiso   1.00
N937   N     0.48029   0.81883   0.73740   0.00000  Uiso   1.00
N938   N     0.51971   0.84784   0.76261   0.00000  Uiso   1.00
O939   O     0.63052   0.91298   0.75310   0.00000  Uiso   1.00
O940   O     0.51142   0.75637   0.67571   0.00000  Uiso   1.00
O941   O     0.50827   0.93292   0.74789   0.00000  Uiso   1.00
O942   O     0.48859   0.91030   0.82429   0.00000  Uiso   1.00
O943   O     0.36948   0.75369   0.74690   0.00000  Uiso   1.00
O944   O     0.39155   0.90368   0.74502   0.00000  Uiso   1.00
O945   O     0.60845   0.76298   0.75499   0.00000  Uiso   1.00
O946   O     0.63662   0.84063   0.82247   0.00000  Uiso   1.00
O947   O     0.36338   0.82603   0.67753   0.00000  Uiso   1.00
O948   O     0.39764   0.83134   0.81439   0.00000  Uiso   1.00
O949   O     0.60236   0.83533   0.68561   0.00000  Uiso   1.00
O950   O     0.49173   0.73375   0.75211   0.00000  Uiso   1.00
Zn951  Zn    0.60366   0.83954   0.75540   0.00000  Uiso   1.00
Zn952  Zn    0.39634   0.82713   0.74461   0.00000  Uiso   1.00
Br953  Br    0.80658   0.86615   0.62687   0.00000  Uiso   1.00
Br954  Br    0.86009   0.80051   0.87313   0.00000  Uiso   1.00
C955   C     0.68161   0.93146   0.74880   0.00000  Uiso   1.00
C956   C     0.97917   0.82956   0.65897   0.00000  Uiso   1.00
C957   C     0.69787   0.84433   0.89363   0.00000  Uiso   1.00
C958   C     0.96880   0.82233   0.60637   0.00000  Uiso   1.00
C959   C     0.68857   0.89355   0.97020   0.00000  Uiso   1.00
C960   C     0.97810   0.77312   0.52980   0.00000  Uiso   1.00
C961   C     0.66938   0.88027   0.92186   0.00000  Uiso   1.00
C962   C     0.99728   0.78640   0.57814   0.00000  Uiso   1.00
C963   C     0.74324   0.82068   0.91421   0.00000  Uiso   1.00
C964   C     0.92343   0.84599   0.58579   0.00000  Uiso   1.00
C965   C     0.76966   0.84075   0.95870   0.00000  Uiso   1.00
C966   C     0.98506   0.73521   0.75120   0.00000  Uiso   1.00
C967   C     0.89700   0.82591   0.54130   0.00000  Uiso   1.00
C968   C     0.73899   0.87447   0.98857   0.00000  Uiso   1.00
C969   C     0.92768   0.79219   0.51143   0.00000  Uiso   1.00
C970   C     0.82415   0.82678   0.97498   0.00000  Uiso   1.00
C971   C     0.84252   0.83989   0.52502   0.00000  Uiso   1.00
C972   C     0.82847   0.76791   0.72321   0.00000  Uiso   1.00
C973   C     0.83820   0.89876   0.77680   0.00000  Uiso   1.00
C974   C     0.80498   0.86549   0.55656   0.00000  Uiso   1.00
C975   C     0.86168   0.80118   0.94344   0.00000  Uiso   1.00
C976   C     0.75678   0.88596   0.53714   0.00000  Uiso   1.00
C977   C     0.90989   0.78070   0.96286   0.00000  Uiso   1.00
C978   C     0.68928   0.98602   0.74781   0.00000  Uiso   1.00
C979   C     0.97738   0.68065   0.75219   0.00000  Uiso   1.00
C980   C     0.68750   0.83711   0.84103   0.00000  Uiso   1.00
H981   H     0.73035   0.90753   0.56118   0.00000  Uiso   1.00
H982   H     0.93479   0.99707   0.75672   0.00000  Uiso   1.00
H983   H     0.85398   0.71858   0.66989   0.00000  Uiso   1.00
H984   H     0.81270   0.94809   0.83011   0.00000  Uiso   1.00
H985   H     0.93631   0.75914   0.93882   0.00000  Uiso   1.00
H986   H     0.90943   0.87993   0.60542   0.00000  Uiso   1.00
H987   H     0.75723   0.78673   0.89458   0.00000  Uiso   1.00
H988   H     0.70009   0.76827   0.59353   0.00000  Uiso   1.00
H989   H     0.96658   0.89839   0.90647   0.00000  Uiso   1.00
H990   H     0.99848   0.91977   0.99268   0.00000  Uiso   1.00
H991   H     0.66818   0.74690   0.50732   0.00000  Uiso   1.00
H992   H     0.73188   0.66959   0.74328   0.00000  Uiso   1.00
N993   N     0.81362   0.81883   0.73740   0.00000  Uiso   1.00
N994   N     0.85305   0.84784   0.76261   0.00000  Uiso   1.00
O995   O     0.96386   0.91298   0.75310   0.00000  Uiso   1.00
O996   O     0.84476   0.75637   0.67571   0.00000  Uiso   1.00
O997   O     0.84160   0.93292   0.74789   0.00000  Uiso   1.00
O998   O     0.82192   0.91030   0.82429   0.00000  Uiso   1.00
O999   O     0.70281   0.75369   0.74690   0.00000  Uiso   1.00
O1000  O     0.72488   0.90368   0.74502   0.00000  Uiso   1.00
O1001  O     0.94178   0.76298   0.75499   0.00000  Uiso   1.00
O1002  O     0.96995   0.84063   0.82247   0.00000  Uiso   1.00
O1003  O     0.69672   0.82603   0.67753   0.00000  Uiso   1.00
O1004  O     0.73098   0.83134   0.81439   0.00000  Uiso   1.00
O1005  O     0.93569   0.83533   0.68561   0.00000  Uiso   1.00
O1006  O     0.82506   0.73375   0.75211   0.00000  Uiso   1.00
Zn1007 Zn    0.93700   0.83954   0.75540   0.00000  Uiso   1.00
Zn1008 Zn    0.72967   0.82713   0.74461   0.00000  Uiso   1.00
loop_
_geom_bond_atom_site_label_1
_geom_bond_atom_site_label_2
_geom_bond_distance
_geom_bond_site_symmetry_2
_ccdc_geom_bond_type
Br1    C22     1.926   .     S
Br2    C23     1.926   .     S
C3     O48     1.295   .     A
C3     C26     1.402   .     S
C3     O155    1.282   1_455 S
C4     O53     1.305   .     A
C4     C6      1.448   .     S
C4     O107    1.295   .     S
C5     C9      1.398   .     A
C5     C28     1.448   .     S
C5     C11     1.385   .     A
C6     C10     1.398   .     A
C6     C12     1.385   .     A
C7     C16     1.405   .     A
C7     C9      1.391   .     A
C7     H150    1.084   1_455 S
C8     C10     1.391   .     A
C8     C17     1.405   .     A
C8     H95     1.084   .     S
C9     H149    1.083   1_455 S
C10    H92     1.083   .     S
C11    C13     1.392   .     A
C11    H35     1.076   .     S
C12    C15     1.392   .     A
C12    H34     1.076   .     S
C13    C18     1.422   .     A
C13    C16     1.416   .     A
C14    C27     1.402   .     S
C14    O49     1.295   .     A
C14    O103    1.282   .     S
C15    C19     1.422   .     A
C15    C17     1.416   .     A
C16    C528    1.382   .     S
C17    C529    1.382   1_554 S
C18    C23     1.435   .     A
C18    C523    1.429   .     S
C19    C22     1.435   .     A
C19    C522    1.429   1_554 S
C20    N41     1.413   .     S
C20    O54     1.222   .     D
C20    O44     1.397   .     S
C21    O45     1.222   .     D
C21    O46     1.397   .     S
C21    N42     1.413   .     S
C22    C24     1.387   .     A
C23    C25     1.387   .     A
C24    H29     1.085   .     S
C24    C520    1.382   1_554 S
C25    H33     1.085   .     S
C25    C521    1.382   .     S
C26    C307    1.338   1_455 S
C26    H208    1.086   .     S
C27    C418    1.338   1_545 S
C27    H366    1.086   1_545 S
C28    O52     1.305   .     A
C28    O162    1.295   1_455 S
H30    C195    1.086   .     S
H31    O44     1.014   .     S
H32    O46     1.014   .     S
H36    C122    1.083   1_455 S
H37    C65     1.083   .     S
H38    C63     1.084   .     S
H39    C120    1.084   1_455 S
H40    C362    1.086   1_545 S
N41    Zn56    2.033   .     S
N41    N42     1.292   .     D
N42    Zn55    2.033   .     S
O43    Zn55    1.953   .     S
O43    C59     1.282   .     S
O47    Zn56    1.953   .     S
O47    C126    1.282   1_455 S
O48    Zn56    1.976   .     S
O49    Zn55    1.976   .     S
O50    Zn55    1.959   .     S
O50    C84     1.295   .     S
O51    Zn56    1.959   .     S
O51    C116    1.295   1_455 S
O52    Zn56    1.908   .     S
O53    Zn55    1.908   .     S
Br57   C78     1.926   .     S
Br58   C79     1.926   .     S
C59    O104    1.295   .     A
C59    C82     1.402   .     S
C60    O109    1.305   .     A
C60    C62     1.448   .     S
C60    O163    1.295   .     S
C61    C65     1.398   .     A
C61    C84     1.448   .     S
C61    C67     1.385   .     A
C62    C66     1.398   .     A
C62    C68     1.385   .     A
C63    C72     1.405   .     A
C63    C65     1.391   .     A
C64    C66     1.391   .     A
C64    C73     1.405   .     A
C64    H151    1.084   .     S
C66    H148    1.083   .     S
C67    C69     1.392   .     A
C67    H91     1.076   .     S
C68    C71     1.392   .     A
C68    H90     1.076   .     S
C69    C74     1.422   .     A
C69    C72     1.416   .     A
C70    C83     1.402   .     S
C70    O105    1.295   .     A
C70    O159    1.282   .     S
C71    C75     1.422   .     A
C71    C73     1.416   .     A
C72    C584    1.382   .     S
C73    C585    1.382   1_554 S
C74    C79     1.435   .     A
C74    C579    1.429   .     S
C75    C78     1.435   .     A
C75    C578    1.429   1_554 S
C76    N97     1.413   .     S
C76    O110    1.222   .     D
C76    O100    1.397   .     S
C77    O101    1.222   .     D
C77    O102    1.397   .     S
C77    N98     1.413   .     S
C78    C80     1.387   .     A
C79    C81     1.387   .     A
C80    H85     1.085   .     S
C80    C576    1.382   1_554 S
C81    H89     1.085   .     S
C81    C577    1.382   .     S
C82    C195    1.338   .     S
C82    H264    1.086   .     S
C83    C474    1.338   1_545 S
C83    H422    1.086   1_545 S
C84    O108    1.305   .     A
H86    C251    1.086   .     S
H87    O100    1.014   .     S
H88    O102    1.014   .     S
H93    C121    1.083   .     S
H94    C119    1.084   .     S
H96    C418    1.086   1_545 S
N97    Zn112   2.033   .     S
N97    N98     1.292   .     D
N98    Zn111   2.033   .     S
O99    Zn111   1.953   .     S
O99    C115    1.282   .     S
O103   Zn112   1.953   .     S
O104   Zn112   1.976   .     S
O105   Zn111   1.976   .     S
O106   Zn111   1.959   .     S
O106   C140    1.295   .     S
O107   Zn112   1.959   .     S
O108   Zn112   1.908   .     S
O109   Zn111   1.908   .     S
Br113  C134    1.926   .     S
Br114  C135    1.926   .     S
C115   O160    1.295   .     A
C115   C138    1.402   .     S
C116   O165    1.305   .     A
C116   C118    1.448   .     S
C116   O51     1.295   1_655 S
C117   C121    1.398   .     A
C117   C140    1.448   .     S
C117   C123    1.385   .     A
C118   C122    1.398   .     A
C118   C124    1.385   .     A
C119   C128    1.405   .     A
C119   C121    1.391   .     A
C120   C122    1.391   .     A
C120   C129    1.405   .     A
C120   H39     1.084   1_655 S
C122   H36     1.083   1_655 S
C123   C125    1.392   .     A
C123   H147    1.076   .     S
C124   C127    1.392   .     A
C124   H146    1.076   .     S
C125   C130    1.422   .     A
C125   C128    1.416   .     A
C126   C139    1.402   .     S
C126   O161    1.295   .     A
C126   O47     1.282   1_655 S
C127   C131    1.422   .     A
C127   C129    1.416   .     A
C128   C640    1.382   .     S
C129   C641    1.382   1_554 S
C130   C135    1.435   .     A
C130   C635    1.429   .     S
C131   C134    1.435   .     A
C131   C634    1.429   1_554 S
C132   N153    1.413   .     S
C132   O166    1.222   .     D
C132   O156    1.397   .     S
C133   O157    1.222   .     D
C133   O158    1.397   .     S
C133   N154    1.413   .     S
C134   C136    1.387   .     A
C135   C137    1.387   .     A
C136   H141    1.085   .     S
C136   C632    1.382   1_554 S
C137   H145    1.085   .     S
C137   C633    1.382   .     S
C138   C251    1.338   .     S
C138   H320    1.086   .     S
C139   C362    1.338   1_645 S
C139   H478    1.086   1_545 S
C140   O164    1.305   .     A
H142   C307    1.086   .     S
H143   O156    1.014   .     S
H144   O158    1.014   .     S
H149   C9      1.083   1_655 S
H150   C7      1.084   1_655 S
H152   C474    1.086   1_545 S
N153   Zn168   2.033   .     S
N153   N154    1.292   .     D
N154   Zn167   2.033   .     S
O155   Zn167   1.953   .     S
O155   C3      1.282   1_655 S
O159   Zn168   1.953   .     S
O160   Zn168   1.976   .     S
O161   Zn167   1.976   .     S
O162   Zn167   1.959   .     S
O162   C28     1.295   1_655 S
O163   Zn168   1.959   .     S
O164   Zn168   1.908   .     S
O165   Zn167   1.908   .     S
Br169  C190    1.926   .     S
Br170  C191    1.926   .     S
C171   O216    1.295   .     A
C171   C194    1.402   .     S
C171   O323    1.282   1_455 S
C172   O221    1.305   .     A
C172   C174    1.448   .     S
C172   O275    1.295   .     S
C173   C177    1.398   .     A
C173   C196    1.448   .     S
C173   C179    1.385   .     A
C174   C178    1.398   .     A
C174   C180    1.385   .     A
C175   C184    1.405   .     A
C175   C177    1.391   .     A
C175   H318    1.084   1_455 S
C176   C178    1.391   .     A
C176   C185    1.405   .     A
C176   H263    1.084   .     S
C177   H317    1.083   1_455 S
C178   H260    1.083   .     S
C179   C181    1.392   .     A
C179   H203    1.076   .     S
C180   C183    1.392   .     A
C180   H202    1.076   .     S
C181   C186    1.422   .     A
C181   C184    1.416   .     A
C182   C195    1.402   .     S
C182   O217    1.295   .     A
C182   O271    1.282   .     S
C183   C187    1.422   .     A
C183   C185    1.416   .     A
C184   C696    1.382   .     S
C185   C697    1.382   1_554 S
C186   C191    1.435   .     A
C186   C691    1.429   .     S
C187   C190    1.435   .     A
C187   C690    1.429   1_554 S
C188   N209    1.413   .     S
C188   O222    1.222   .     D
C188   O212    1.397   .     S
C189   O213    1.222   .     D
C189   O214    1.397   .     S
C189   N210    1.413   .     S
C190   C192    1.387   .     A
C191   C193    1.387   .     A
C192   H197    1.085   .     S
C192   C688    1.382   1_554 S
C193   H201    1.085   .     S
C193   C689    1.382   .     S
C194   C475    1.338   1_455 S
C194   H376    1.086   .     S
C196   O220    1.305   .     A
C196   O330    1.295   1_455 S
H198   C363    1.086   .     S
H199   O212    1.014   .     S
H200   O214    1.014   .     S
H204   C290    1.083   1_455 S
H205   C233    1.083   .     S
H206   C231    1.084   .     S
H207   C288    1.084   1_455 S
N209   Zn224   2.033   .     S
N209   N210    1.292   .     D
N210   Zn223   2.033   .     S
O211   Zn223   1.953   .     S
O211   C227    1.282   .     S
O215   Zn224   1.953   .     S
O215   C294    1.282   1_455 S
O216   Zn224   1.976   .     S
O217   Zn223   1.976   .     S
O218   Zn223   1.959   .     S
O218   C252    1.295   .     S
O219   Zn224   1.959   .     S
O219   C284    1.295   1_455 S
O220   Zn224   1.908   .     S
O221   Zn223   1.908   .     S
Br225  C246    1.926   .     S
Br226  C247    1.926   .     S
C227   O272    1.295   .     A
C227   C250    1.402   .     S
C228   O277    1.305   .     A
C228   C230    1.448   .     S
C228   O331    1.295   .     S
C229   C233    1.398   .     A
C229   C252    1.448   .     S
C229   C235    1.385   .     A
C230   C234    1.398   .     A
C230   C236    1.385   .     A
C231   C240    1.405   .     A
C231   C233    1.391   .     A
C232   C234    1.391   .     A
C232   C241    1.405   .     A
C232   H319    1.084   .     S
C234   H316    1.083   .     S
C235   C237    1.392   .     A
C235   H259    1.076   .     S
C236   C239    1.392   .     A
C236   H258    1.076   .     S
C237   C242    1.422   .     A
C237   C240    1.416   .     A
C238   C251    1.402   .     S
C238   O273    1.295   .     A
C238   O327    1.282   .     S
C239   C243    1.422   .     A
C239   C241    1.416   .     A
C240   C752    1.382   .     S
C241   C753    1.382   1_554 S
C242   C247    1.435   .     A
C242   C747    1.429   .     S
C243   C246    1.435   .     A
C243   C746    1.429   1_554 S
C244   N265    1.413   .     S
C244   O278    1.222   .     D
C244   O268    1.397   .     S
C245   O269    1.222   .     D
C245   O270    1.397   .     S
C245   N266    1.413   .     S
C246   C248    1.387   .     A
C247   C249    1.387   .     A
C248   H253    1.085   .     S
C248   C744    1.382   1_554 S
C249   H257    1.085   .     S
C249   C745    1.382   .     S
C250   C363    1.338   .     S
C250   H432    1.086   .     S
C252   O276    1.305   .     A
H254   C419    1.086   .     S
H255   O268    1.014   .     S
H256   O270    1.014   .     S
H261   C289    1.083   .     S
H262   C287    1.084   .     S
N265   Zn280   2.033   .     S
N265   N266    1.292   .     D
N266   Zn279   2.033   .     S
O267   Zn279   1.953   .     S
O267   C283    1.282   .     S
O271   Zn280   1.953   .     S
O272   Zn280   1.976   .     S
O273   Zn279   1.976   .     S
O274   Zn279   1.959   .     S
O274   C308    1.295   .     S
O275   Zn280   1.959   .     S
O276   Zn280   1.908   .     S
O277   Zn279   1.908   .     S
Br281  C302    1.926   .     S
Br282  C303    1.926   .     S
C283   O328    1.295   .     A
C283   C306    1.402   .     S
C284   O333    1.305   .     A
C284   C286    1.448   .     S
C284   O219    1.295   1_655 S
C285   C289    1.398   .     A
C285   C308    1.448   .     S
C285   C291    1.385   .     A
C286   C290    1.398   .     A
C286   C292    1.385   .     A
C287   C296    1.405   .     A
C287   C289    1.391   .     A
C288   C290    1.391   .     A
C288   C297    1.405   .     A
C288   H207    1.084   1_655 S
C290   H204    1.083   1_655 S
C291   C293    1.392   .     A
C291   H315    1.076   .     S
C292   C295    1.392   .     A
C292   H314    1.076   .     S
C293   C298    1.422   .     A
C293   C296    1.416   .     A
C294   C307    1.402   .     S
C294   O329    1.295   .     A
C294   O215    1.282   1_655 S
C295   C299    1.422   .     A
C295   C297    1.416   .     A
C296   C808    1.382   .     S
C297   C809    1.382   1_554 S
C298   C303    1.435   .     A
C298   C803    1.429   .     S
C299   C302    1.435   .     A
C299   C802    1.429   1_554 S
C300   N321    1.413   .     S
C300   O334    1.222   .     D
C300   O324    1.397   .     S
C301   O325    1.222   .     D
C301   O326    1.397   .     S
C301   N322    1.413   .     S
C302   C304    1.387   .     A
C303   C305    1.387   .     A
C304   H309    1.085   .     S
C304   C800    1.382   1_554 S
C305   H313    1.085   .     S
C305   C801    1.382   .     S
C306   C419    1.338   .     S
C306   H488    1.086   .     S
C307   C26     1.338   1_655 S
C308   O332    1.305   .     A
H310   C475    1.086   .     S
H311   O324    1.014   .     S
H312   O326    1.014   .     S
H317   C177    1.083   1_655 S
H318   C175    1.084   1_655 S
N321   Zn336   2.033   .     S
N321   N322    1.292   .     D
N322   Zn335   2.033   .     S
O323   Zn335   1.953   .     S
O323   C171    1.282   1_655 S
O327   Zn336   1.953   .     S
O328   Zn336   1.976   .     S
O329   Zn335   1.976   .     S
O330   Zn335   1.959   .     S
O330   C196    1.295   1_655 S
O331   Zn336   1.959   .     S
O332   Zn336   1.908   .     S
O333   Zn335   1.908   .     S
Br337  C358    1.926   .     S
Br338  C359    1.926   .     S
C339   O384    1.295   .     A
C339   C362    1.402   .     S
C339   O491    1.282   1_455 S
C340   O389    1.305   .     A
C340   C342    1.448   .     S
C340   O443    1.295   .     S
C341   C345    1.398   .     A
C341   C364    1.448   .     S
C341   C347    1.385   .     A
C342   C346    1.398   .     A
C342   C348    1.385   .     A
C343   C352    1.405   .     A
C343   C345    1.391   .     A
C343   H486    1.084   1_455 S
C344   C346    1.391   .     A
C344   C353    1.405   .     A
C344   H431    1.084   .     S
C345   H485    1.083   1_455 S
C346   H428    1.083   .     S
C347   C349    1.392   .     A
C347   H371    1.076   .     S
C348   C351    1.392   .     A
C348   H370    1.076   .     S
C349   C354    1.422   .     A
C349   C352    1.416   .     A
C350   C363    1.402   .     S
C350   O385    1.295   .     A
C350   O439    1.282   .     S
C351   C355    1.422   .     A
C351   C353    1.416   .     A
C352   C864    1.382   .     S
C353   C865    1.382   1_554 S
C354   C359    1.435   .     A
C354   C859    1.429   .     S
C355   C358    1.435   .     A
C355   C858    1.429   1_554 S
C356   N377    1.413   .     S
C356   O390    1.222   .     D
C356   O380    1.397   .     S
C357   O381    1.222   .     D
C357   O382    1.397   .     S
C357   N378    1.413   .     S
C358   C360    1.387   .     A
C359   C361    1.387   .     A
C360   H365    1.085   .     S
C360   C856    1.382   1_554 S
C361   H369    1.085   .     S
C361   C857    1.382   .     S
C362   C139    1.338   1_465 S
C362   H40     1.086   1_565 S
C364   O388    1.305   .     A
C364   O498    1.295   1_455 S
H366   C27     1.086   1_565 S
H367   O380    1.014   .     S
H368   O382    1.014   .     S
H372   C458    1.083   1_455 S
H373   C401    1.083   .     S
H374   C399    1.084   .     S
H375   C456    1.084   1_455 S
N377   Zn392   2.033   .     S
N377   N378    1.292   .     D
N378   Zn391   2.033   .     S
O379   Zn391   1.953   .     S
O379   C395    1.282   .     S
O383   Zn392   1.953   .     S
O383   C462    1.282   1_455 S
O384   Zn392   1.976   .     S
O385   Zn391   1.976   .     S
O386   Zn391   1.959   .     S
O386   C420    1.295   .     S
O387   Zn392   1.959   .     S
O387   C452    1.295   1_455 S
O388   Zn392   1.908   .     S
O389   Zn391   1.908   .     S
Br393  C414    1.926   .     S
Br394  C415    1.926   .     S
C395   O440    1.295   .     A
C395   C418    1.402   .     S
C396   O445    1.305   .     A
C396   C398    1.448   .     S
C396   O499    1.295   .     S
C397   C401    1.398   .     A
C397   C420    1.448   .     S
C397   C403    1.385   .     A
C398   C402    1.398   .     A
C398   C404    1.385   .     A
C399   C408    1.405   .     A
C399   C401    1.391   .     A
C400   C402    1.391   .     A
C400   C409    1.405   .     A
C400   H487    1.084   .     S
C402   H484    1.083   .     S
C403   C405    1.392   .     A
C403   H427    1.076   .     S
C404   C407    1.392   .     A
C404   H426    1.076   .     S
C405   C410    1.422   .     A
C405   C408    1.416   .     A
C406   C419    1.402   .     S
C406   O441    1.295   .     A
C406   O495    1.282   .     S
C407   C411    1.422   .     A
C407   C409    1.416   .     A
C408   C920    1.382   .     S
C409   C921    1.382   1_554 S
C410   C415    1.435   .     A
C410   C915    1.429   .     S
C411   C414    1.435   .     A
C411   C914    1.429   1_554 S
C412   N433    1.413   .     S
C412   O446    1.222   .     D
C412   O436    1.397   .     S
C413   O437    1.222   .     D
C413   O438    1.397   .     S
C413   N434    1.413   .     S
C414   C416    1.387   .     A
C415   C417    1.387   .     A
C416   H421    1.085   .     S
C416   C912    1.382   1_554 S
C417   H425    1.085   .     S
C417   C913    1.382   .     S
C418   C27     1.338   1_565 S
C418   H96     1.086   1_565 S
C420   O444    1.305   .     A
H422   C83     1.086   1_565 S
H423   O436    1.014   .     S
H424   O438    1.014   .     S
H429   C457    1.083   .     S
H430   C455    1.084   .     S
N433   Zn448   2.033   .     S
N433   N434    1.292   .     D
N434   Zn447   2.033   .     S
O435   Zn447   1.953   .     S
O435   C451    1.282   .     S
O439   Zn448   1.953   .     S
O440   Zn448   1.976   .     S
O441   Zn447   1.976   .     S
O442   Zn447   1.959   .     S
O442   C476    1.295   .     S
O443   Zn448   1.959   .     S
O444   Zn448   1.908   .     S
O445   Zn447   1.908   .     S
Br449  C470    1.926   .     S
Br450  C471    1.926   .     S
C451   O496    1.295   .     A
C451   C474    1.402   .     S
C452   O501    1.305   .     A
C452   C454    1.448   .     S
C452   O387    1.295   1_655 S
C453   C457    1.398   .     A
C453   C476    1.448   .     S
C453   C459    1.385   .     A
C454   C458    1.398   .     A
C454   C460    1.385   .     A
C455   C464    1.405   .     A
C455   C457    1.391   .     A
C456   C458    1.391   .     A
C456   C465    1.405   .     A
C456   H375    1.084   1_655 S
C458   H372    1.083   1_655 S
C459   C461    1.392   .     A
C459   H483    1.076   .     S
C460   C463    1.392   .     A
C460   H482    1.076   .     S
C461   C466    1.422   .     A
C461   C464    1.416   .     A
C462   C475    1.402   .     S
C462   O497    1.295   .     A
C462   O383    1.282   1_655 S
C463   C467    1.422   .     A
C463   C465    1.416   .     A
C464   C976    1.382   .     S
C465   C977    1.382   1_554 S
C466   C471    1.435   .     A
C466   C971    1.429   .     S
C467   C470    1.435   .     A
C467   C970    1.429   1_554 S
C468   N489    1.413   .     S
C468   O502    1.222   .     D
C468   O492    1.397   .     S
C469   O493    1.222   .     D
C469   O494    1.397   .     S
C469   N490    1.413   .     S
C470   C472    1.387   .     A
C471   C473    1.387   .     A
C472   H477    1.085   .     S
C472   C968    1.382   1_554 S
C473   H481    1.085   .     S
C473   C969    1.382   .     S
C474   C83     1.338   1_565 S
C474   H152    1.086   1_565 S
C475   C194    1.338   1_655 S
C476   O500    1.305   .     A
H478   C139    1.086   1_565 S
H479   O492    1.014   .     S
H480   O494    1.014   .     S
H485   C345    1.083   1_655 S
H486   C343    1.084   1_655 S
N489   Zn504   2.033   .     S
N489   N490    1.292   .     D
N490   Zn503   2.033   .     S
O491   Zn503   1.953   .     S
O491   C339    1.282   1_655 S
O495   Zn504   1.953   .     S
O496   Zn504   1.976   .     S
O497   Zn503   1.976   .     S
O498   Zn503   1.959   .     S
O498   C364    1.295   1_655 S
O499   Zn504   1.959   .     S
O500   Zn504   1.908   .     S
O501   Zn503   1.908   .     S
Br505  C526    1.926   .     S
Br506  C527    1.926   .     S
C507   O552    1.295   .     A
C507   C530    1.402   .     S
C507   O659    1.282   1_455 S
C508   O557    1.305   .     A
C508   C510    1.448   .     S
C508   O611    1.295   .     S
C509   C513    1.398   .     A
C509   C532    1.448   .     S
C509   C515    1.385   .     A
C510   C514    1.398   .     A
C510   C516    1.385   .     A
C511   C520    1.405   .     A
C511   C513    1.391   .     A
C511   H654    1.084   1_455 S
C512   C514    1.391   .     A
C512   C521    1.405   .     A
C512   H599    1.084   .     S
C513   H653    1.083   1_455 S
C514   H596    1.083   .     S
C515   C517    1.392   .     A
C515   H539    1.076   .     S
C516   C519    1.392   .     A
C516   H538    1.076   .     S
C517   C522    1.422   .     A
C517   C520    1.416   .     A
C518   C531    1.402   .     S
C518   O553    1.295   .     A
C518   O607    1.282   .     S
C519   C523    1.422   .     A
C519   C521    1.416   .     A
C520   C24     1.382   1_556 S
C522   C527    1.435   .     A
C522   C19     1.429   1_556 S
C523   C526    1.435   .     A
C524   N545    1.413   .     S
C524   O558    1.222   .     D
C524   O548    1.397   .     S
C525   O549    1.222   .     D
C525   O550    1.397   .     S
C525   N546    1.413   .     S
C526   C528    1.387   .     A
C527   C529    1.387   .     A
C528   H533    1.085   .     S
C529   H537    1.085   .     S
C529   C17     1.382   1_556 S
C530   C811    1.338   1_455 S
C530   H712    1.086   .     S
C531   C922    1.338   1_545 S
C531   H870    1.086   1_545 S
C532   O556    1.305   .     A
C532   O666    1.295   1_455 S
H534   C699    1.086   .     S
H535   O548    1.014   .     S
H536   O550    1.014   .     S
H540   C626    1.083   1_455 S
H541   C569    1.083   .     S
H542   C567    1.084   .     S
H543   C624    1.084   1_455 S
H544   C866    1.086   1_545 S
N545   Zn560   2.033   .     S
N545   N546    1.292   .     D
N546   Zn559   2.033   .     S
O547   Zn559   1.953   .     S
O547   C563    1.282   .     S
O551   Zn560   1.953   .     S
O551   C630    1.282   1_455 S
O552   Zn560   1.976   .     S
O553   Zn559   1.976   .     S
O554   Zn559   1.959   .     S
O554   C588    1.295   .     S
O555   Zn560   1.959   .     S
O555   C620    1.295   1_455 S
O556   Zn560   1.908   .     S
O557   Zn559   1.908   .     S
Br561  C582    1.926   .     S
Br562  C583    1.926   .     S
C563   O608    1.295   .     A
C563   C586    1.402   .     S
C564   O613    1.305   .     A
C564   C566    1.448   .     S
C564   O667    1.295   .     S
C565   C569    1.398   .     A
C565   C588    1.448   .     S
C565   C571    1.385   .     A
C566   C570    1.398   .     A
C566   C572    1.385   .     A
C567   C576    1.405   .     A
C567   C569    1.391   .     A
C568   C570    1.391   .     A
C568   C577    1.405   .     A
C568   H655    1.084   .     S
C570   H652    1.083   .     S
C571   C573    1.392   .     A
C571   H595    1.076   .     S
C572   C575    1.392   .     A
C572   H594    1.076   .     S
C573   C578    1.422   .     A
C573   C576    1.416   .     A
C574   C587    1.402   .     S
C574   O609    1.295   .     A
C574   O663    1.282   .     S
C575   C579    1.422   .     A
C575   C577    1.416   .     A
C576   C80     1.382   1_556 S
C578   C583    1.435   .     A
C578   C75     1.429   1_556 S
C579   C582    1.435   .     A
C580   N601    1.413   .     S
C580   O614    1.222   .     D
C580   O604    1.397   .     S
C581   O605    1.222   .     D
C581   O606    1.397   .     S
C581   N602    1.413   .     S
C582   C584    1.387   .     A
C583   C585    1.387   .     A
C584   H589    1.085   .     S
C585   H593    1.085   .     S
C585   C73     1.382   1_556 S
C586   C699    1.338   .     S
C586   H768    1.086   .     S
C587   C978    1.338   1_545 S
C587   H926    1.086   1_545 S
C588   O612    1.305   .     A
H590   C755    1.086   .     S
H591   O604    1.014   .     S
H592   O606    1.014   .     S
H597   C625    1.083   .     S
H598   C623    1.084   .     S
H600   C922    1.086   1_545 S
N601   Zn616   2.033   .     S
N601   N602    1.292   .     D
N602   Zn615   2.033   .     S
O603   Zn615   1.953   .     S
O603   C619    1.282   .     S
O607   Zn616   1.953   .     S
O608   Zn616   1.976   .     S
O609   Zn615   1.976   .     S
O610   Zn615   1.959   .     S
O610   C644    1.295   .     S
O611   Zn616   1.959   .     S
O612   Zn616   1.908   .     S
O613   Zn615   1.908   .     S
Br617  C638    1.926   .     S
Br618  C639    1.926   .     S
C619   O664    1.295   .     A
C619   C642    1.402   .     S
C620   O669    1.305   .     A
C620   C622    1.448   .     S
C620   O555    1.295   1_655 S
C621   C625    1.398   .     A
C621   C644    1.448   .     S
C621   C627    1.385   .     A
C622   C626    1.398   .     A
C622   C628    1.385   .     A
C623   C632    1.405   .     A
C623   C625    1.391   .     A
C624   C626    1.391   .     A
C624   C633    1.405   .     A
C624   H543    1.084   1_655 S
C626   H540    1.083   1_655 S
C627   C629    1.392   .     A
C627   H651    1.076   .     S
C628   C631    1.392   .     A
C628   H650    1.076   .     S
C629   C634    1.422   .     A
C629   C632    1.416   .     A
C630   C643    1.402   .     S
C630   O665    1.295   .     A
C630   O551    1.282   1_655 S
C631   C635    1.422   .     A
C631   C633    1.416   .     A
C632   C136    1.382   1_556 S
C634   C639    1.435   .     A
C634   C131    1.429   1_556 S
C635   C638    1.435   .     A
C636   N657    1.413   .     S
C636   O670    1.222   .     D
C636   O660    1.397   .     S
C637   O661    1.222   .     D
C637   O662    1.397   .     S
C637   N658    1.413   .     S
C638   C640    1.387   .     A
C639   C641    1.387   .     A
C640   H645    1.085   .     S
C641   H649    1.085   .     S
C641   C129    1.382   1_556 S
C642   C755    1.338   .     S
C642   H824    1.086   .     S
C643   C866    1.338   1_645 S
C643   H982    1.086   1_545 S
C644   O668    1.305   .     A
H646   C811    1.086   .     S
H647   O660    1.014   .     S
H648   O662    1.014   .     S
H653   C513    1.083   1_655 S
H654   C511    1.084   1_655 S
H656   C978    1.086   1_545 S
N657   Zn672   2.033   .     S
N657   N658    1.292   .     D
N658   Zn671   2.033   .     S
O659   Zn671   1.953   .     S
O659   C507    1.282   1_655 S
O663   Zn672   1.953   .     S
O664   Zn672   1.976   .     S
O665   Zn671   1.976   .     S
O666   Zn671   1.959   .     S
O666   C532    1.295   1_655 S
O667   Zn672   1.959   .     S
O668   Zn672   1.908   .     S
O669   Zn671   1.908   .     S
Br673  C694    1.926   .     S
Br674  C695    1.926   .     S
C675   O720    1.295   .     A
C675   C698    1.402   .     S
C675   O827    1.282   1_455 S
C676   O725    1.305   .     A
C676   C678    1.448   .     S
C676   O779    1.295   .     S
C677   C681    1.398   .     A
C677   C700    1.448   .     S
C677   C683    1.385   .     A
C678   C682    1.398   .     A
C678   C684    1.385   .     A
C679   C688    1.405   .     A
C679   C681    1.391   .     A
C679   H822    1.084   1_455 S
C680   C682    1.391   .     A
C680   C689    1.405   .     A
C680   H767    1.084   .     S
C681   H821    1.083   1_455 S
C682   H764    1.083   .     S
C683   C685    1.392   .     A
C683   H707    1.076   .     S
C684   C687    1.392   .     A
C684   H706    1.076   .     S
C685   C690    1.422   .     A
C685   C688    1.416   .     A
C686   C699    1.402   .     S
C686   O721    1.295   .     A
C686   O775    1.282   .     S
C687   C691    1.422   .     A
C687   C689    1.416   .     A
C688   C192    1.382   1_556 S
C690   C695    1.435   .     A
C690   C187    1.429   1_556 S
C691   C694    1.435   .     A
C692   N713    1.413   .     S
C692   O726    1.222   .     D
C692   O716    1.397   .     S
C693   O717    1.222   .     D
C693   O718    1.397   .     S
C693   N714    1.413   .     S
C694   C696    1.387   .     A
C695   C697    1.387   .     A
C696   H701    1.085   .     S
C697   H705    1.085   .     S
C697   C185    1.382   1_556 S
C698   C979    1.338   1_455 S
C698   H880    1.086   .     S
C700   O724    1.305   .     A
C700   O834    1.295   1_455 S
H702   C867    1.086   .     S
H703   O716    1.014   .     S
H704   O718    1.014   .     S
H708   C794    1.083   1_455 S
H709   C737    1.083   .     S
H710   C735    1.084   .     S
H711   C792    1.084   1_455 S
N713   Zn728   2.033   .     S
N713   N714    1.292   .     D
N714   Zn727   2.033   .     S
O715   Zn727   1.953   .     S
O715   C731    1.282   .     S
O719   Zn728   1.953   .     S
O719   C798    1.282   1_455 S
O720   Zn728   1.976   .     S
O721   Zn727   1.976   .     S
O722   Zn727   1.959   .     S
O722   C756    1.295   .     S
O723   Zn728   1.959   .     S
O723   C788    1.295   1_455 S
O724   Zn728   1.908   .     S
O725   Zn727   1.908   .     S
Br729  C750    1.926   .     S
Br730  C751    1.926   .     S
C731   O776    1.295   .     A
C731   C754    1.402   .     S
C732   O781    1.305   .     A
C732   C734    1.448   .     S
C732   O835    1.295   .     S
C733   C737    1.398   .     A
C733   C756    1.448   .     S
C733   C739    1.385   .     A
C734   C738    1.398   .     A
C734   C740    1.385   .     A
C735   C744    1.405   .     A
C735   C737    1.391   .     A
C736   C738    1.391   .     A
C736   C745    1.405   .     A
C736   H823    1.084   .     S
C738   H820    1.083   .     S
C739   C741    1.392   .     A
C739   H763    1.076   .     S
C740   C743    1.392   .     A
C740   H762    1.076   .     S
C741   C746    1.422   .     A
C741   C744    1.416   .     A
C742   C755    1.402   .     S
C742   O777    1.295   .     A
C742   O831    1.282   .     S
C743   C747    1.422   .     A
C743   C745    1.416   .     A
C744   C248    1.382   1_556 S
C746   C751    1.435   .     A
C746   C243    1.429   1_556 S
C747   C750    1.435   .     A
C748   N769    1.413   .     S
C748   O782    1.222   .     D
C748   O772    1.397   .     S
C749   O773    1.222   .     D
C749   O774    1.397   .     S
C749   N770    1.413   .     S
C750   C752    1.387   .     A
C751   C753    1.387   .     A
C752   H757    1.085   .     S
C753   H761    1.085   .     S
C753   C241    1.382   1_556 S
C754   C867    1.338   .     S
C754   H936    1.086   .     S
C756   O780    1.305   .     A
H758   C923    1.086   .     S
H759   O772    1.014   .     S
H760   O774    1.014   .     S
H765   C793    1.083   .     S
H766   C791    1.084   .     S
N769   Zn784   2.033   .     S
N769   N770    1.292   .     D
N770   Zn783   2.033   .     S
O771   Zn783   1.953   .     S
O771   C787    1.282   .     S
O775   Zn784   1.953   .     S
O776   Zn784   1.976   .     S
O777   Zn783   1.976   .     S
O778   Zn783   1.959   .     S
O778   C812    1.295   .     S
O779   Zn784   1.959   .     S
O780   Zn784   1.908   .     S
O781   Zn783   1.908   .     S
Br785  C806    1.926   .     S
Br786  C807    1.926   .     S
C787   O832    1.295   .     A
C787   C810    1.402   .     S
C788   O837    1.305   .     A
C788   C790    1.448   .     S
C788   O723    1.295   1_655 S
C789   C793    1.398   .     A
C789   C812    1.448   .     S
C789   C795    1.385   .     A
C790   C794    1.398   .     A
C790   C796    1.385   .     A
C791   C800    1.405   .     A
C791   C793    1.391   .     A
C792   C794    1.391   .     A
C792   C801    1.405   .     A
C792   H711    1.084   1_655 S
C794   H708    1.083   1_655 S
C795   C797    1.392   .     A
C795   H819    1.076   .     S
C796   C799    1.392   .     A
C796   H818    1.076   .     S
C797   C802    1.422   .     A
C797   C800    1.416   .     A
C798   C811    1.402   .     S
C798   O833    1.295   .     A
C798   O719    1.282   1_655 S
C799   C803    1.422   .     A
C799   C801    1.416   .     A
C800   C304    1.382   1_556 S
C802   C807    1.435   .     A
C802   C299    1.429   1_556 S
C803   C806    1.435   .     A
C804   N825    1.413   .     S
C804   O838    1.222   .     D
C804   O828    1.397   .     S
C805   O829    1.222   .     D
C805   O830    1.397   .     S
C805   N826    1.413   .     S
C806   C808    1.387   .     A
C807   C809    1.387   .     A
C808   H813    1.085   .     S
C809   H817    1.085   .     S
C809   C297    1.382   1_556 S
C810   C923    1.338   .     S
C810   H992    1.086   .     S
C811   C530    1.338   1_655 S
C812   O836    1.305   .     A
H814   C979    1.086   .     S
H815   O828    1.014   .     S
H816   O830    1.014   .     S
H821   C681    1.083   1_655 S
H822   C679    1.084   1_655 S
N825   Zn840   2.033   .     S
N825   N826    1.292   .     D
N826   Zn839   2.033   .     S
O827   Zn839   1.953   .     S
O827   C675    1.282   1_655 S
O831   Zn840   1.953   .     S
O832   Zn840   1.976   .     S
O833   Zn839   1.976   .     S
O834   Zn839   1.959   .     S
O834   C700    1.295   1_655 S
O835   Zn840   1.959   .     S
O836   Zn840   1.908   .     S
O837   Zn839   1.908   .     S
Br841  C862    1.926   .     S
Br842  C863    1.926   .     S
C843   O888    1.295   .     A
C843   C866    1.402   .     S
C843   O995    1.282   1_455 S
C844   O893    1.305   .     A
C844   C846    1.448   .     S
C844   O947    1.295   .     S
C845   C849    1.398   .     A
C845   C868    1.448   .     S
C845   C851    1.385   .     A
C846   C850    1.398   .     A
C846   C852    1.385   .     A
C847   C856    1.405   .     A
C847   C849    1.391   .     A
C847   H990    1.084   1_455 S
C848   C850    1.391   .     A
C848   C857    1.405   .     A
C848   H935    1.084   .     S
C849   H989    1.083   1_455 S
C850   H932    1.083   .     S
C851   C853    1.392   .     A
C851   H875    1.076   .     S
C852   C855    1.392   .     A
C852   H874    1.076   .     S
C853   C858    1.422   .     A
C853   C856    1.416   .     A
C854   C867    1.402   .     S
C854   O889    1.295   .     A
C854   O943    1.282   .     S
C855   C859    1.422   .     A
C855   C857    1.416   .     A
C856   C360    1.382   1_556 S
C858   C863    1.435   .     A
C858   C355    1.429   1_556 S
C859   C862    1.435   .     A
C860   N881    1.413   .     S
C860   O894    1.222   .     D
C860   O884    1.397   .     S
C861   O885    1.222   .     D
C861   O886    1.397   .     S
C861   N882    1.413   .     S
C862   C864    1.387   .     A
C863   C865    1.387   .     A
C864   H869    1.085   .     S
C865   H873    1.085   .     S
C865   C353    1.382   1_556 S
C866   C643    1.338   1_465 S
C866   H544    1.086   1_565 S
C868   O892    1.305   .     A
C868   O1002   1.295   1_455 S
H870   C531    1.086   1_565 S
H871   O884    1.014   .     S
H872   O886    1.014   .     S
H876   C962    1.083   1_455 S
H877   C905    1.083   .     S
H878   C903    1.084   .     S
H879   C960    1.084   1_455 S
N881   Zn896   2.033   .     S
N881   N882    1.292   .     D
N882   Zn895   2.033   .     S
O883   Zn895   1.953   .     S
O883   C899    1.282   .     S
O887   Zn896   1.953   .     S
O887   C966    1.282   1_455 S
O888   Zn896   1.976   .     S
O889   Zn895   1.976   .     S
O890   Zn895   1.959   .     S
O890   C924    1.295   .     S
O891   Zn896   1.959   .     S
O891   C956    1.295   1_455 S
O892   Zn896   1.908   .     S
O893   Zn895   1.908   .     S
Br897  C918    1.926   .     S
Br898  C919    1.926   .     S
C899   O944    1.295   .     A
C899   C922    1.402   .     S
C900   O949    1.305   .     A
C900   C902    1.448   .     S
C900   O1003   1.295   .     S
C901   C905    1.398   .     A
C901   C924    1.448   .     S
C901   C907    1.385   .     A
C902   C906    1.398   .     A
C902   C908    1.385   .     A
C903   C912    1.405   .     A
C903   C905    1.391   .     A
C904   C906    1.391   .     A
C904   C913    1.405   .     A
C904   H991    1.084   .     S
C906   H988    1.083   .     S
C907   C909    1.392   .     A
C907   H931    1.076   .     S
C908   C911    1.392   .     A
C908   H930    1.076   .     S
C909   C914    1.422   .     A
C909   C912    1.416   .     A
C910   C923    1.402   .     S
C910   O945    1.295   .     A
C910   O999    1.282   .     S
C911   C915    1.422   .     A
C911   C913    1.416   .     A
C912   C416    1.382   1_556 S
C914   C919    1.435   .     A
C914   C411    1.429   1_556 S
C915   C918    1.435   .     A
C916   N937    1.413   .     S
C916   O950    1.222   .     D
C916   O940    1.397   .     S
C917   O941    1.222   .     D
C917   O942    1.397   .     S
C917   N938    1.413   .     S
C918   C920    1.387   .     A
C919   C921    1.387   .     A
C920   H925    1.085   .     S
C921   H929    1.085   .     S
C921   C409    1.382   1_556 S
C922   C531    1.338   1_565 S
C922   H600    1.086   1_565 S
C924   O948    1.305   .     A
H926   C587    1.086   1_565 S
H927   O940    1.014   .     S
H928   O942    1.014   .     S
H933   C961    1.083   .     S
H934   C959    1.084   .     S
N937   Zn952   2.033   .     S
N937   N938    1.292   .     D
N938   Zn951   2.033   .     S
O939   Zn951   1.953   .     S
O939   C955    1.282   .     S
O943   Zn952   1.953   .     S
O944   Zn952   1.976   .     S
O945   Zn951   1.976   .     S
O946   Zn951   1.959   .     S
O946   C980    1.295   .     S
O947   Zn952   1.959   .     S
O948   Zn952   1.908   .     S
O949   Zn951   1.908   .     S
Br953  C974    1.926   .     S
Br954  C975    1.926   .     S
C955   O1000   1.295   .     A
C955   C978    1.402   .     S
C956   O1005   1.305   .     A
C956   C958    1.448   .     S
C956   O891    1.295   1_655 S
C957   C961    1.398   .     A
C957   C980    1.448   .     S
C957   C963    1.385   .     A
C958   C962    1.398   .     A
C958   C964    1.385   .     A
C959   C968    1.405   .     A
C959   C961    1.391   .     A
C960   C962    1.391   .     A
C960   C969    1.405   .     A
C960   H879    1.084   1_655 S
C962   H876    1.083   1_655 S
C963   C965    1.392   .     A
C963   H987    1.076   .     S
C964   C967    1.392   .     A
C964   H986    1.076   .     S
C965   C970    1.422   .     A
C965   C968    1.416   .     A
C966   C979    1.402   .     S
C966   O1001   1.295   .     A
C966   O887    1.282   1_655 S
C967   C971    1.422   .     A
C967   C969    1.416   .     A
C968   C472    1.382   1_556 S
C970   C975    1.435   .     A
C970   C467    1.429   1_556 S
C971   C974    1.435   .     A
C972   N993    1.413   .     S
C972   O1006   1.222   .     D
C972   O996    1.397   .     S
C973   O997    1.222   .     D
C973   O998    1.397   .     S
C973   N994    1.413   .     S
C974   C976    1.387   .     A
C975   C977    1.387   .     A
C976   H981    1.085   .     S
C977   H985    1.085   .     S
C977   C465    1.382   1_556 S
C978   C587    1.338   1_565 S
C978   H656    1.086   1_565 S
C979   C698    1.338   1_655 S
C980   O1004   1.305   .     A
H982   C643    1.086   1_565 S
H983   O996    1.014   .     S
H984   O998    1.014   .     S
H989   C849    1.083   1_655 S
H990   C847    1.084   1_655 S
N993   Zn1008  2.033   .     S
N993   N994    1.292   .     D
N994   Zn1007  2.033   .     S
O995   Zn1007  1.953   .     S
O995   C843    1.282   1_655 S
O999   Zn1008  1.953   .     S
O1000  Zn1008  1.976   .     S
O1001  Zn1007  1.976   .     S
O1002  Zn1007  1.959   .     S
O1002  C868    1.295   1_655 S
O1003  Zn1008  1.959   .     S
O1004  Zn1008  1.908   .     S
O1005  Zn1007  1.908   .     S
