data_str_m2_o1_o10_pcu_sym.12
_audit_creation_date              2020-01-03
_audit_creation_method            'Materials Studio'
_symmetry_space_group_name_H-M    'P1'
_symmetry_Int_Tables_number       1
_symmetry_cell_setting            triclinic
loop_
_symmetry_equiv_pos_as_xyz
  x,y,z
_cell_length_a                    26.1994
_cell_length_b                    32.4631
_cell_length_c                    28.5695
_cell_angle_alpha                 90.2638
_cell_angle_beta                  97.9359
_cell_angle_gamma                 89.8293
loop_
_atom_site_label
_atom_site_type_symbol
_atom_site_fract_x
_atom_site_fract_y
_atom_site_fract_z
_atom_site_U_iso_or_equiv
_atom_site_adp_type
_atom_site_occupancy
C1     C     0.16610   0.08740   0.16643   0.00000  Uiso   1.00
C2     C     0.18841   0.02203   0.20657   0.00000  Uiso   1.00
C3     C     0.16745   0.29056   0.16726   0.00000  Uiso   1.00
C4     C     0.16589   0.04277   0.16607   0.00000  Uiso   1.00
C5     C     0.13446   0.19214   0.02085   0.00000  Uiso   1.00
C6     C     0.19888   0.14120   0.31248   0.00000  Uiso   1.00
C7     C     0.13446   0.19214   0.30459   0.00000  Uiso   1.00
C8     C     0.19887   0.14120   0.02875   0.00000  Uiso   1.00
C9     C     0.14436   0.03456   0.04702   0.00000  Uiso   1.00
C10    C     0.18899   0.29878   0.28632   0.00000  Uiso   1.00
C11    C     0.16723   0.24593   0.16691   0.00000  Uiso   1.00
C12    C     0.06791   0.16667   0.15457   0.00000  Uiso   1.00
C13    C     0.26542   0.16666   0.17876   0.00000  Uiso   1.00
C14    C     0.01264   0.16664   0.14791   0.00000  Uiso   1.00
C15    C     0.32070   0.16669   0.18542   0.00000  Uiso   1.00
C16    C     0.14459   0.02085   0.12547   0.00000  Uiso   1.00
C17    C     0.18874   0.31249   0.20786   0.00000  Uiso   1.00
C18    C     0.14493   0.31130   0.12676   0.00000  Uiso   1.00
Cu19   Cu    0.16667   0.16667   0.21355   0.00000  Uiso   1.00
Cu20   Cu    0.16667   0.16666   0.11978   0.00000  Uiso   1.00
H21    H     0.32599   0.16655   0.11193   0.00000  Uiso   1.00
H22    H     0.12910   0.05667   0.01900   0.00000  Uiso   1.00
H23    H     0.13647   0.00305   0.03254   0.00000  Uiso   1.00
H24    H     0.20423   0.27667   0.31433   0.00000  Uiso   1.00
H25    H     0.14668   0.29346   0.27822   0.00000  Uiso   1.00
H26    H     0.19690   0.33029   0.30080   0.00000  Uiso   1.00
H27    H     0.00734   0.16678   0.22141   0.00000  Uiso   1.00
H28    H     0.12649   0.29415   0.09648   0.00000  Uiso   1.00
H29    H     0.20684   0.03918   0.23686   0.00000  Uiso   1.00
H30    H     0.10870   0.21259   0.03637   0.00000  Uiso   1.00
H31    H     0.22463   0.12074   0.29696   0.00000  Uiso   1.00
H32    H     0.10870   0.21258   0.28275   0.00000  Uiso   1.00
H33    H     0.22464   0.12076   0.05059   0.00000  Uiso   1.00
H34    H     0.18666   0.03991   0.05513   0.00000  Uiso   1.00
N35    N     0.16668   0.16668   0.28403   0.00000  Uiso   1.00
N36    N     0.16665   0.16666   0.04931   0.00000  Uiso   1.00
O37    O     0.16666   0.10655   0.20625   0.00000  Uiso   1.00
O38    O     0.21441   0.29182   0.24654   0.00000  Uiso   1.00
O39    O     0.16667   0.22678   0.12709   0.00000  Uiso   1.00
O40    O     0.16666   0.10654   0.12706   0.00000  Uiso   1.00
O41    O     0.16667   0.22679   0.20628   0.00000  Uiso   1.00
O42    O     0.09161   0.16667   0.19712   0.00000  Uiso   1.00
O43    O     0.24172   0.16666   0.13621   0.00000  Uiso   1.00
O44    O     0.09161   0.16666   0.11793   0.00000  Uiso   1.00
O45    O     0.24172   0.16667   0.21540   0.00000  Uiso   1.00
O46    O     0.11893   0.04151   0.08679   0.00000  Uiso   1.00
C47    C     0.49943   0.08740   0.16643   0.00000  Uiso   1.00
C48    C     0.52174   0.02203   0.20657   0.00000  Uiso   1.00
C49    C     0.50078   0.29056   0.16726   0.00000  Uiso   1.00
C50    C     0.49922   0.04277   0.16607   0.00000  Uiso   1.00
C51    C     0.46779   0.19214   0.02085   0.00000  Uiso   1.00
C52    C     0.53221   0.14120   0.31248   0.00000  Uiso   1.00
C53    C     0.46779   0.19214   0.30459   0.00000  Uiso   1.00
C54    C     0.53221   0.14120   0.02875   0.00000  Uiso   1.00
C55    C     0.47769   0.03456   0.04702   0.00000  Uiso   1.00
C56    C     0.52232   0.29878   0.28632   0.00000  Uiso   1.00
C57    C     0.50057   0.24593   0.16691   0.00000  Uiso   1.00
C58    C     0.40125   0.16667   0.15457   0.00000  Uiso   1.00
C59    C     0.59875   0.16666   0.17876   0.00000  Uiso   1.00
C60    C     0.34597   0.16664   0.14791   0.00000  Uiso   1.00
C61    C     0.65403   0.16669   0.18542   0.00000  Uiso   1.00
C62    C     0.47793   0.02085   0.12547   0.00000  Uiso   1.00
C63    C     0.52207   0.31249   0.20786   0.00000  Uiso   1.00
C64    C     0.47826   0.31130   0.12676   0.00000  Uiso   1.00
Cu65   Cu    0.50000   0.16667   0.21355   0.00000  Uiso   1.00
Cu66   Cu    0.50000   0.16666   0.11978   0.00000  Uiso   1.00
H67    H     0.65932   0.16655   0.11193   0.00000  Uiso   1.00
H68    H     0.46243   0.05667   0.01900   0.00000  Uiso   1.00
H69    H     0.46981   0.00305   0.03254   0.00000  Uiso   1.00
H70    H     0.53757   0.27667   0.31433   0.00000  Uiso   1.00
H71    H     0.48001   0.29346   0.27822   0.00000  Uiso   1.00
H72    H     0.53023   0.33029   0.30080   0.00000  Uiso   1.00
H73    H     0.34068   0.16678   0.22141   0.00000  Uiso   1.00
H74    H     0.45983   0.29415   0.09648   0.00000  Uiso   1.00
H75    H     0.54017   0.03918   0.23686   0.00000  Uiso   1.00
H76    H     0.44204   0.21259   0.03637   0.00000  Uiso   1.00
H77    H     0.55796   0.12074   0.29696   0.00000  Uiso   1.00
H78    H     0.44203   0.21258   0.28275   0.00000  Uiso   1.00
H79    H     0.55797   0.12076   0.05059   0.00000  Uiso   1.00
H80    H     0.51999   0.03991   0.05513   0.00000  Uiso   1.00
N81    N     0.50001   0.16668   0.28403   0.00000  Uiso   1.00
N82    N     0.49999   0.16666   0.04931   0.00000  Uiso   1.00
O83    O     0.50000   0.10655   0.20625   0.00000  Uiso   1.00
O84    O     0.54774   0.29182   0.24654   0.00000  Uiso   1.00
O85    O     0.50000   0.22678   0.12709   0.00000  Uiso   1.00
O86    O     0.50000   0.10654   0.12706   0.00000  Uiso   1.00
O87    O     0.50000   0.22679   0.20628   0.00000  Uiso   1.00
O88    O     0.42495   0.16667   0.19712   0.00000  Uiso   1.00
O89    O     0.57505   0.16666   0.13621   0.00000  Uiso   1.00
O90    O     0.42494   0.16666   0.11793   0.00000  Uiso   1.00
O91    O     0.57506   0.16667   0.21540   0.00000  Uiso   1.00
O92    O     0.45226   0.04151   0.08679   0.00000  Uiso   1.00
C93    C     0.83277   0.08740   0.16643   0.00000  Uiso   1.00
C94    C     0.85507   0.02203   0.20657   0.00000  Uiso   1.00
C95    C     0.83411   0.29056   0.16726   0.00000  Uiso   1.00
C96    C     0.83256   0.04277   0.16607   0.00000  Uiso   1.00
C97    C     0.80112   0.19214   0.02085   0.00000  Uiso   1.00
C98    C     0.86554   0.14120   0.31248   0.00000  Uiso   1.00
C99    C     0.80113   0.19214   0.30459   0.00000  Uiso   1.00
C100   C     0.86554   0.14120   0.02875   0.00000  Uiso   1.00
C101   C     0.81102   0.03456   0.04702   0.00000  Uiso   1.00
C102   C     0.85566   0.29878   0.28632   0.00000  Uiso   1.00
C103   C     0.83390   0.24593   0.16691   0.00000  Uiso   1.00
C104   C     0.73458   0.16667   0.15457   0.00000  Uiso   1.00
C105   C     0.93209   0.16666   0.17876   0.00000  Uiso   1.00
C106   C     0.67930   0.16664   0.14791   0.00000  Uiso   1.00
C107   C     0.98736   0.16669   0.18542   0.00000  Uiso   1.00
C108   C     0.81126   0.02085   0.12547   0.00000  Uiso   1.00
C109   C     0.85541   0.31249   0.20786   0.00000  Uiso   1.00
C110   C     0.81159   0.31130   0.12676   0.00000  Uiso   1.00
Cu111  Cu    0.83333   0.16667   0.21355   0.00000  Uiso   1.00
Cu112  Cu    0.83333   0.16666   0.11978   0.00000  Uiso   1.00
H113   H     0.99266   0.16655   0.11193   0.00000  Uiso   1.00
H114   H     0.79576   0.05667   0.01900   0.00000  Uiso   1.00
H115   H     0.80314   0.00305   0.03254   0.00000  Uiso   1.00
H116   H     0.87090   0.27667   0.31433   0.00000  Uiso   1.00
H117   H     0.81335   0.29346   0.27822   0.00000  Uiso   1.00
H118   H     0.86357   0.33029   0.30080   0.00000  Uiso   1.00
H119   H     0.67401   0.16678   0.22141   0.00000  Uiso   1.00
H120   H     0.79316   0.29415   0.09648   0.00000  Uiso   1.00
H121   H     0.87351   0.03918   0.23686   0.00000  Uiso   1.00
H122   H     0.77537   0.21259   0.03637   0.00000  Uiso   1.00
H123   H     0.89130   0.12074   0.29696   0.00000  Uiso   1.00
H124   H     0.77536   0.21258   0.28275   0.00000  Uiso   1.00
H125   H     0.89130   0.12076   0.05059   0.00000  Uiso   1.00
H126   H     0.85333   0.03991   0.05513   0.00000  Uiso   1.00
N127   N     0.83335   0.16668   0.28403   0.00000  Uiso   1.00
N128   N     0.83332   0.16666   0.04931   0.00000  Uiso   1.00
O129   O     0.83333   0.10655   0.20625   0.00000  Uiso   1.00
O130   O     0.88107   0.29182   0.24654   0.00000  Uiso   1.00
O131   O     0.83334   0.22678   0.12709   0.00000  Uiso   1.00
O132   O     0.83333   0.10654   0.12706   0.00000  Uiso   1.00
O133   O     0.83334   0.22679   0.20628   0.00000  Uiso   1.00
O134   O     0.75828   0.16667   0.19712   0.00000  Uiso   1.00
O135   O     0.90839   0.16666   0.13621   0.00000  Uiso   1.00
O136   O     0.75828   0.16666   0.11793   0.00000  Uiso   1.00
O137   O     0.90839   0.16667   0.21540   0.00000  Uiso   1.00
O138   O     0.78559   0.04151   0.08679   0.00000  Uiso   1.00
C139   C     0.16610   0.42073   0.16643   0.00000  Uiso   1.00
C140   C     0.18841   0.35536   0.20657   0.00000  Uiso   1.00
C141   C     0.16745   0.62389   0.16726   0.00000  Uiso   1.00
C142   C     0.16589   0.37611   0.16607   0.00000  Uiso   1.00
C143   C     0.13446   0.52547   0.02085   0.00000  Uiso   1.00
C144   C     0.19888   0.47453   0.31248   0.00000  Uiso   1.00
C145   C     0.13446   0.52547   0.30459   0.00000  Uiso   1.00
C146   C     0.19887   0.47453   0.02875   0.00000  Uiso   1.00
C147   C     0.14436   0.36789   0.04702   0.00000  Uiso   1.00
C148   C     0.18899   0.63212   0.28632   0.00000  Uiso   1.00
C149   C     0.16723   0.57927   0.16691   0.00000  Uiso   1.00
C150   C     0.06791   0.50001   0.15457   0.00000  Uiso   1.00
C151   C     0.26542   0.49999   0.17876   0.00000  Uiso   1.00
C152   C     0.01264   0.49997   0.14791   0.00000  Uiso   1.00
C153   C     0.32070   0.50003   0.18542   0.00000  Uiso   1.00
C154   C     0.14459   0.35418   0.12547   0.00000  Uiso   1.00
C155   C     0.18874   0.64582   0.20786   0.00000  Uiso   1.00
C156   C     0.14493   0.64464   0.12676   0.00000  Uiso   1.00
Cu157  Cu    0.16667   0.50001   0.21355   0.00000  Uiso   1.00
Cu158  Cu    0.16667   0.49999   0.11978   0.00000  Uiso   1.00
H159   H     0.32599   0.49989   0.11193   0.00000  Uiso   1.00
H160   H     0.12910   0.39000   0.01900   0.00000  Uiso   1.00
H161   H     0.13647   0.33639   0.03254   0.00000  Uiso   1.00
H162   H     0.20423   0.61000   0.31433   0.00000  Uiso   1.00
H163   H     0.14668   0.62679   0.27822   0.00000  Uiso   1.00
H164   H     0.19690   0.66362   0.30080   0.00000  Uiso   1.00
H165   H     0.00734   0.50011   0.22141   0.00000  Uiso   1.00
H166   H     0.12649   0.62748   0.09648   0.00000  Uiso   1.00
H167   H     0.20684   0.37252   0.23686   0.00000  Uiso   1.00
H168   H     0.10870   0.54593   0.03637   0.00000  Uiso   1.00
H169   H     0.22463   0.45407   0.29696   0.00000  Uiso   1.00
H170   H     0.10870   0.54591   0.28275   0.00000  Uiso   1.00
H171   H     0.22464   0.45409   0.05059   0.00000  Uiso   1.00
H172   H     0.18666   0.37324   0.05513   0.00000  Uiso   1.00
N173   N     0.16668   0.50001   0.28403   0.00000  Uiso   1.00
N174   N     0.16665   0.49999   0.04931   0.00000  Uiso   1.00
O175   O     0.16666   0.43989   0.20625   0.00000  Uiso   1.00
O176   O     0.21441   0.62515   0.24654   0.00000  Uiso   1.00
O177   O     0.16667   0.56011   0.12709   0.00000  Uiso   1.00
O178   O     0.16666   0.43988   0.12706   0.00000  Uiso   1.00
O179   O     0.16667   0.56012   0.20628   0.00000  Uiso   1.00
O180   O     0.09161   0.50000   0.19712   0.00000  Uiso   1.00
O181   O     0.24172   0.50000   0.13621   0.00000  Uiso   1.00
O182   O     0.09161   0.49999   0.11793   0.00000  Uiso   1.00
O183   O     0.24172   0.50001   0.21540   0.00000  Uiso   1.00
O184   O     0.11893   0.37484   0.08679   0.00000  Uiso   1.00
C185   C     0.49943   0.42073   0.16643   0.00000  Uiso   1.00
C186   C     0.52174   0.35536   0.20657   0.00000  Uiso   1.00
C187   C     0.50078   0.62389   0.16726   0.00000  Uiso   1.00
C188   C     0.49922   0.37611   0.16607   0.00000  Uiso   1.00
C189   C     0.46779   0.52547   0.02085   0.00000  Uiso   1.00
C190   C     0.53221   0.47453   0.31248   0.00000  Uiso   1.00
C191   C     0.46779   0.52547   0.30459   0.00000  Uiso   1.00
C192   C     0.53221   0.47453   0.02875   0.00000  Uiso   1.00
C193   C     0.47769   0.36789   0.04702   0.00000  Uiso   1.00
C194   C     0.52232   0.63212   0.28632   0.00000  Uiso   1.00
C195   C     0.50057   0.57927   0.16691   0.00000  Uiso   1.00
C196   C     0.40125   0.50001   0.15457   0.00000  Uiso   1.00
C197   C     0.59875   0.49999   0.17876   0.00000  Uiso   1.00
C198   C     0.34597   0.49997   0.14791   0.00000  Uiso   1.00
C199   C     0.65403   0.50003   0.18542   0.00000  Uiso   1.00
C200   C     0.47793   0.35418   0.12547   0.00000  Uiso   1.00
C201   C     0.52207   0.64582   0.20786   0.00000  Uiso   1.00
C202   C     0.47826   0.64464   0.12676   0.00000  Uiso   1.00
Cu203  Cu    0.50000   0.50001   0.21355   0.00000  Uiso   1.00
Cu204  Cu    0.50000   0.49999   0.11978   0.00000  Uiso   1.00
H205   H     0.65932   0.49989   0.11193   0.00000  Uiso   1.00
H206   H     0.46243   0.39000   0.01900   0.00000  Uiso   1.00
H207   H     0.46981   0.33639   0.03254   0.00000  Uiso   1.00
H208   H     0.53757   0.61000   0.31433   0.00000  Uiso   1.00
H209   H     0.48001   0.62679   0.27822   0.00000  Uiso   1.00
H210   H     0.53023   0.66362   0.30080   0.00000  Uiso   1.00
H211   H     0.34068   0.50011   0.22141   0.00000  Uiso   1.00
H212   H     0.45983   0.62748   0.09648   0.00000  Uiso   1.00
H213   H     0.54017   0.37252   0.23686   0.00000  Uiso   1.00
H214   H     0.44204   0.54593   0.03637   0.00000  Uiso   1.00
H215   H     0.55796   0.45407   0.29696   0.00000  Uiso   1.00
H216   H     0.44203   0.54591   0.28275   0.00000  Uiso   1.00
H217   H     0.55797   0.45409   0.05059   0.00000  Uiso   1.00
H218   H     0.51999   0.37324   0.05513   0.00000  Uiso   1.00
N219   N     0.50001   0.50001   0.28403   0.00000  Uiso   1.00
N220   N     0.49999   0.49999   0.04931   0.00000  Uiso   1.00
O221   O     0.50000   0.43989   0.20625   0.00000  Uiso   1.00
O222   O     0.54774   0.62515   0.24654   0.00000  Uiso   1.00
O223   O     0.50000   0.56011   0.12709   0.00000  Uiso   1.00
O224   O     0.50000   0.43988   0.12706   0.00000  Uiso   1.00
O225   O     0.50000   0.56012   0.20628   0.00000  Uiso   1.00
O226   O     0.42495   0.50000   0.19712   0.00000  Uiso   1.00
O227   O     0.57505   0.50000   0.13621   0.00000  Uiso   1.00
O228   O     0.42494   0.49999   0.11793   0.00000  Uiso   1.00
O229   O     0.57506   0.50001   0.21540   0.00000  Uiso   1.00
O230   O     0.45226   0.37484   0.08679   0.00000  Uiso   1.00
C231   C     0.83277   0.42073   0.16643   0.00000  Uiso   1.00
C232   C     0.85507   0.35536   0.20657   0.00000  Uiso   1.00
C233   C     0.83411   0.62389   0.16726   0.00000  Uiso   1.00
C234   C     0.83256   0.37611   0.16607   0.00000  Uiso   1.00
C235   C     0.80112   0.52547   0.02085   0.00000  Uiso   1.00
C236   C     0.86554   0.47453   0.31248   0.00000  Uiso   1.00
C237   C     0.80113   0.52547   0.30459   0.00000  Uiso   1.00
C238   C     0.86554   0.47453   0.02875   0.00000  Uiso   1.00
C239   C     0.81102   0.36789   0.04702   0.00000  Uiso   1.00
C240   C     0.85566   0.63212   0.28632   0.00000  Uiso   1.00
C241   C     0.83390   0.57927   0.16691   0.00000  Uiso   1.00
C242   C     0.73458   0.50001   0.15457   0.00000  Uiso   1.00
C243   C     0.93209   0.49999   0.17876   0.00000  Uiso   1.00
C244   C     0.67930   0.49997   0.14791   0.00000  Uiso   1.00
C245   C     0.98736   0.50003   0.18542   0.00000  Uiso   1.00
C246   C     0.81126   0.35418   0.12547   0.00000  Uiso   1.00
C247   C     0.85541   0.64582   0.20786   0.00000  Uiso   1.00
C248   C     0.81159   0.64464   0.12676   0.00000  Uiso   1.00
Cu249  Cu    0.83333   0.50001   0.21355   0.00000  Uiso   1.00
Cu250  Cu    0.83333   0.49999   0.11978   0.00000  Uiso   1.00
H251   H     0.99266   0.49989   0.11193   0.00000  Uiso   1.00
H252   H     0.79576   0.39000   0.01900   0.00000  Uiso   1.00
H253   H     0.80314   0.33639   0.03254   0.00000  Uiso   1.00
H254   H     0.87090   0.61000   0.31433   0.00000  Uiso   1.00
H255   H     0.81335   0.62679   0.27822   0.00000  Uiso   1.00
H256   H     0.86357   0.66362   0.30080   0.00000  Uiso   1.00
H257   H     0.67401   0.50011   0.22141   0.00000  Uiso   1.00
H258   H     0.79316   0.62748   0.09648   0.00000  Uiso   1.00
H259   H     0.87351   0.37252   0.23686   0.00000  Uiso   1.00
H260   H     0.77537   0.54593   0.03637   0.00000  Uiso   1.00
H261   H     0.89130   0.45407   0.29696   0.00000  Uiso   1.00
H262   H     0.77536   0.54591   0.28275   0.00000  Uiso   1.00
H263   H     0.89130   0.45409   0.05059   0.00000  Uiso   1.00
H264   H     0.85333   0.37324   0.05513   0.00000  Uiso   1.00
N265   N     0.83335   0.50001   0.28403   0.00000  Uiso   1.00
N266   N     0.83332   0.49999   0.04931   0.00000  Uiso   1.00
O267   O     0.83333   0.43989   0.20625   0.00000  Uiso   1.00
O268   O     0.88107   0.62515   0.24654   0.00000  Uiso   1.00
O269   O     0.83334   0.56011   0.12709   0.00000  Uiso   1.00
O270   O     0.83333   0.43988   0.12706   0.00000  Uiso   1.00
O271   O     0.83334   0.56012   0.20628   0.00000  Uiso   1.00
O272   O     0.75828   0.50000   0.19712   0.00000  Uiso   1.00
O273   O     0.90839   0.50000   0.13621   0.00000  Uiso   1.00
O274   O     0.75828   0.49999   0.11793   0.00000  Uiso   1.00
O275   O     0.90839   0.50001   0.21540   0.00000  Uiso   1.00
O276   O     0.78559   0.37484   0.08679   0.00000  Uiso   1.00
C277   C     0.16610   0.75407   0.16643   0.00000  Uiso   1.00
C278   C     0.18841   0.68870   0.20657   0.00000  Uiso   1.00
C279   C     0.16745   0.95723   0.16726   0.00000  Uiso   1.00
C280   C     0.16589   0.70944   0.16607   0.00000  Uiso   1.00
C281   C     0.13446   0.85880   0.02085   0.00000  Uiso   1.00
C282   C     0.19888   0.80786   0.31248   0.00000  Uiso   1.00
C283   C     0.13446   0.85880   0.30459   0.00000  Uiso   1.00
C284   C     0.19887   0.80786   0.02875   0.00000  Uiso   1.00
C285   C     0.14436   0.70123   0.04702   0.00000  Uiso   1.00
C286   C     0.18899   0.96545   0.28632   0.00000  Uiso   1.00
C287   C     0.16723   0.91260   0.16691   0.00000  Uiso   1.00
C288   C     0.06791   0.83334   0.15457   0.00000  Uiso   1.00
C289   C     0.26542   0.83333   0.17876   0.00000  Uiso   1.00
C290   C     0.01264   0.83330   0.14791   0.00000  Uiso   1.00
C291   C     0.32070   0.83336   0.18542   0.00000  Uiso   1.00
C292   C     0.14459   0.68751   0.12547   0.00000  Uiso   1.00
C293   C     0.18874   0.97915   0.20786   0.00000  Uiso   1.00
C294   C     0.14493   0.97797   0.12676   0.00000  Uiso   1.00
Cu295  Cu    0.16667   0.83334   0.21355   0.00000  Uiso   1.00
Cu296  Cu    0.16667   0.83333   0.11978   0.00000  Uiso   1.00
H297   H     0.32599   0.83322   0.11193   0.00000  Uiso   1.00
H298   H     0.12910   0.72334   0.01900   0.00000  Uiso   1.00
H299   H     0.13647   0.66972   0.03254   0.00000  Uiso   1.00
H300   H     0.20423   0.94333   0.31433   0.00000  Uiso   1.00
H301   H     0.14668   0.96012   0.27822   0.00000  Uiso   1.00
H302   H     0.19690   0.99695   0.30080   0.00000  Uiso   1.00
H303   H     0.00734   0.83345   0.22141   0.00000  Uiso   1.00
H304   H     0.12649   0.96082   0.09648   0.00000  Uiso   1.00
H305   H     0.20684   0.70585   0.23686   0.00000  Uiso   1.00
H306   H     0.10870   0.87926   0.03637   0.00000  Uiso   1.00
H307   H     0.22463   0.78741   0.29696   0.00000  Uiso   1.00
H308   H     0.10870   0.87925   0.28275   0.00000  Uiso   1.00
H309   H     0.22464   0.78742   0.05059   0.00000  Uiso   1.00
H310   H     0.18666   0.70658   0.05513   0.00000  Uiso   1.00
N311   N     0.16668   0.83334   0.28403   0.00000  Uiso   1.00
N312   N     0.16665   0.83332   0.04931   0.00000  Uiso   1.00
O313   O     0.16666   0.77322   0.20625   0.00000  Uiso   1.00
O314   O     0.21441   0.95849   0.24654   0.00000  Uiso   1.00
O315   O     0.16667   0.89345   0.12709   0.00000  Uiso   1.00
O316   O     0.16666   0.77321   0.12706   0.00000  Uiso   1.00
O317   O     0.16667   0.89346   0.20628   0.00000  Uiso   1.00
O318   O     0.09161   0.83334   0.19712   0.00000  Uiso   1.00
O319   O     0.24172   0.83333   0.13621   0.00000  Uiso   1.00
O320   O     0.09161   0.83333   0.11793   0.00000  Uiso   1.00
O321   O     0.24172   0.83334   0.21540   0.00000  Uiso   1.00
O322   O     0.11893   0.70818   0.08679   0.00000  Uiso   1.00
C323   C     0.49943   0.75407   0.16643   0.00000  Uiso   1.00
C324   C     0.52174   0.68870   0.20657   0.00000  Uiso   1.00
C325   C     0.50078   0.95723   0.16726   0.00000  Uiso   1.00
C326   C     0.49922   0.70944   0.16607   0.00000  Uiso   1.00
C327   C     0.46779   0.85880   0.02085   0.00000  Uiso   1.00
C328   C     0.53221   0.80786   0.31248   0.00000  Uiso   1.00
C329   C     0.46779   0.85880   0.30459   0.00000  Uiso   1.00
C330   C     0.53221   0.80786   0.02875   0.00000  Uiso   1.00
C331   C     0.47769   0.70123   0.04702   0.00000  Uiso   1.00
C332   C     0.52232   0.96545   0.28632   0.00000  Uiso   1.00
C333   C     0.50057   0.91260   0.16691   0.00000  Uiso   1.00
C334   C     0.40125   0.83334   0.15457   0.00000  Uiso   1.00
C335   C     0.59875   0.83333   0.17876   0.00000  Uiso   1.00
C336   C     0.34597   0.83330   0.14791   0.00000  Uiso   1.00
C337   C     0.65403   0.83336   0.18542   0.00000  Uiso   1.00
C338   C     0.47793   0.68751   0.12547   0.00000  Uiso   1.00
C339   C     0.52207   0.97915   0.20786   0.00000  Uiso   1.00
C340   C     0.47826   0.97797   0.12676   0.00000  Uiso   1.00
Cu341  Cu    0.50000   0.83334   0.21355   0.00000  Uiso   1.00
Cu342  Cu    0.50000   0.83333   0.11978   0.00000  Uiso   1.00
H343   H     0.65932   0.83322   0.11193   0.00000  Uiso   1.00
H344   H     0.46243   0.72334   0.01900   0.00000  Uiso   1.00
H345   H     0.46981   0.66972   0.03254   0.00000  Uiso   1.00
H346   H     0.53757   0.94333   0.31433   0.00000  Uiso   1.00
H347   H     0.48001   0.96012   0.27822   0.00000  Uiso   1.00
H348   H     0.53023   0.99695   0.30080   0.00000  Uiso   1.00
H349   H     0.34068   0.83345   0.22141   0.00000  Uiso   1.00
H350   H     0.45983   0.96082   0.09648   0.00000  Uiso   1.00
H351   H     0.54017   0.70585   0.23686   0.00000  Uiso   1.00
H352   H     0.44204   0.87926   0.03637   0.00000  Uiso   1.00
H353   H     0.55796   0.78741   0.29696   0.00000  Uiso   1.00
H354   H     0.44203   0.87925   0.28275   0.00000  Uiso   1.00
H355   H     0.55797   0.78742   0.05059   0.00000  Uiso   1.00
H356   H     0.51999   0.70658   0.05513   0.00000  Uiso   1.00
N357   N     0.50001   0.83334   0.28403   0.00000  Uiso   1.00
N358   N     0.49999   0.83332   0.04931   0.00000  Uiso   1.00
O359   O     0.50000   0.77322   0.20625   0.00000  Uiso   1.00
O360   O     0.54774   0.95849   0.24654   0.00000  Uiso   1.00
O361   O     0.50000   0.89345   0.12709   0.00000  Uiso   1.00
O362   O     0.50000   0.77321   0.12706   0.00000  Uiso   1.00
O363   O     0.50000   0.89346   0.20628   0.00000  Uiso   1.00
O364   O     0.42495   0.83334   0.19712   0.00000  Uiso   1.00
O365   O     0.57505   0.83333   0.13621   0.00000  Uiso   1.00
O366   O     0.42494   0.83333   0.11793   0.00000  Uiso   1.00
O367   O     0.57506   0.83334   0.21540   0.00000  Uiso   1.00
O368   O     0.45226   0.70818   0.08679   0.00000  Uiso   1.00
C369   C     0.83277   0.75407   0.16643   0.00000  Uiso   1.00
C370   C     0.85507   0.68870   0.20657   0.00000  Uiso   1.00
C371   C     0.83411   0.95723   0.16726   0.00000  Uiso   1.00
C372   C     0.83256   0.70944   0.16607   0.00000  Uiso   1.00
C373   C     0.80112   0.85880   0.02085   0.00000  Uiso   1.00
C374   C     0.86554   0.80786   0.31248   0.00000  Uiso   1.00
C375   C     0.80113   0.85880   0.30459   0.00000  Uiso   1.00
C376   C     0.86554   0.80786   0.02875   0.00000  Uiso   1.00
C377   C     0.81102   0.70123   0.04702   0.00000  Uiso   1.00
C378   C     0.85566   0.96545   0.28632   0.00000  Uiso   1.00
C379   C     0.83390   0.91260   0.16691   0.00000  Uiso   1.00
C380   C     0.73458   0.83334   0.15457   0.00000  Uiso   1.00
C381   C     0.93209   0.83333   0.17876   0.00000  Uiso   1.00
C382   C     0.67930   0.83330   0.14791   0.00000  Uiso   1.00
C383   C     0.98736   0.83336   0.18542   0.00000  Uiso   1.00
C384   C     0.81126   0.68751   0.12547   0.00000  Uiso   1.00
C385   C     0.85541   0.97915   0.20786   0.00000  Uiso   1.00
C386   C     0.81159   0.97797   0.12676   0.00000  Uiso   1.00
Cu387  Cu    0.83333   0.83334   0.21355   0.00000  Uiso   1.00
Cu388  Cu    0.83333   0.83333   0.11978   0.00000  Uiso   1.00
H389   H     0.99266   0.83322   0.11193   0.00000  Uiso   1.00
H390   H     0.79576   0.72334   0.01900   0.00000  Uiso   1.00
H391   H     0.80314   0.66972   0.03254   0.00000  Uiso   1.00
H392   H     0.87090   0.94333   0.31433   0.00000  Uiso   1.00
H393   H     0.81335   0.96012   0.27822   0.00000  Uiso   1.00
H394   H     0.86357   0.99695   0.30080   0.00000  Uiso   1.00
H395   H     0.67401   0.83345   0.22141   0.00000  Uiso   1.00
H396   H     0.79316   0.96082   0.09648   0.00000  Uiso   1.00
H397   H     0.87351   0.70585   0.23686   0.00000  Uiso   1.00
H398   H     0.77537   0.87926   0.03637   0.00000  Uiso   1.00
H399   H     0.89130   0.78741   0.29696   0.00000  Uiso   1.00
H400   H     0.77536   0.87925   0.28275   0.00000  Uiso   1.00
H401   H     0.89130   0.78742   0.05059   0.00000  Uiso   1.00
H402   H     0.85333   0.70658   0.05513   0.00000  Uiso   1.00
N403   N     0.83335   0.83334   0.28403   0.00000  Uiso   1.00
N404   N     0.83332   0.83332   0.04931   0.00000  Uiso   1.00
O405   O     0.83333   0.77322   0.20625   0.00000  Uiso   1.00
O406   O     0.88107   0.95849   0.24654   0.00000  Uiso   1.00
O407   O     0.83334   0.89345   0.12709   0.00000  Uiso   1.00
O408   O     0.83333   0.77321   0.12706   0.00000  Uiso   1.00
O409   O     0.83334   0.89346   0.20628   0.00000  Uiso   1.00
O410   O     0.75828   0.83334   0.19712   0.00000  Uiso   1.00
O411   O     0.90839   0.83333   0.13621   0.00000  Uiso   1.00
O412   O     0.75828   0.83333   0.11793   0.00000  Uiso   1.00
O413   O     0.90839   0.83334   0.21540   0.00000  Uiso   1.00
O414   O     0.78559   0.70818   0.08679   0.00000  Uiso   1.00
C415   C     0.16610   0.08740   0.49976   0.00000  Uiso   1.00
C416   C     0.18841   0.02203   0.53990   0.00000  Uiso   1.00
C417   C     0.16745   0.29056   0.50060   0.00000  Uiso   1.00
C418   C     0.16589   0.04277   0.49940   0.00000  Uiso   1.00
C419   C     0.13446   0.19214   0.35418   0.00000  Uiso   1.00
C420   C     0.19888   0.14120   0.64582   0.00000  Uiso   1.00
C421   C     0.13446   0.19214   0.63792   0.00000  Uiso   1.00
C422   C     0.19887   0.14120   0.36208   0.00000  Uiso   1.00
C423   C     0.14436   0.03456   0.38035   0.00000  Uiso   1.00
C424   C     0.18899   0.29878   0.61966   0.00000  Uiso   1.00
C425   C     0.16723   0.24593   0.50024   0.00000  Uiso   1.00
C426   C     0.06791   0.16667   0.48791   0.00000  Uiso   1.00
C427   C     0.26542   0.16666   0.51209   0.00000  Uiso   1.00
C428   C     0.01264   0.16664   0.48125   0.00000  Uiso   1.00
C429   C     0.32070   0.16669   0.51875   0.00000  Uiso   1.00
C430   C     0.14459   0.02085   0.45880   0.00000  Uiso   1.00
C431   C     0.18874   0.31249   0.54120   0.00000  Uiso   1.00
C432   C     0.14493   0.31130   0.46010   0.00000  Uiso   1.00
Cu433  Cu    0.16667   0.16667   0.54689   0.00000  Uiso   1.00
Cu434  Cu    0.16667   0.16666   0.45311   0.00000  Uiso   1.00
H435   H     0.32599   0.16655   0.44526   0.00000  Uiso   1.00
H436   H     0.12910   0.05667   0.35234   0.00000  Uiso   1.00
H437   H     0.13647   0.00305   0.36588   0.00000  Uiso   1.00
H438   H     0.20423   0.27667   0.64767   0.00000  Uiso   1.00
H439   H     0.14668   0.29346   0.61155   0.00000  Uiso   1.00
H440   H     0.19690   0.33029   0.63413   0.00000  Uiso   1.00
H441   H     0.00734   0.16678   0.55474   0.00000  Uiso   1.00
H442   H     0.12649   0.29415   0.42981   0.00000  Uiso   1.00
H443   H     0.20684   0.03918   0.57019   0.00000  Uiso   1.00
H444   H     0.10870   0.21259   0.36971   0.00000  Uiso   1.00
H445   H     0.22463   0.12074   0.63029   0.00000  Uiso   1.00
H446   H     0.10870   0.21258   0.61608   0.00000  Uiso   1.00
H447   H     0.22464   0.12076   0.38392   0.00000  Uiso   1.00
H448   H     0.18666   0.03991   0.38846   0.00000  Uiso   1.00
N449   N     0.16668   0.16668   0.61736   0.00000  Uiso   1.00
N450   N     0.16665   0.16666   0.38264   0.00000  Uiso   1.00
O451   O     0.16666   0.10655   0.53958   0.00000  Uiso   1.00
O452   O     0.21441   0.29182   0.57988   0.00000  Uiso   1.00
O453   O     0.16667   0.22678   0.46042   0.00000  Uiso   1.00
O454   O     0.16666   0.10654   0.46039   0.00000  Uiso   1.00
O455   O     0.16667   0.22679   0.53961   0.00000  Uiso   1.00
O456   O     0.09161   0.16667   0.53046   0.00000  Uiso   1.00
O457   O     0.24172   0.16666   0.46954   0.00000  Uiso   1.00
O458   O     0.09161   0.16666   0.45127   0.00000  Uiso   1.00
O459   O     0.24172   0.16667   0.54873   0.00000  Uiso   1.00
O460   O     0.11893   0.04151   0.42012   0.00000  Uiso   1.00
C461   C     0.49943   0.08740   0.49976   0.00000  Uiso   1.00
C462   C     0.52174   0.02203   0.53990   0.00000  Uiso   1.00
C463   C     0.50078   0.29056   0.50060   0.00000  Uiso   1.00
C464   C     0.49922   0.04277   0.49940   0.00000  Uiso   1.00
C465   C     0.46779   0.19214   0.35418   0.00000  Uiso   1.00
C466   C     0.53221   0.14120   0.64582   0.00000  Uiso   1.00
C467   C     0.46779   0.19214   0.63792   0.00000  Uiso   1.00
C468   C     0.53221   0.14120   0.36208   0.00000  Uiso   1.00
C469   C     0.47769   0.03456   0.38035   0.00000  Uiso   1.00
C470   C     0.52232   0.29878   0.61966   0.00000  Uiso   1.00
C471   C     0.50057   0.24593   0.50024   0.00000  Uiso   1.00
C472   C     0.40125   0.16667   0.48791   0.00000  Uiso   1.00
C473   C     0.59875   0.16666   0.51209   0.00000  Uiso   1.00
C474   C     0.34597   0.16664   0.48125   0.00000  Uiso   1.00
C475   C     0.65403   0.16669   0.51875   0.00000  Uiso   1.00
C476   C     0.47793   0.02085   0.45880   0.00000  Uiso   1.00
C477   C     0.52207   0.31249   0.54120   0.00000  Uiso   1.00
C478   C     0.47826   0.31130   0.46010   0.00000  Uiso   1.00
Cu479  Cu    0.50000   0.16667   0.54689   0.00000  Uiso   1.00
Cu480  Cu    0.50000   0.16666   0.45311   0.00000  Uiso   1.00
H481   H     0.65932   0.16655   0.44526   0.00000  Uiso   1.00
H482   H     0.46243   0.05667   0.35234   0.00000  Uiso   1.00
H483   H     0.46981   0.00305   0.36588   0.00000  Uiso   1.00
H484   H     0.53757   0.27667   0.64767   0.00000  Uiso   1.00
H485   H     0.48001   0.29346   0.61155   0.00000  Uiso   1.00
H486   H     0.53023   0.33029   0.63413   0.00000  Uiso   1.00
H487   H     0.34068   0.16678   0.55474   0.00000  Uiso   1.00
H488   H     0.45983   0.29415   0.42981   0.00000  Uiso   1.00
H489   H     0.54017   0.03918   0.57019   0.00000  Uiso   1.00
H490   H     0.44204   0.21259   0.36971   0.00000  Uiso   1.00
H491   H     0.55796   0.12074   0.63029   0.00000  Uiso   1.00
H492   H     0.44203   0.21258   0.61608   0.00000  Uiso   1.00
H493   H     0.55797   0.12076   0.38392   0.00000  Uiso   1.00
H494   H     0.51999   0.03991   0.38846   0.00000  Uiso   1.00
N495   N     0.50001   0.16668   0.61736   0.00000  Uiso   1.00
N496   N     0.49999   0.16666   0.38264   0.00000  Uiso   1.00
O497   O     0.50000   0.10655   0.53958   0.00000  Uiso   1.00
O498   O     0.54774   0.29182   0.57988   0.00000  Uiso   1.00
O499   O     0.50000   0.22678   0.46042   0.00000  Uiso   1.00
O500   O     0.50000   0.10654   0.46039   0.00000  Uiso   1.00
O501   O     0.50000   0.22679   0.53961   0.00000  Uiso   1.00
O502   O     0.42495   0.16667   0.53046   0.00000  Uiso   1.00
O503   O     0.57505   0.16666   0.46954   0.00000  Uiso   1.00
O504   O     0.42494   0.16666   0.45127   0.00000  Uiso   1.00
O505   O     0.57506   0.16667   0.54873   0.00000  Uiso   1.00
O506   O     0.45226   0.04151   0.42012   0.00000  Uiso   1.00
C507   C     0.83277   0.08740   0.49976   0.00000  Uiso   1.00
C508   C     0.85507   0.02203   0.53990   0.00000  Uiso   1.00
C509   C     0.83411   0.29056   0.50060   0.00000  Uiso   1.00
C510   C     0.83256   0.04277   0.49940   0.00000  Uiso   1.00
C511   C     0.80112   0.19214   0.35418   0.00000  Uiso   1.00
C512   C     0.86554   0.14120   0.64582   0.00000  Uiso   1.00
C513   C     0.80113   0.19214   0.63792   0.00000  Uiso   1.00
C514   C     0.86554   0.14120   0.36208   0.00000  Uiso   1.00
C515   C     0.81102   0.03456   0.38035   0.00000  Uiso   1.00
C516   C     0.85566   0.29878   0.61966   0.00000  Uiso   1.00
C517   C     0.83390   0.24593   0.50024   0.00000  Uiso   1.00
C518   C     0.73458   0.16667   0.48791   0.00000  Uiso   1.00
C519   C     0.93209   0.16666   0.51209   0.00000  Uiso   1.00
C520   C     0.67930   0.16664   0.48125   0.00000  Uiso   1.00
C521   C     0.98736   0.16669   0.51875   0.00000  Uiso   1.00
C522   C     0.81126   0.02085   0.45880   0.00000  Uiso   1.00
C523   C     0.85541   0.31249   0.54120   0.00000  Uiso   1.00
C524   C     0.81159   0.31130   0.46010   0.00000  Uiso   1.00
Cu525  Cu    0.83333   0.16667   0.54689   0.00000  Uiso   1.00
Cu526  Cu    0.83333   0.16666   0.45311   0.00000  Uiso   1.00
H527   H     0.99266   0.16655   0.44526   0.00000  Uiso   1.00
H528   H     0.79576   0.05667   0.35234   0.00000  Uiso   1.00
H529   H     0.80314   0.00305   0.36588   0.00000  Uiso   1.00
H530   H     0.87090   0.27667   0.64767   0.00000  Uiso   1.00
H531   H     0.81335   0.29346   0.61155   0.00000  Uiso   1.00
H532   H     0.86357   0.33029   0.63413   0.00000  Uiso   1.00
H533   H     0.67401   0.16678   0.55474   0.00000  Uiso   1.00
H534   H     0.79316   0.29415   0.42981   0.00000  Uiso   1.00
H535   H     0.87351   0.03918   0.57019   0.00000  Uiso   1.00
H536   H     0.77537   0.21259   0.36971   0.00000  Uiso   1.00
H537   H     0.89130   0.12074   0.63029   0.00000  Uiso   1.00
H538   H     0.77536   0.21258   0.61608   0.00000  Uiso   1.00
H539   H     0.89130   0.12076   0.38392   0.00000  Uiso   1.00
H540   H     0.85333   0.03991   0.38846   0.00000  Uiso   1.00
N541   N     0.83335   0.16668   0.61736   0.00000  Uiso   1.00
N542   N     0.83332   0.16666   0.38264   0.00000  Uiso   1.00
O543   O     0.83333   0.10655   0.53958   0.00000  Uiso   1.00
O544   O     0.88107   0.29182   0.57988   0.00000  Uiso   1.00
O545   O     0.83334   0.22678   0.46042   0.00000  Uiso   1.00
O546   O     0.83333   0.10654   0.46039   0.00000  Uiso   1.00
O547   O     0.83334   0.22679   0.53961   0.00000  Uiso   1.00
O548   O     0.75828   0.16667   0.53046   0.00000  Uiso   1.00
O549   O     0.90839   0.16666   0.46954   0.00000  Uiso   1.00
O550   O     0.75828   0.16666   0.45127   0.00000  Uiso   1.00
O551   O     0.90839   0.16667   0.54873   0.00000  Uiso   1.00
O552   O     0.78559   0.04151   0.42012   0.00000  Uiso   1.00
C553   C     0.16610   0.42073   0.49976   0.00000  Uiso   1.00
C554   C     0.18841   0.35536   0.53990   0.00000  Uiso   1.00
C555   C     0.16745   0.62389   0.50060   0.00000  Uiso   1.00
C556   C     0.16589   0.37611   0.49940   0.00000  Uiso   1.00
C557   C     0.13446   0.52547   0.35418   0.00000  Uiso   1.00
C558   C     0.19888   0.47453   0.64582   0.00000  Uiso   1.00
C559   C     0.13446   0.52547   0.63792   0.00000  Uiso   1.00
C560   C     0.19887   0.47453   0.36208   0.00000  Uiso   1.00
C561   C     0.14436   0.36789   0.38035   0.00000  Uiso   1.00
C562   C     0.18899   0.63212   0.61966   0.00000  Uiso   1.00
C563   C     0.16723   0.57927   0.50024   0.00000  Uiso   1.00
C564   C     0.06791   0.50001   0.48791   0.00000  Uiso   1.00
C565   C     0.26542   0.49999   0.51209   0.00000  Uiso   1.00
C566   C     0.01264   0.49997   0.48125   0.00000  Uiso   1.00
C567   C     0.32070   0.50003   0.51875   0.00000  Uiso   1.00
C568   C     0.14459   0.35418   0.45880   0.00000  Uiso   1.00
C569   C     0.18874   0.64582   0.54120   0.00000  Uiso   1.00
C570   C     0.14493   0.64464   0.46010   0.00000  Uiso   1.00
Cu571  Cu    0.16667   0.50001   0.54689   0.00000  Uiso   1.00
Cu572  Cu    0.16667   0.49999   0.45311   0.00000  Uiso   1.00
H573   H     0.32599   0.49989   0.44526   0.00000  Uiso   1.00
H574   H     0.12910   0.39000   0.35234   0.00000  Uiso   1.00
H575   H     0.13647   0.33639   0.36588   0.00000  Uiso   1.00
H576   H     0.20423   0.61000   0.64767   0.00000  Uiso   1.00
H577   H     0.14668   0.62679   0.61155   0.00000  Uiso   1.00
H578   H     0.19690   0.66362   0.63413   0.00000  Uiso   1.00
H579   H     0.00734   0.50011   0.55474   0.00000  Uiso   1.00
H580   H     0.12649   0.62748   0.42981   0.00000  Uiso   1.00
H581   H     0.20684   0.37252   0.57019   0.00000  Uiso   1.00
H582   H     0.10870   0.54593   0.36971   0.00000  Uiso   1.00
H583   H     0.22463   0.45407   0.63029   0.00000  Uiso   1.00
H584   H     0.10870   0.54591   0.61608   0.00000  Uiso   1.00
H585   H     0.22464   0.45409   0.38392   0.00000  Uiso   1.00
H586   H     0.18666   0.37324   0.38846   0.00000  Uiso   1.00
N587   N     0.16668   0.50001   0.61736   0.00000  Uiso   1.00
N588   N     0.16665   0.49999   0.38264   0.00000  Uiso   1.00
O589   O     0.16666   0.43989   0.53958   0.00000  Uiso   1.00
O590   O     0.21441   0.62515   0.57988   0.00000  Uiso   1.00
O591   O     0.16667   0.56011   0.46042   0.00000  Uiso   1.00
O592   O     0.16666   0.43988   0.46039   0.00000  Uiso   1.00
O593   O     0.16667   0.56012   0.53961   0.00000  Uiso   1.00
O594   O     0.09161   0.50000   0.53046   0.00000  Uiso   1.00
O595   O     0.24172   0.50000   0.46954   0.00000  Uiso   1.00
O596   O     0.09161   0.49999   0.45127   0.00000  Uiso   1.00
O597   O     0.24172   0.50001   0.54873   0.00000  Uiso   1.00
O598   O     0.11893   0.37484   0.42012   0.00000  Uiso   1.00
C599   C     0.49943   0.42073   0.49976   0.00000  Uiso   1.00
C600   C     0.52174   0.35536   0.53990   0.00000  Uiso   1.00
C601   C     0.50078   0.62389   0.50060   0.00000  Uiso   1.00
C602   C     0.49922   0.37611   0.49940   0.00000  Uiso   1.00
C603   C     0.46779   0.52547   0.35418   0.00000  Uiso   1.00
C604   C     0.53221   0.47453   0.64582   0.00000  Uiso   1.00
C605   C     0.46779   0.52547   0.63792   0.00000  Uiso   1.00
C606   C     0.53221   0.47453   0.36208   0.00000  Uiso   1.00
C607   C     0.47769   0.36789   0.38035   0.00000  Uiso   1.00
C608   C     0.52232   0.63212   0.61966   0.00000  Uiso   1.00
C609   C     0.50057   0.57927   0.50024   0.00000  Uiso   1.00
C610   C     0.40125   0.50001   0.48791   0.00000  Uiso   1.00
C611   C     0.59875   0.49999   0.51209   0.00000  Uiso   1.00
C612   C     0.34597   0.49997   0.48125   0.00000  Uiso   1.00
C613   C     0.65403   0.50003   0.51875   0.00000  Uiso   1.00
C614   C     0.47793   0.35418   0.45880   0.00000  Uiso   1.00
C615   C     0.52207   0.64582   0.54120   0.00000  Uiso   1.00
C616   C     0.47826   0.64464   0.46010   0.00000  Uiso   1.00
Cu617  Cu    0.50000   0.50001   0.54689   0.00000  Uiso   1.00
Cu618  Cu    0.50000   0.49999   0.45311   0.00000  Uiso   1.00
H619   H     0.65932   0.49989   0.44526   0.00000  Uiso   1.00
H620   H     0.46243   0.39000   0.35234   0.00000  Uiso   1.00
H621   H     0.46981   0.33639   0.36588   0.00000  Uiso   1.00
H622   H     0.53757   0.61000   0.64767   0.00000  Uiso   1.00
H623   H     0.48001   0.62679   0.61155   0.00000  Uiso   1.00
H624   H     0.53023   0.66362   0.63413   0.00000  Uiso   1.00
H625   H     0.34068   0.50011   0.55474   0.00000  Uiso   1.00
H626   H     0.45983   0.62748   0.42981   0.00000  Uiso   1.00
H627   H     0.54017   0.37252   0.57019   0.00000  Uiso   1.00
H628   H     0.44204   0.54593   0.36971   0.00000  Uiso   1.00
H629   H     0.55796   0.45407   0.63029   0.00000  Uiso   1.00
H630   H     0.44203   0.54591   0.61608   0.00000  Uiso   1.00
H631   H     0.55797   0.45409   0.38392   0.00000  Uiso   1.00
H632   H     0.51999   0.37324   0.38846   0.00000  Uiso   1.00
N633   N     0.50001   0.50001   0.61736   0.00000  Uiso   1.00
N634   N     0.49999   0.49999   0.38264   0.00000  Uiso   1.00
O635   O     0.50000   0.43989   0.53958   0.00000  Uiso   1.00
O636   O     0.54774   0.62515   0.57988   0.00000  Uiso   1.00
O637   O     0.50000   0.56011   0.46042   0.00000  Uiso   1.00
O638   O     0.50000   0.43988   0.46039   0.00000  Uiso   1.00
O639   O     0.50000   0.56012   0.53961   0.00000  Uiso   1.00
O640   O     0.42495   0.50000   0.53046   0.00000  Uiso   1.00
O641   O     0.57505   0.50000   0.46954   0.00000  Uiso   1.00
O642   O     0.42494   0.49999   0.45127   0.00000  Uiso   1.00
O643   O     0.57506   0.50001   0.54873   0.00000  Uiso   1.00
O644   O     0.45226   0.37484   0.42012   0.00000  Uiso   1.00
C645   C     0.83277   0.42073   0.49976   0.00000  Uiso   1.00
C646   C     0.85507   0.35536   0.53990   0.00000  Uiso   1.00
C647   C     0.83411   0.62389   0.50060   0.00000  Uiso   1.00
C648   C     0.83256   0.37611   0.49940   0.00000  Uiso   1.00
C649   C     0.80112   0.52547   0.35418   0.00000  Uiso   1.00
C650   C     0.86554   0.47453   0.64582   0.00000  Uiso   1.00
C651   C     0.80113   0.52547   0.63792   0.00000  Uiso   1.00
C652   C     0.86554   0.47453   0.36208   0.00000  Uiso   1.00
C653   C     0.81102   0.36789   0.38035   0.00000  Uiso   1.00
C654   C     0.85566   0.63212   0.61966   0.00000  Uiso   1.00
C655   C     0.83390   0.57927   0.50024   0.00000  Uiso   1.00
C656   C     0.73458   0.50001   0.48791   0.00000  Uiso   1.00
C657   C     0.93209   0.49999   0.51209   0.00000  Uiso   1.00
C658   C     0.67930   0.49997   0.48125   0.00000  Uiso   1.00
C659   C     0.98736   0.50003   0.51875   0.00000  Uiso   1.00
C660   C     0.81126   0.35418   0.45880   0.00000  Uiso   1.00
C661   C     0.85541   0.64582   0.54120   0.00000  Uiso   1.00
C662   C     0.81159   0.64464   0.46010   0.00000  Uiso   1.00
Cu663  Cu    0.83333   0.50001   0.54689   0.00000  Uiso   1.00
Cu664  Cu    0.83333   0.49999   0.45311   0.00000  Uiso   1.00
H665   H     0.99266   0.49989   0.44526   0.00000  Uiso   1.00
H666   H     0.79576   0.39000   0.35234   0.00000  Uiso   1.00
H667   H     0.80314   0.33639   0.36588   0.00000  Uiso   1.00
H668   H     0.87090   0.61000   0.64767   0.00000  Uiso   1.00
H669   H     0.81335   0.62679   0.61155   0.00000  Uiso   1.00
H670   H     0.86357   0.66362   0.63413   0.00000  Uiso   1.00
H671   H     0.67401   0.50011   0.55474   0.00000  Uiso   1.00
H672   H     0.79316   0.62748   0.42981   0.00000  Uiso   1.00
H673   H     0.87351   0.37252   0.57019   0.00000  Uiso   1.00
H674   H     0.77537   0.54593   0.36971   0.00000  Uiso   1.00
H675   H     0.89130   0.45407   0.63029   0.00000  Uiso   1.00
H676   H     0.77536   0.54591   0.61608   0.00000  Uiso   1.00
H677   H     0.89130   0.45409   0.38392   0.00000  Uiso   1.00
H678   H     0.85333   0.37324   0.38846   0.00000  Uiso   1.00
N679   N     0.83335   0.50001   0.61736   0.00000  Uiso   1.00
N680   N     0.83332   0.49999   0.38264   0.00000  Uiso   1.00
O681   O     0.83333   0.43989   0.53958   0.00000  Uiso   1.00
O682   O     0.88107   0.62515   0.57988   0.00000  Uiso   1.00
O683   O     0.83334   0.56011   0.46042   0.00000  Uiso   1.00
O684   O     0.83333   0.43988   0.46039   0.00000  Uiso   1.00
O685   O     0.83334   0.56012   0.53961   0.00000  Uiso   1.00
O686   O     0.75828   0.50000   0.53046   0.00000  Uiso   1.00
O687   O     0.90839   0.50000   0.46954   0.00000  Uiso   1.00
O688   O     0.75828   0.49999   0.45127   0.00000  Uiso   1.00
O689   O     0.90839   0.50001   0.54873   0.00000  Uiso   1.00
O690   O     0.78559   0.37484   0.42012   0.00000  Uiso   1.00
C691   C     0.16610   0.75407   0.49976   0.00000  Uiso   1.00
C692   C     0.18841   0.68870   0.53990   0.00000  Uiso   1.00
C693   C     0.16745   0.95723   0.50060   0.00000  Uiso   1.00
C694   C     0.16589   0.70944   0.49940   0.00000  Uiso   1.00
C695   C     0.13446   0.85880   0.35418   0.00000  Uiso   1.00
C696   C     0.19888   0.80786   0.64582   0.00000  Uiso   1.00
C697   C     0.13446   0.85880   0.63792   0.00000  Uiso   1.00
C698   C     0.19887   0.80786   0.36208   0.00000  Uiso   1.00
C699   C     0.14436   0.70123   0.38035   0.00000  Uiso   1.00
C700   C     0.18899   0.96545   0.61966   0.00000  Uiso   1.00
C701   C     0.16723   0.91260   0.50024   0.00000  Uiso   1.00
C702   C     0.06791   0.83334   0.48791   0.00000  Uiso   1.00
C703   C     0.26542   0.83333   0.51209   0.00000  Uiso   1.00
C704   C     0.01264   0.83330   0.48125   0.00000  Uiso   1.00
C705   C     0.32070   0.83336   0.51875   0.00000  Uiso   1.00
C706   C     0.14459   0.68751   0.45880   0.00000  Uiso   1.00
C707   C     0.18874   0.97915   0.54120   0.00000  Uiso   1.00
C708   C     0.14493   0.97797   0.46010   0.00000  Uiso   1.00
Cu709  Cu    0.16667   0.83334   0.54689   0.00000  Uiso   1.00
Cu710  Cu    0.16667   0.83333   0.45311   0.00000  Uiso   1.00
H711   H     0.32599   0.83322   0.44526   0.00000  Uiso   1.00
H712   H     0.12910   0.72334   0.35234   0.00000  Uiso   1.00
H713   H     0.13647   0.66972   0.36588   0.00000  Uiso   1.00
H714   H     0.20423   0.94333   0.64767   0.00000  Uiso   1.00
H715   H     0.14668   0.96012   0.61155   0.00000  Uiso   1.00
H716   H     0.19690   0.99695   0.63413   0.00000  Uiso   1.00
H717   H     0.00734   0.83345   0.55474   0.00000  Uiso   1.00
H718   H     0.12649   0.96082   0.42981   0.00000  Uiso   1.00
H719   H     0.20684   0.70585   0.57019   0.00000  Uiso   1.00
H720   H     0.10870   0.87926   0.36971   0.00000  Uiso   1.00
H721   H     0.22463   0.78741   0.63029   0.00000  Uiso   1.00
H722   H     0.10870   0.87925   0.61608   0.00000  Uiso   1.00
H723   H     0.22464   0.78742   0.38392   0.00000  Uiso   1.00
H724   H     0.18666   0.70658   0.38846   0.00000  Uiso   1.00
N725   N     0.16668   0.83334   0.61736   0.00000  Uiso   1.00
N726   N     0.16665   0.83332   0.38264   0.00000  Uiso   1.00
O727   O     0.16666   0.77322   0.53958   0.00000  Uiso   1.00
O728   O     0.21441   0.95849   0.57988   0.00000  Uiso   1.00
O729   O     0.16667   0.89345   0.46042   0.00000  Uiso   1.00
O730   O     0.16666   0.77321   0.46039   0.00000  Uiso   1.00
O731   O     0.16667   0.89346   0.53961   0.00000  Uiso   1.00
O732   O     0.09161   0.83334   0.53046   0.00000  Uiso   1.00
O733   O     0.24172   0.83333   0.46954   0.00000  Uiso   1.00
O734   O     0.09161   0.83333   0.45127   0.00000  Uiso   1.00
O735   O     0.24172   0.83334   0.54873   0.00000  Uiso   1.00
O736   O     0.11893   0.70818   0.42012   0.00000  Uiso   1.00
C737   C     0.49943   0.75407   0.49976   0.00000  Uiso   1.00
C738   C     0.52174   0.68870   0.53990   0.00000  Uiso   1.00
C739   C     0.50078   0.95723   0.50060   0.00000  Uiso   1.00
C740   C     0.49922   0.70944   0.49940   0.00000  Uiso   1.00
C741   C     0.46779   0.85880   0.35418   0.00000  Uiso   1.00
C742   C     0.53221   0.80786   0.64582   0.00000  Uiso   1.00
C743   C     0.46779   0.85880   0.63792   0.00000  Uiso   1.00
C744   C     0.53221   0.80786   0.36208   0.00000  Uiso   1.00
C745   C     0.47769   0.70123   0.38035   0.00000  Uiso   1.00
C746   C     0.52232   0.96545   0.61966   0.00000  Uiso   1.00
C747   C     0.50057   0.91260   0.50024   0.00000  Uiso   1.00
C748   C     0.40125   0.83334   0.48791   0.00000  Uiso   1.00
C749   C     0.59875   0.83333   0.51209   0.00000  Uiso   1.00
C750   C     0.34597   0.83330   0.48125   0.00000  Uiso   1.00
C751   C     0.65403   0.83336   0.51875   0.00000  Uiso   1.00
C752   C     0.47793   0.68751   0.45880   0.00000  Uiso   1.00
C753   C     0.52207   0.97915   0.54120   0.00000  Uiso   1.00
C754   C     0.47826   0.97797   0.46010   0.00000  Uiso   1.00
Cu755  Cu    0.50000   0.83334   0.54689   0.00000  Uiso   1.00
Cu756  Cu    0.50000   0.83333   0.45311   0.00000  Uiso   1.00
H757   H     0.65932   0.83322   0.44526   0.00000  Uiso   1.00
H758   H     0.46243   0.72334   0.35234   0.00000  Uiso   1.00
H759   H     0.46981   0.66972   0.36588   0.00000  Uiso   1.00
H760   H     0.53757   0.94333   0.64767   0.00000  Uiso   1.00
H761   H     0.48001   0.96012   0.61155   0.00000  Uiso   1.00
H762   H     0.53023   0.99695   0.63413   0.00000  Uiso   1.00
H763   H     0.34068   0.83345   0.55474   0.00000  Uiso   1.00
H764   H     0.45983   0.96082   0.42981   0.00000  Uiso   1.00
H765   H     0.54017   0.70585   0.57019   0.00000  Uiso   1.00
H766   H     0.44204   0.87926   0.36971   0.00000  Uiso   1.00
H767   H     0.55796   0.78741   0.63029   0.00000  Uiso   1.00
H768   H     0.44203   0.87925   0.61608   0.00000  Uiso   1.00
H769   H     0.55797   0.78742   0.38392   0.00000  Uiso   1.00
H770   H     0.51999   0.70658   0.38846   0.00000  Uiso   1.00
N771   N     0.50001   0.83334   0.61736   0.00000  Uiso   1.00
N772   N     0.49999   0.83332   0.38264   0.00000  Uiso   1.00
O773   O     0.50000   0.77322   0.53958   0.00000  Uiso   1.00
O774   O     0.54774   0.95849   0.57988   0.00000  Uiso   1.00
O775   O     0.50000   0.89345   0.46042   0.00000  Uiso   1.00
O776   O     0.50000   0.77321   0.46039   0.00000  Uiso   1.00
O777   O     0.50000   0.89346   0.53961   0.00000  Uiso   1.00
O778   O     0.42495   0.83334   0.53046   0.00000  Uiso   1.00
O779   O     0.57505   0.83333   0.46954   0.00000  Uiso   1.00
O780   O     0.42494   0.83333   0.45127   0.00000  Uiso   1.00
O781   O     0.57506   0.83334   0.54873   0.00000  Uiso   1.00
O782   O     0.45226   0.70818   0.42012   0.00000  Uiso   1.00
C783   C     0.83277   0.75407   0.49976   0.00000  Uiso   1.00
C784   C     0.85507   0.68870   0.53990   0.00000  Uiso   1.00
C785   C     0.83411   0.95723   0.50060   0.00000  Uiso   1.00
C786   C     0.83256   0.70944   0.49940   0.00000  Uiso   1.00
C787   C     0.80112   0.85880   0.35418   0.00000  Uiso   1.00
C788   C     0.86554   0.80786   0.64582   0.00000  Uiso   1.00
C789   C     0.80113   0.85880   0.63792   0.00000  Uiso   1.00
C790   C     0.86554   0.80786   0.36208   0.00000  Uiso   1.00
C791   C     0.81102   0.70123   0.38035   0.00000  Uiso   1.00
C792   C     0.85566   0.96545   0.61966   0.00000  Uiso   1.00
C793   C     0.83390   0.91260   0.50024   0.00000  Uiso   1.00
C794   C     0.73458   0.83334   0.48791   0.00000  Uiso   1.00
C795   C     0.93209   0.83333   0.51209   0.00000  Uiso   1.00
C796   C     0.67930   0.83330   0.48125   0.00000  Uiso   1.00
C797   C     0.98736   0.83336   0.51875   0.00000  Uiso   1.00
C798   C     0.81126   0.68751   0.45880   0.00000  Uiso   1.00
C799   C     0.85541   0.97915   0.54120   0.00000  Uiso   1.00
C800   C     0.81159   0.97797   0.46010   0.00000  Uiso   1.00
Cu801  Cu    0.83333   0.83334   0.54689   0.00000  Uiso   1.00
Cu802  Cu    0.83333   0.83333   0.45311   0.00000  Uiso   1.00
H803   H     0.99266   0.83322   0.44526   0.00000  Uiso   1.00
H804   H     0.79576   0.72334   0.35234   0.00000  Uiso   1.00
H805   H     0.80314   0.66972   0.36588   0.00000  Uiso   1.00
H806   H     0.87090   0.94333   0.64767   0.00000  Uiso   1.00
H807   H     0.81335   0.96012   0.61155   0.00000  Uiso   1.00
H808   H     0.86357   0.99695   0.63413   0.00000  Uiso   1.00
H809   H     0.67401   0.83345   0.55474   0.00000  Uiso   1.00
H810   H     0.79316   0.96082   0.42981   0.00000  Uiso   1.00
H811   H     0.87351   0.70585   0.57019   0.00000  Uiso   1.00
H812   H     0.77537   0.87926   0.36971   0.00000  Uiso   1.00
H813   H     0.89130   0.78741   0.63029   0.00000  Uiso   1.00
H814   H     0.77536   0.87925   0.61608   0.00000  Uiso   1.00
H815   H     0.89130   0.78742   0.38392   0.00000  Uiso   1.00
H816   H     0.85333   0.70658   0.38846   0.00000  Uiso   1.00
N817   N     0.83335   0.83334   0.61736   0.00000  Uiso   1.00
N818   N     0.83332   0.83332   0.38264   0.00000  Uiso   1.00
O819   O     0.83333   0.77322   0.53958   0.00000  Uiso   1.00
O820   O     0.88107   0.95849   0.57988   0.00000  Uiso   1.00
O821   O     0.83334   0.89345   0.46042   0.00000  Uiso   1.00
O822   O     0.83333   0.77321   0.46039   0.00000  Uiso   1.00
O823   O     0.83334   0.89346   0.53961   0.00000  Uiso   1.00
O824   O     0.75828   0.83334   0.53046   0.00000  Uiso   1.00
O825   O     0.90839   0.83333   0.46954   0.00000  Uiso   1.00
O826   O     0.75828   0.83333   0.45127   0.00000  Uiso   1.00
O827   O     0.90839   0.83334   0.54873   0.00000  Uiso   1.00
O828   O     0.78559   0.70818   0.42012   0.00000  Uiso   1.00
C829   C     0.16610   0.08740   0.83309   0.00000  Uiso   1.00
C830   C     0.18841   0.02203   0.87324   0.00000  Uiso   1.00
C831   C     0.16745   0.29056   0.83393   0.00000  Uiso   1.00
C832   C     0.16589   0.04277   0.83274   0.00000  Uiso   1.00
C833   C     0.13446   0.19214   0.68752   0.00000  Uiso   1.00
C834   C     0.19888   0.14120   0.97915   0.00000  Uiso   1.00
C835   C     0.13446   0.19214   0.97125   0.00000  Uiso   1.00
C836   C     0.19887   0.14120   0.69541   0.00000  Uiso   1.00
C837   C     0.14436   0.03456   0.71368   0.00000  Uiso   1.00
C838   C     0.18899   0.29878   0.95299   0.00000  Uiso   1.00
C839   C     0.16723   0.24593   0.83357   0.00000  Uiso   1.00
C840   C     0.06791   0.16667   0.82124   0.00000  Uiso   1.00
C841   C     0.26542   0.16666   0.84543   0.00000  Uiso   1.00
C842   C     0.01264   0.16664   0.81458   0.00000  Uiso   1.00
C843   C     0.32070   0.16669   0.85209   0.00000  Uiso   1.00
C844   C     0.14459   0.02085   0.79214   0.00000  Uiso   1.00
C845   C     0.18874   0.31249   0.87453   0.00000  Uiso   1.00
C846   C     0.14493   0.31130   0.79343   0.00000  Uiso   1.00
Cu847  Cu    0.16667   0.16667   0.88022   0.00000  Uiso   1.00
Cu848  Cu    0.16667   0.16666   0.78645   0.00000  Uiso   1.00
H849   H     0.32599   0.16655   0.77859   0.00000  Uiso   1.00
H850   H     0.12910   0.05667   0.68567   0.00000  Uiso   1.00
H851   H     0.13647   0.00305   0.69921   0.00000  Uiso   1.00
H852   H     0.20423   0.27667   0.98100   0.00000  Uiso   1.00
H853   H     0.14668   0.29346   0.94489   0.00000  Uiso   1.00
H854   H     0.19690   0.33029   0.96747   0.00000  Uiso   1.00
H855   H     0.00734   0.16678   0.88807   0.00000  Uiso   1.00
H856   H     0.12649   0.29415   0.76314   0.00000  Uiso   1.00
H857   H     0.20684   0.03918   0.90352   0.00000  Uiso   1.00
H858   H     0.10870   0.21259   0.70304   0.00000  Uiso   1.00
H859   H     0.22463   0.12074   0.96363   0.00000  Uiso   1.00
H860   H     0.10870   0.21258   0.94941   0.00000  Uiso   1.00
H861   H     0.22464   0.12076   0.71725   0.00000  Uiso   1.00
H862   H     0.18666   0.03991   0.72179   0.00000  Uiso   1.00
N863   N     0.16668   0.16668   0.95069   0.00000  Uiso   1.00
N864   N     0.16665   0.16666   0.71597   0.00000  Uiso   1.00
O865   O     0.16666   0.10655   0.87291   0.00000  Uiso   1.00
O866   O     0.21441   0.29182   0.91321   0.00000  Uiso   1.00
O867   O     0.16667   0.22678   0.79375   0.00000  Uiso   1.00
O868   O     0.16666   0.10654   0.79372   0.00000  Uiso   1.00
O869   O     0.16667   0.22679   0.87294   0.00000  Uiso   1.00
O870   O     0.09161   0.16667   0.86379   0.00000  Uiso   1.00
O871   O     0.24172   0.16666   0.80288   0.00000  Uiso   1.00
O872   O     0.09161   0.16666   0.78460   0.00000  Uiso   1.00
O873   O     0.24172   0.16667   0.88207   0.00000  Uiso   1.00
O874   O     0.11893   0.04151   0.75346   0.00000  Uiso   1.00
C875   C     0.49943   0.08740   0.83309   0.00000  Uiso   1.00
C876   C     0.52174   0.02203   0.87324   0.00000  Uiso   1.00
C877   C     0.50078   0.29056   0.83393   0.00000  Uiso   1.00
C878   C     0.49922   0.04277   0.83274   0.00000  Uiso   1.00
C879   C     0.46779   0.19214   0.68752   0.00000  Uiso   1.00
C880   C     0.53221   0.14120   0.97915   0.00000  Uiso   1.00
C881   C     0.46779   0.19214   0.97125   0.00000  Uiso   1.00
C882   C     0.53221   0.14120   0.69541   0.00000  Uiso   1.00
C883   C     0.47769   0.03456   0.71368   0.00000  Uiso   1.00
C884   C     0.52232   0.29878   0.95299   0.00000  Uiso   1.00
C885   C     0.50057   0.24593   0.83357   0.00000  Uiso   1.00
C886   C     0.40125   0.16667   0.82124   0.00000  Uiso   1.00
C887   C     0.59875   0.16666   0.84543   0.00000  Uiso   1.00
C888   C     0.34597   0.16664   0.81458   0.00000  Uiso   1.00
C889   C     0.65403   0.16669   0.85209   0.00000  Uiso   1.00
C890   C     0.47793   0.02085   0.79214   0.00000  Uiso   1.00
C891   C     0.52207   0.31249   0.87453   0.00000  Uiso   1.00
C892   C     0.47826   0.31130   0.79343   0.00000  Uiso   1.00
Cu893  Cu    0.50000   0.16667   0.88022   0.00000  Uiso   1.00
Cu894  Cu    0.50000   0.16666   0.78645   0.00000  Uiso   1.00
H895   H     0.65932   0.16655   0.77859   0.00000  Uiso   1.00
H896   H     0.46243   0.05667   0.68567   0.00000  Uiso   1.00
H897   H     0.46981   0.00305   0.69921   0.00000  Uiso   1.00
H898   H     0.53757   0.27667   0.98100   0.00000  Uiso   1.00
H899   H     0.48001   0.29346   0.94489   0.00000  Uiso   1.00
H900   H     0.53023   0.33029   0.96747   0.00000  Uiso   1.00
H901   H     0.34068   0.16678   0.88807   0.00000  Uiso   1.00
H902   H     0.45983   0.29415   0.76314   0.00000  Uiso   1.00
H903   H     0.54017   0.03918   0.90352   0.00000  Uiso   1.00
H904   H     0.44204   0.21259   0.70304   0.00000  Uiso   1.00
H905   H     0.55796   0.12074   0.96363   0.00000  Uiso   1.00
H906   H     0.44203   0.21258   0.94941   0.00000  Uiso   1.00
H907   H     0.55797   0.12076   0.71725   0.00000  Uiso   1.00
H908   H     0.51999   0.03991   0.72179   0.00000  Uiso   1.00
N909   N     0.50001   0.16668   0.95069   0.00000  Uiso   1.00
N910   N     0.49999   0.16666   0.71597   0.00000  Uiso   1.00
O911   O     0.50000   0.10655   0.87291   0.00000  Uiso   1.00
O912   O     0.54774   0.29182   0.91321   0.00000  Uiso   1.00
O913   O     0.50000   0.22678   0.79375   0.00000  Uiso   1.00
O914   O     0.50000   0.10654   0.79372   0.00000  Uiso   1.00
O915   O     0.50000   0.22679   0.87294   0.00000  Uiso   1.00
O916   O     0.42495   0.16667   0.86379   0.00000  Uiso   1.00
O917   O     0.57505   0.16666   0.80288   0.00000  Uiso   1.00
O918   O     0.42494   0.16666   0.78460   0.00000  Uiso   1.00
O919   O     0.57506   0.16667   0.88207   0.00000  Uiso   1.00
O920   O     0.45226   0.04151   0.75346   0.00000  Uiso   1.00
C921   C     0.83277   0.08740   0.83309   0.00000  Uiso   1.00
C922   C     0.85507   0.02203   0.87324   0.00000  Uiso   1.00
C923   C     0.83411   0.29056   0.83393   0.00000  Uiso   1.00
C924   C     0.83256   0.04277   0.83274   0.00000  Uiso   1.00
C925   C     0.80112   0.19214   0.68752   0.00000  Uiso   1.00
C926   C     0.86554   0.14120   0.97915   0.00000  Uiso   1.00
C927   C     0.80113   0.19214   0.97125   0.00000  Uiso   1.00
C928   C     0.86554   0.14120   0.69541   0.00000  Uiso   1.00
C929   C     0.81102   0.03456   0.71368   0.00000  Uiso   1.00
C930   C     0.85566   0.29878   0.95299   0.00000  Uiso   1.00
C931   C     0.83390   0.24593   0.83357   0.00000  Uiso   1.00
C932   C     0.73458   0.16667   0.82124   0.00000  Uiso   1.00
C933   C     0.93209   0.16666   0.84543   0.00000  Uiso   1.00
C934   C     0.67930   0.16664   0.81458   0.00000  Uiso   1.00
C935   C     0.98736   0.16669   0.85209   0.00000  Uiso   1.00
C936   C     0.81126   0.02085   0.79214   0.00000  Uiso   1.00
C937   C     0.85541   0.31249   0.87453   0.00000  Uiso   1.00
C938   C     0.81159   0.31130   0.79343   0.00000  Uiso   1.00
Cu939  Cu    0.83333   0.16667   0.88022   0.00000  Uiso   1.00
Cu940  Cu    0.83333   0.16666   0.78645   0.00000  Uiso   1.00
H941   H     0.99266   0.16655   0.77859   0.00000  Uiso   1.00
H942   H     0.79576   0.05667   0.68567   0.00000  Uiso   1.00
H943   H     0.80314   0.00305   0.69921   0.00000  Uiso   1.00
H944   H     0.87090   0.27667   0.98100   0.00000  Uiso   1.00
H945   H     0.81335   0.29346   0.94489   0.00000  Uiso   1.00
H946   H     0.86357   0.33029   0.96747   0.00000  Uiso   1.00
H947   H     0.67401   0.16678   0.88807   0.00000  Uiso   1.00
H948   H     0.79316   0.29415   0.76314   0.00000  Uiso   1.00
H949   H     0.87351   0.03918   0.90352   0.00000  Uiso   1.00
H950   H     0.77537   0.21259   0.70304   0.00000  Uiso   1.00
H951   H     0.89130   0.12074   0.96363   0.00000  Uiso   1.00
H952   H     0.77536   0.21258   0.94941   0.00000  Uiso   1.00
H953   H     0.89130   0.12076   0.71725   0.00000  Uiso   1.00
H954   H     0.85333   0.03991   0.72179   0.00000  Uiso   1.00
N955   N     0.83335   0.16668   0.95069   0.00000  Uiso   1.00
N956   N     0.83332   0.16666   0.71597   0.00000  Uiso   1.00
O957   O     0.83333   0.10655   0.87291   0.00000  Uiso   1.00
O958   O     0.88107   0.29182   0.91321   0.00000  Uiso   1.00
O959   O     0.83334   0.22678   0.79375   0.00000  Uiso   1.00
O960   O     0.83333   0.10654   0.79372   0.00000  Uiso   1.00
O961   O     0.83334   0.22679   0.87294   0.00000  Uiso   1.00
O962   O     0.75828   0.16667   0.86379   0.00000  Uiso   1.00
O963   O     0.90839   0.16666   0.80288   0.00000  Uiso   1.00
O964   O     0.75828   0.16666   0.78460   0.00000  Uiso   1.00
O965   O     0.90839   0.16667   0.88207   0.00000  Uiso   1.00
O966   O     0.78559   0.04151   0.75346   0.00000  Uiso   1.00
C967   C     0.16610   0.42073   0.83309   0.00000  Uiso   1.00
C968   C     0.18841   0.35536   0.87324   0.00000  Uiso   1.00
C969   C     0.16745   0.62389   0.83393   0.00000  Uiso   1.00
C970   C     0.16589   0.37611   0.83274   0.00000  Uiso   1.00
C971   C     0.13446   0.52547   0.68752   0.00000  Uiso   1.00
C972   C     0.19888   0.47453   0.97915   0.00000  Uiso   1.00
C973   C     0.13446   0.52547   0.97125   0.00000  Uiso   1.00
C974   C     0.19887   0.47453   0.69541   0.00000  Uiso   1.00
C975   C     0.14436   0.36789   0.71368   0.00000  Uiso   1.00
C976   C     0.18899   0.63212   0.95299   0.00000  Uiso   1.00
C977   C     0.16723   0.57927   0.83357   0.00000  Uiso   1.00
C978   C     0.06791   0.50001   0.82124   0.00000  Uiso   1.00
C979   C     0.26542   0.49999   0.84543   0.00000  Uiso   1.00
C980   C     0.01264   0.49997   0.81458   0.00000  Uiso   1.00
C981   C     0.32070   0.50003   0.85209   0.00000  Uiso   1.00
C982   C     0.14459   0.35418   0.79214   0.00000  Uiso   1.00
C983   C     0.18874   0.64582   0.87453   0.00000  Uiso   1.00
C984   C     0.14493   0.64464   0.79343   0.00000  Uiso   1.00
Cu985  Cu    0.16667   0.50001   0.88022   0.00000  Uiso   1.00
Cu986  Cu    0.16667   0.49999   0.78645   0.00000  Uiso   1.00
H987   H     0.32599   0.49989   0.77859   0.00000  Uiso   1.00
H988   H     0.12910   0.39000   0.68567   0.00000  Uiso   1.00
H989   H     0.13647   0.33639   0.69921   0.00000  Uiso   1.00
H990   H     0.20423   0.61000   0.98100   0.00000  Uiso   1.00
H991   H     0.14668   0.62679   0.94489   0.00000  Uiso   1.00
H992   H     0.19690   0.66362   0.96747   0.00000  Uiso   1.00
H993   H     0.00734   0.50011   0.88807   0.00000  Uiso   1.00
H994   H     0.12649   0.62748   0.76314   0.00000  Uiso   1.00
H995   H     0.20684   0.37252   0.90352   0.00000  Uiso   1.00
H996   H     0.10870   0.54593   0.70304   0.00000  Uiso   1.00
H997   H     0.22463   0.45407   0.96363   0.00000  Uiso   1.00
H998   H     0.10870   0.54591   0.94941   0.00000  Uiso   1.00
H999   H     0.22464   0.45409   0.71725   0.00000  Uiso   1.00
H1000  H     0.18666   0.37324   0.72179   0.00000  Uiso   1.00
N1001  N     0.16668   0.50001   0.95069   0.00000  Uiso   1.00
N1002  N     0.16665   0.49999   0.71597   0.00000  Uiso   1.00
O1003  O     0.16666   0.43989   0.87291   0.00000  Uiso   1.00
O1004  O     0.21441   0.62515   0.91321   0.00000  Uiso   1.00
O1005  O     0.16667   0.56011   0.79375   0.00000  Uiso   1.00
O1006  O     0.16666   0.43988   0.79372   0.00000  Uiso   1.00
O1007  O     0.16667   0.56012   0.87294   0.00000  Uiso   1.00
O1008  O     0.09161   0.50000   0.86379   0.00000  Uiso   1.00
O1009  O     0.24172   0.50000   0.80288   0.00000  Uiso   1.00
O1010  O     0.09161   0.49999   0.78460   0.00000  Uiso   1.00
O1011  O     0.24172   0.50001   0.88207   0.00000  Uiso   1.00
O1012  O     0.11893   0.37484   0.75346   0.00000  Uiso   1.00
C1013  C     0.49943   0.42073   0.83309   0.00000  Uiso   1.00
C1014  C     0.52174   0.35536   0.87324   0.00000  Uiso   1.00
C1015  C     0.50078   0.62389   0.83393   0.00000  Uiso   1.00
C1016  C     0.49922   0.37611   0.83274   0.00000  Uiso   1.00
C1017  C     0.46779   0.52547   0.68752   0.00000  Uiso   1.00
C1018  C     0.53221   0.47453   0.97915   0.00000  Uiso   1.00
C1019  C     0.46779   0.52547   0.97125   0.00000  Uiso   1.00
C1020  C     0.53221   0.47453   0.69541   0.00000  Uiso   1.00
C1021  C     0.47769   0.36789   0.71368   0.00000  Uiso   1.00
C1022  C     0.52232   0.63212   0.95299   0.00000  Uiso   1.00
C1023  C     0.50057   0.57927   0.83357   0.00000  Uiso   1.00
C1024  C     0.40125   0.50001   0.82124   0.00000  Uiso   1.00
C1025  C     0.59875   0.49999   0.84543   0.00000  Uiso   1.00
C1026  C     0.34597   0.49997   0.81458   0.00000  Uiso   1.00
C1027  C     0.65403   0.50003   0.85209   0.00000  Uiso   1.00
C1028  C     0.47793   0.35418   0.79214   0.00000  Uiso   1.00
C1029  C     0.52207   0.64582   0.87453   0.00000  Uiso   1.00
C1030  C     0.47826   0.64464   0.79343   0.00000  Uiso   1.00
Cu1031 Cu    0.50000   0.50001   0.88022   0.00000  Uiso   1.00
Cu1032 Cu    0.50000   0.49999   0.78645   0.00000  Uiso   1.00
H1033  H     0.65932   0.49989   0.77859   0.00000  Uiso   1.00
H1034  H     0.46243   0.39000   0.68567   0.00000  Uiso   1.00
H1035  H     0.46981   0.33639   0.69921   0.00000  Uiso   1.00
H1036  H     0.53757   0.61000   0.98100   0.00000  Uiso   1.00
H1037  H     0.48001   0.62679   0.94489   0.00000  Uiso   1.00
H1038  H     0.53023   0.66362   0.96747   0.00000  Uiso   1.00
H1039  H     0.34068   0.50011   0.88807   0.00000  Uiso   1.00
H1040  H     0.45983   0.62748   0.76314   0.00000  Uiso   1.00
H1041  H     0.54017   0.37252   0.90352   0.00000  Uiso   1.00
H1042  H     0.44204   0.54593   0.70304   0.00000  Uiso   1.00
H1043  H     0.55796   0.45407   0.96363   0.00000  Uiso   1.00
H1044  H     0.44203   0.54591   0.94941   0.00000  Uiso   1.00
H1045  H     0.55797   0.45409   0.71725   0.00000  Uiso   1.00
H1046  H     0.51999   0.37324   0.72179   0.00000  Uiso   1.00
N1047  N     0.50001   0.50001   0.95069   0.00000  Uiso   1.00
N1048  N     0.49999   0.49999   0.71597   0.00000  Uiso   1.00
O1049  O     0.50000   0.43989   0.87291   0.00000  Uiso   1.00
O1050  O     0.54774   0.62515   0.91321   0.00000  Uiso   1.00
O1051  O     0.50000   0.56011   0.79375   0.00000  Uiso   1.00
O1052  O     0.50000   0.43988   0.79372   0.00000  Uiso   1.00
O1053  O     0.50000   0.56012   0.87294   0.00000  Uiso   1.00
O1054  O     0.42495   0.50000   0.86379   0.00000  Uiso   1.00
O1055  O     0.57505   0.50000   0.80288   0.00000  Uiso   1.00
O1056  O     0.42494   0.49999   0.78460   0.00000  Uiso   1.00
O1057  O     0.57506   0.50001   0.88207   0.00000  Uiso   1.00
O1058  O     0.45226   0.37484   0.75346   0.00000  Uiso   1.00
C1059  C     0.83277   0.42073   0.83309   0.00000  Uiso   1.00
C1060  C     0.85507   0.35536   0.87324   0.00000  Uiso   1.00
C1061  C     0.83411   0.62389   0.83393   0.00000  Uiso   1.00
C1062  C     0.83256   0.37611   0.83274   0.00000  Uiso   1.00
C1063  C     0.80112   0.52547   0.68752   0.00000  Uiso   1.00
C1064  C     0.86554   0.47453   0.97915   0.00000  Uiso   1.00
C1065  C     0.80113   0.52547   0.97125   0.00000  Uiso   1.00
C1066  C     0.86554   0.47453   0.69541   0.00000  Uiso   1.00
C1067  C     0.81102   0.36789   0.71368   0.00000  Uiso   1.00
C1068  C     0.85566   0.63212   0.95299   0.00000  Uiso   1.00
C1069  C     0.83390   0.57927   0.83357   0.00000  Uiso   1.00
C1070  C     0.73458   0.50001   0.82124   0.00000  Uiso   1.00
C1071  C     0.93209   0.49999   0.84543   0.00000  Uiso   1.00
C1072  C     0.67930   0.49997   0.81458   0.00000  Uiso   1.00
C1073  C     0.98736   0.50003   0.85209   0.00000  Uiso   1.00
C1074  C     0.81126   0.35418   0.79214   0.00000  Uiso   1.00
C1075  C     0.85541   0.64582   0.87453   0.00000  Uiso   1.00
C1076  C     0.81159   0.64464   0.79343   0.00000  Uiso   1.00
Cu1077 Cu    0.83333   0.50001   0.88022   0.00000  Uiso   1.00
Cu1078 Cu    0.83333   0.49999   0.78645   0.00000  Uiso   1.00
H1079  H     0.99266   0.49989   0.77859   0.00000  Uiso   1.00
H1080  H     0.79576   0.39000   0.68567   0.00000  Uiso   1.00
H1081  H     0.80314   0.33639   0.69921   0.00000  Uiso   1.00
H1082  H     0.87090   0.61000   0.98100   0.00000  Uiso   1.00
H1083  H     0.81335   0.62679   0.94489   0.00000  Uiso   1.00
H1084  H     0.86357   0.66362   0.96747   0.00000  Uiso   1.00
H1085  H     0.67401   0.50011   0.88807   0.00000  Uiso   1.00
H1086  H     0.79316   0.62748   0.76314   0.00000  Uiso   1.00
H1087  H     0.87351   0.37252   0.90352   0.00000  Uiso   1.00
H1088  H     0.77537   0.54593   0.70304   0.00000  Uiso   1.00
H1089  H     0.89130   0.45407   0.96363   0.00000  Uiso   1.00
H1090  H     0.77536   0.54591   0.94941   0.00000  Uiso   1.00
H1091  H     0.89130   0.45409   0.71725   0.00000  Uiso   1.00
H1092  H     0.85333   0.37324   0.72179   0.00000  Uiso   1.00
N1093  N     0.83335   0.50001   0.95069   0.00000  Uiso   1.00
N1094  N     0.83332   0.49999   0.71597   0.00000  Uiso   1.00
O1095  O     0.83333   0.43989   0.87291   0.00000  Uiso   1.00
O1096  O     0.88107   0.62515   0.91321   0.00000  Uiso   1.00
O1097  O     0.83334   0.56011   0.79375   0.00000  Uiso   1.00
O1098  O     0.83333   0.43988   0.79372   0.00000  Uiso   1.00
O1099  O     0.83334   0.56012   0.87294   0.00000  Uiso   1.00
O1100  O     0.75828   0.50000   0.86379   0.00000  Uiso   1.00
O1101  O     0.90839   0.50000   0.80288   0.00000  Uiso   1.00
O1102  O     0.75828   0.49999   0.78460   0.00000  Uiso   1.00
O1103  O     0.90839   0.50001   0.88207   0.00000  Uiso   1.00
O1104  O     0.78559   0.37484   0.75346   0.00000  Uiso   1.00
C1105  C     0.16610   0.75407   0.83309   0.00000  Uiso   1.00
C1106  C     0.18841   0.68870   0.87324   0.00000  Uiso   1.00
C1107  C     0.16745   0.95723   0.83393   0.00000  Uiso   1.00
C1108  C     0.16589   0.70944   0.83274   0.00000  Uiso   1.00
C1109  C     0.13446   0.85880   0.68752   0.00000  Uiso   1.00
C1110  C     0.19888   0.80786   0.97915   0.00000  Uiso   1.00
C1111  C     0.13446   0.85880   0.97125   0.00000  Uiso   1.00
C1112  C     0.19887   0.80786   0.69541   0.00000  Uiso   1.00
C1113  C     0.14436   0.70123   0.71368   0.00000  Uiso   1.00
C1114  C     0.18899   0.96545   0.95299   0.00000  Uiso   1.00
C1115  C     0.16723   0.91260   0.83357   0.00000  Uiso   1.00
C1116  C     0.06791   0.83334   0.82124   0.00000  Uiso   1.00
C1117  C     0.26542   0.83333   0.84543   0.00000  Uiso   1.00
C1118  C     0.01264   0.83330   0.81458   0.00000  Uiso   1.00
C1119  C     0.32070   0.83336   0.85209   0.00000  Uiso   1.00
C1120  C     0.14459   0.68751   0.79214   0.00000  Uiso   1.00
C1121  C     0.18874   0.97915   0.87453   0.00000  Uiso   1.00
C1122  C     0.14493   0.97797   0.79343   0.00000  Uiso   1.00
Cu1123 Cu    0.16667   0.83334   0.88022   0.00000  Uiso   1.00
Cu1124 Cu    0.16667   0.83333   0.78645   0.00000  Uiso   1.00
H1125  H     0.32599   0.83322   0.77859   0.00000  Uiso   1.00
H1126  H     0.12910   0.72334   0.68567   0.00000  Uiso   1.00
H1127  H     0.13647   0.66972   0.69921   0.00000  Uiso   1.00
H1128  H     0.20423   0.94333   0.98100   0.00000  Uiso   1.00
H1129  H     0.14668   0.96012   0.94489   0.00000  Uiso   1.00
H1130  H     0.19690   0.99695   0.96747   0.00000  Uiso   1.00
H1131  H     0.00734   0.83345   0.88807   0.00000  Uiso   1.00
H1132  H     0.12649   0.96082   0.76314   0.00000  Uiso   1.00
H1133  H     0.20684   0.70585   0.90352   0.00000  Uiso   1.00
H1134  H     0.10870   0.87926   0.70304   0.00000  Uiso   1.00
H1135  H     0.22463   0.78741   0.96363   0.00000  Uiso   1.00
H1136  H     0.10870   0.87925   0.94941   0.00000  Uiso   1.00
H1137  H     0.22464   0.78742   0.71725   0.00000  Uiso   1.00
H1138  H     0.18666   0.70658   0.72179   0.00000  Uiso   1.00
N1139  N     0.16668   0.83334   0.95069   0.00000  Uiso   1.00
N1140  N     0.16665   0.83332   0.71597   0.00000  Uiso   1.00
O1141  O     0.16666   0.77322   0.87291   0.00000  Uiso   1.00
O1142  O     0.21441   0.95849   0.91321   0.00000  Uiso   1.00
O1143  O     0.16667   0.89345   0.79375   0.00000  Uiso   1.00
O1144  O     0.16666   0.77321   0.79372   0.00000  Uiso   1.00
O1145  O     0.16667   0.89346   0.87294   0.00000  Uiso   1.00
O1146  O     0.09161   0.83334   0.86379   0.00000  Uiso   1.00
O1147  O     0.24172   0.83333   0.80288   0.00000  Uiso   1.00
O1148  O     0.09161   0.83333   0.78460   0.00000  Uiso   1.00
O1149  O     0.24172   0.83334   0.88207   0.00000  Uiso   1.00
O1150  O     0.11893   0.70818   0.75346   0.00000  Uiso   1.00
C1151  C     0.49943   0.75407   0.83309   0.00000  Uiso   1.00
C1152  C     0.52174   0.68870   0.87324   0.00000  Uiso   1.00
C1153  C     0.50078   0.95723   0.83393   0.00000  Uiso   1.00
C1154  C     0.49922   0.70944   0.83274   0.00000  Uiso   1.00
C1155  C     0.46779   0.85880   0.68752   0.00000  Uiso   1.00
C1156  C     0.53221   0.80786   0.97915   0.00000  Uiso   1.00
C1157  C     0.46779   0.85880   0.97125   0.00000  Uiso   1.00
C1158  C     0.53221   0.80786   0.69541   0.00000  Uiso   1.00
C1159  C     0.47769   0.70123   0.71368   0.00000  Uiso   1.00
C1160  C     0.52232   0.96545   0.95299   0.00000  Uiso   1.00
C1161  C     0.50057   0.91260   0.83357   0.00000  Uiso   1.00
C1162  C     0.40125   0.83334   0.82124   0.00000  Uiso   1.00
C1163  C     0.59875   0.83333   0.84543   0.00000  Uiso   1.00
C1164  C     0.34597   0.83330   0.81458   0.00000  Uiso   1.00
C1165  C     0.65403   0.83336   0.85209   0.00000  Uiso   1.00
C1166  C     0.47793   0.68751   0.79214   0.00000  Uiso   1.00
C1167  C     0.52207   0.97915   0.87453   0.00000  Uiso   1.00
C1168  C     0.47826   0.97797   0.79343   0.00000  Uiso   1.00
Cu1169 Cu    0.50000   0.83334   0.88022   0.00000  Uiso   1.00
Cu1170 Cu    0.50000   0.83333   0.78645   0.00000  Uiso   1.00
H1171  H     0.65932   0.83322   0.77859   0.00000  Uiso   1.00
H1172  H     0.46243   0.72334   0.68567   0.00000  Uiso   1.00
H1173  H     0.46981   0.66972   0.69921   0.00000  Uiso   1.00
H1174  H     0.53757   0.94333   0.98100   0.00000  Uiso   1.00
H1175  H     0.48001   0.96012   0.94489   0.00000  Uiso   1.00
H1176  H     0.53023   0.99695   0.96747   0.00000  Uiso   1.00
H1177  H     0.34068   0.83345   0.88807   0.00000  Uiso   1.00
H1178  H     0.45983   0.96082   0.76314   0.00000  Uiso   1.00
H1179  H     0.54017   0.70585   0.90352   0.00000  Uiso   1.00
H1180  H     0.44204   0.87926   0.70304   0.00000  Uiso   1.00
H1181  H     0.55796   0.78741   0.96363   0.00000  Uiso   1.00
H1182  H     0.44203   0.87925   0.94941   0.00000  Uiso   1.00
H1183  H     0.55797   0.78742   0.71725   0.00000  Uiso   1.00
H1184  H     0.51999   0.70658   0.72179   0.00000  Uiso   1.00
N1185  N     0.50001   0.83334   0.95069   0.00000  Uiso   1.00
N1186  N     0.49999   0.83332   0.71597   0.00000  Uiso   1.00
O1187  O     0.50000   0.77322   0.87291   0.00000  Uiso   1.00
O1188  O     0.54774   0.95849   0.91321   0.00000  Uiso   1.00
O1189  O     0.50000   0.89345   0.79375   0.00000  Uiso   1.00
O1190  O     0.50000   0.77321   0.79372   0.00000  Uiso   1.00
O1191  O     0.50000   0.89346   0.87294   0.00000  Uiso   1.00
O1192  O     0.42495   0.83334   0.86379   0.00000  Uiso   1.00
O1193  O     0.57505   0.83333   0.80288   0.00000  Uiso   1.00
O1194  O     0.42494   0.83333   0.78460   0.00000  Uiso   1.00
O1195  O     0.57506   0.83334   0.88207   0.00000  Uiso   1.00
O1196  O     0.45226   0.70818   0.75346   0.00000  Uiso   1.00
C1197  C     0.83277   0.75407   0.83309   0.00000  Uiso   1.00
C1198  C     0.85507   0.68870   0.87324   0.00000  Uiso   1.00
C1199  C     0.83411   0.95723   0.83393   0.00000  Uiso   1.00
C1200  C     0.83256   0.70944   0.83274   0.00000  Uiso   1.00
C1201  C     0.80112   0.85880   0.68752   0.00000  Uiso   1.00
C1202  C     0.86554   0.80786   0.97915   0.00000  Uiso   1.00
C1203  C     0.80113   0.85880   0.97125   0.00000  Uiso   1.00
C1204  C     0.86554   0.80786   0.69541   0.00000  Uiso   1.00
C1205  C     0.81102   0.70123   0.71368   0.00000  Uiso   1.00
C1206  C     0.85566   0.96545   0.95299   0.00000  Uiso   1.00
C1207  C     0.83390   0.91260   0.83357   0.00000  Uiso   1.00
C1208  C     0.73458   0.83334   0.82124   0.00000  Uiso   1.00
C1209  C     0.93209   0.83333   0.84543   0.00000  Uiso   1.00
C1210  C     0.67930   0.83330   0.81458   0.00000  Uiso   1.00
C1211  C     0.98736   0.83336   0.85209   0.00000  Uiso   1.00
C1212  C     0.81126   0.68751   0.79214   0.00000  Uiso   1.00
C1213  C     0.85541   0.97915   0.87453   0.00000  Uiso   1.00
C1214  C     0.81159   0.97797   0.79343   0.00000  Uiso   1.00
Cu1215 Cu    0.83333   0.83334   0.88022   0.00000  Uiso   1.00
Cu1216 Cu    0.83333   0.83333   0.78645   0.00000  Uiso   1.00
H1217  H     0.99266   0.83322   0.77859   0.00000  Uiso   1.00
H1218  H     0.79576   0.72334   0.68567   0.00000  Uiso   1.00
H1219  H     0.80314   0.66972   0.69921   0.00000  Uiso   1.00
H1220  H     0.87090   0.94333   0.98100   0.00000  Uiso   1.00
H1221  H     0.81335   0.96012   0.94489   0.00000  Uiso   1.00
H1222  H     0.86357   0.99695   0.96747   0.00000  Uiso   1.00
H1223  H     0.67401   0.83345   0.88807   0.00000  Uiso   1.00
H1224  H     0.79316   0.96082   0.76314   0.00000  Uiso   1.00
H1225  H     0.87351   0.70585   0.90352   0.00000  Uiso   1.00
H1226  H     0.77537   0.87926   0.70304   0.00000  Uiso   1.00
H1227  H     0.89130   0.78741   0.96363   0.00000  Uiso   1.00
H1228  H     0.77536   0.87925   0.94941   0.00000  Uiso   1.00
H1229  H     0.89130   0.78742   0.71725   0.00000  Uiso   1.00
H1230  H     0.85333   0.70658   0.72179   0.00000  Uiso   1.00
N1231  N     0.83335   0.83334   0.95069   0.00000  Uiso   1.00
N1232  N     0.83332   0.83332   0.71597   0.00000  Uiso   1.00
O1233  O     0.83333   0.77322   0.87291   0.00000  Uiso   1.00
O1234  O     0.88107   0.95849   0.91321   0.00000  Uiso   1.00
O1235  O     0.83334   0.89345   0.79375   0.00000  Uiso   1.00
O1236  O     0.83333   0.77321   0.79372   0.00000  Uiso   1.00
O1237  O     0.83334   0.89346   0.87294   0.00000  Uiso   1.00
O1238  O     0.75828   0.83334   0.86379   0.00000  Uiso   1.00
O1239  O     0.90839   0.83333   0.80288   0.00000  Uiso   1.00
O1240  O     0.75828   0.83333   0.78460   0.00000  Uiso   1.00
O1241  O     0.90839   0.83334   0.88207   0.00000  Uiso   1.00
O1242  O     0.78559   0.70818   0.75346   0.00000  Uiso   1.00
loop_
_geom_bond_atom_site_label_1
_geom_bond_atom_site_label_2
_geom_bond_distance
_geom_bond_site_symmetry_2
_ccdc_geom_bond_type
C1     O37     1.292   .     A
C1     C4      1.449   .     S
C1     O40     1.289   .     A
C2     C4      1.399   .     A
C2     H29     1.083   .     S
C2     C293    1.393   1_545 S
C3     C17     1.407   .     A
C3     C11     1.449   .     S
C3     C18     1.399   .     A
C4     C16     1.407   .     A
C5     N36     1.367   .     A
C5     H30     1.082   .     S
C5     C835    1.417   1_554 S
C6     H31     1.082   .     S
C6     N35     1.367   .     A
C6     C422    1.417   .     S
C7     H32     1.082   .     S
C7     N35     1.367   .     A
C7     C419    1.417   .     S
C8     N36     1.367   .     A
C8     H33     1.082   .     S
C8     C834    1.417   1_554 S
C9     O46     1.411   .     S
C9     H34     1.115   .     S
C9     H22     1.109   .     S
C9     H23     1.111   .     S
C10    O38     1.411   .     S
C10    H26     1.111   .     S
C10    H25     1.115   .     S
C10    H24     1.109   .     S
C11    O41     1.289   .     A
C11    O39     1.292   .     A
C12    O44     1.289   .     A
C12    C14     1.434   .     S
C12    O42     1.286   .     A
C13    O45     1.289   .     A
C13    C15     1.434   .     S
C13    O43     1.286   .     A
C14    C107    1.335   1_455 S
C14    H113    1.087   1_455 S
C15    C60     1.335   .     S
C15    H73     1.087   .     S
C16    O46     1.387   .     S
C16    C294    1.393   1_545 S
C17    O38     1.387   .     S
C17    C140    1.393   .     S
C18    H28     1.083   .     S
C18    C154    1.393   .     S
Cu19   O45     1.960   .     S
Cu19   Cu20    2.679   .     S
Cu19   O42     1.958   .     S
Cu19   N35     2.013   .     S
Cu19   O37     1.962   .     S
Cu19   O41     1.964   .     S
Cu20   O44     1.960   .     S
Cu20   O40     1.964   .     S
Cu20   N36     2.013   .     S
Cu20   O43     1.958   .     S
Cu20   O39     1.962   .     S
H21    C60     1.087   .     S
H27    C107    1.087   1_455 S
C47    O83     1.292   .     A
C47    C50     1.449   .     S
C47    O86     1.289   .     A
C48    C50     1.399   .     A
C48    H75     1.083   .     S
C48    C339    1.393   1_545 S
C49    C63     1.407   .     A
C49    C57     1.449   .     S
C49    C64     1.399   .     A
C50    C62     1.407   .     A
C51    N82     1.367   .     A
C51    H76     1.082   .     S
C51    C881    1.417   1_554 S
C52    H77     1.082   .     S
C52    N81     1.367   .     A
C52    C468    1.417   .     S
C53    H78     1.082   .     S
C53    N81     1.367   .     A
C53    C465    1.417   .     S
C54    N82     1.367   .     A
C54    H79     1.082   .     S
C54    C880    1.417   1_554 S
C55    O92     1.411   .     S
C55    H80     1.115   .     S
C55    H68     1.109   .     S
C55    H69     1.111   .     S
C56    O84     1.411   .     S
C56    H72     1.111   .     S
C56    H71     1.115   .     S
C56    H70     1.109   .     S
C57    O87     1.289   .     A
C57    O85     1.292   .     A
C58    O90     1.289   .     A
C58    C60     1.434   .     S
C58    O88     1.286   .     A
C59    O91     1.289   .     A
C59    C61     1.434   .     S
C59    O89     1.286   .     A
C61    C106    1.335   .     S
C61    H119    1.087   .     S
C62    O92     1.387   .     S
C62    C340    1.393   1_545 S
C63    O84     1.387   .     S
C63    C186    1.393   .     S
C64    H74     1.083   .     S
C64    C200    1.393   .     S
Cu65   O91     1.960   .     S
Cu65   Cu66    2.679   .     S
Cu65   O88     1.958   .     S
Cu65   N81     2.013   .     S
Cu65   O83     1.962   .     S
Cu65   O87     1.964   .     S
Cu66   O90     1.960   .     S
Cu66   O86     1.964   .     S
Cu66   N82     2.013   .     S
Cu66   O89     1.958   .     S
Cu66   O85     1.962   .     S
H67    C106    1.087   .     S
C93    O129    1.292   .     A
C93    C96     1.449   .     S
C93    O132    1.289   .     A
C94    C96     1.399   .     A
C94    H121    1.083   .     S
C94    C385    1.393   1_545 S
C95    C109    1.407   .     A
C95    C103    1.449   .     S
C95    C110    1.399   .     A
C96    C108    1.407   .     A
C97    N128    1.367   .     A
C97    H122    1.082   .     S
C97    C927    1.417   1_554 S
C98    H123    1.082   .     S
C98    N127    1.367   .     A
C98    C514    1.417   .     S
C99    H124    1.082   .     S
C99    N127    1.367   .     A
C99    C511    1.417   .     S
C100   N128    1.367   .     A
C100   H125    1.082   .     S
C100   C926    1.417   1_554 S
C101   O138    1.411   .     S
C101   H126    1.115   .     S
C101   H114    1.109   .     S
C101   H115    1.111   .     S
C102   O130    1.411   .     S
C102   H118    1.111   .     S
C102   H117    1.115   .     S
C102   H116    1.109   .     S
C103   O133    1.289   .     A
C103   O131    1.292   .     A
C104   O136    1.289   .     A
C104   C106    1.434   .     S
C104   O134    1.286   .     A
C105   O137    1.289   .     A
C105   C107    1.434   .     S
C105   O135    1.286   .     A
C107   C14     1.335   1_655 S
C107   H27     1.087   1_655 S
C108   O138    1.387   .     S
C108   C386    1.393   1_545 S
C109   O130    1.387   .     S
C109   C232    1.393   .     S
C110   H120    1.083   .     S
C110   C246    1.393   .     S
Cu111  O137    1.960   .     S
Cu111  Cu112   2.679   .     S
Cu111  O134    1.958   .     S
Cu111  N127    2.013   .     S
Cu111  O129    1.962   .     S
Cu111  O133    1.964   .     S
Cu112  O136    1.960   .     S
Cu112  O132    1.964   .     S
Cu112  N128    2.013   .     S
Cu112  O135    1.958   .     S
Cu112  O131    1.962   .     S
H113   C14     1.087   1_655 S
C139   O175    1.292   .     A
C139   C142    1.449   .     S
C139   O178    1.289   .     A
C140   C142    1.399   .     A
C140   H167    1.083   .     S
C141   C155    1.407   .     A
C141   C149    1.449   .     S
C141   C156    1.399   .     A
C142   C154    1.407   .     A
C143   N174    1.367   .     A
C143   H168    1.082   .     S
C143   C973    1.417   1_554 S
C144   H169    1.082   .     S
C144   N173    1.367   .     A
C144   C560    1.417   .     S
C145   H170    1.082   .     S
C145   N173    1.367   .     A
C145   C557    1.417   .     S
C146   N174    1.367   .     A
C146   H171    1.082   .     S
C146   C972    1.417   1_554 S
C147   O184    1.411   .     S
C147   H172    1.115   .     S
C147   H160    1.109   .     S
C147   H161    1.111   .     S
C148   O176    1.411   .     S
C148   H164    1.111   .     S
C148   H163    1.115   .     S
C148   H162    1.109   .     S
C149   O179    1.289   .     A
C149   O177    1.292   .     A
C150   O182    1.289   .     A
C150   C152    1.434   .     S
C150   O180    1.286   .     A
C151   O183    1.289   .     A
C151   C153    1.434   .     S
C151   O181    1.286   .     A
C152   C245    1.335   1_455 S
C152   H251    1.087   1_455 S
C153   C198    1.335   .     S
C153   H211    1.087   .     S
C154   O184    1.387   .     S
C155   O176    1.387   .     S
C155   C278    1.393   .     S
C156   H166    1.083   .     S
C156   C292    1.393   .     S
Cu157  O183    1.960   .     S
Cu157  Cu158   2.679   .     S
Cu157  O180    1.958   .     S
Cu157  N173    2.013   .     S
Cu157  O175    1.962   .     S
Cu157  O179    1.964   .     S
Cu158  O182    1.960   .     S
Cu158  O178    1.964   .     S
Cu158  N174    2.013   .     S
Cu158  O181    1.958   .     S
Cu158  O177    1.962   .     S
H159   C198    1.087   .     S
H165   C245    1.087   1_455 S
C185   O221    1.292   .     A
C185   C188    1.449   .     S
C185   O224    1.289   .     A
C186   C188    1.399   .     A
C186   H213    1.083   .     S
C187   C201    1.407   .     A
C187   C195    1.449   .     S
C187   C202    1.399   .     A
C188   C200    1.407   .     A
C189   N220    1.367   .     A
C189   H214    1.082   .     S
C189   C1019   1.417   1_554 S
C190   H215    1.082   .     S
C190   N219    1.367   .     A
C190   C606    1.417   .     S
C191   H216    1.082   .     S
C191   N219    1.367   .     A
C191   C603    1.417   .     S
C192   N220    1.367   .     A
C192   H217    1.082   .     S
C192   C1018   1.417   1_554 S
C193   O230    1.411   .     S
C193   H218    1.115   .     S
C193   H206    1.109   .     S
C193   H207    1.111   .     S
C194   O222    1.411   .     S
C194   H210    1.111   .     S
C194   H209    1.115   .     S
C194   H208    1.109   .     S
C195   O225    1.289   .     A
C195   O223    1.292   .     A
C196   O228    1.289   .     A
C196   C198    1.434   .     S
C196   O226    1.286   .     A
C197   O229    1.289   .     A
C197   C199    1.434   .     S
C197   O227    1.286   .     A
C199   C244    1.335   .     S
C199   H257    1.087   .     S
C200   O230    1.387   .     S
C201   O222    1.387   .     S
C201   C324    1.393   .     S
C202   H212    1.083   .     S
C202   C338    1.393   .     S
Cu203  O229    1.960   .     S
Cu203  Cu204   2.679   .     S
Cu203  O226    1.958   .     S
Cu203  N219    2.013   .     S
Cu203  O221    1.962   .     S
Cu203  O225    1.964   .     S
Cu204  O228    1.960   .     S
Cu204  O224    1.964   .     S
Cu204  N220    2.013   .     S
Cu204  O227    1.958   .     S
Cu204  O223    1.962   .     S
H205   C244    1.087   .     S
C231   O267    1.292   .     A
C231   C234    1.449   .     S
C231   O270    1.289   .     A
C232   C234    1.399   .     A
C232   H259    1.083   .     S
C233   C247    1.407   .     A
C233   C241    1.449   .     S
C233   C248    1.399   .     A
C234   C246    1.407   .     A
C235   N266    1.367   .     A
C235   H260    1.082   .     S
C235   C1065   1.417   1_554 S
C236   H261    1.082   .     S
C236   N265    1.367   .     A
C236   C652    1.417   .     S
C237   H262    1.082   .     S
C237   N265    1.367   .     A
C237   C649    1.417   .     S
C238   N266    1.367   .     A
C238   H263    1.082   .     S
C238   C1064   1.417   1_554 S
C239   O276    1.411   .     S
C239   H264    1.115   .     S
C239   H252    1.109   .     S
C239   H253    1.111   .     S
C240   O268    1.411   .     S
C240   H256    1.111   .     S
C240   H255    1.115   .     S
C240   H254    1.109   .     S
C241   O271    1.289   .     A
C241   O269    1.292   .     A
C242   O274    1.289   .     A
C242   C244    1.434   .     S
C242   O272    1.286   .     A
C243   O275    1.289   .     A
C243   C245    1.434   .     S
C243   O273    1.286   .     A
C245   C152    1.335   1_655 S
C245   H165    1.087   1_655 S
C246   O276    1.387   .     S
C247   O268    1.387   .     S
C247   C370    1.393   .     S
C248   H258    1.083   .     S
C248   C384    1.393   .     S
Cu249  O275    1.960   .     S
Cu249  Cu250   2.679   .     S
Cu249  O272    1.958   .     S
Cu249  N265    2.013   .     S
Cu249  O267    1.962   .     S
Cu249  O271    1.964   .     S
Cu250  O274    1.960   .     S
Cu250  O270    1.964   .     S
Cu250  N266    2.013   .     S
Cu250  O273    1.958   .     S
Cu250  O269    1.962   .     S
H251   C152    1.087   1_655 S
C277   O313    1.292   .     A
C277   C280    1.449   .     S
C277   O316    1.289   .     A
C278   C280    1.399   .     A
C278   H305    1.083   .     S
C279   C293    1.407   .     A
C279   C287    1.449   .     S
C279   C294    1.399   .     A
C280   C292    1.407   .     A
C281   N312    1.367   .     A
C281   H306    1.082   .     S
C281   C1111   1.417   1_554 S
C282   H307    1.082   .     S
C282   N311    1.367   .     A
C282   C698    1.417   .     S
C283   H308    1.082   .     S
C283   N311    1.367   .     A
C283   C695    1.417   .     S
C284   N312    1.367   .     A
C284   H309    1.082   .     S
C284   C1110   1.417   1_554 S
C285   O322    1.411   .     S
C285   H310    1.115   .     S
C285   H298    1.109   .     S
C285   H299    1.111   .     S
C286   O314    1.411   .     S
C286   H302    1.111   .     S
C286   H301    1.115   .     S
C286   H300    1.109   .     S
C287   O317    1.289   .     A
C287   O315    1.292   .     A
C288   O320    1.289   .     A
C288   C290    1.434   .     S
C288   O318    1.286   .     A
C289   O321    1.289   .     A
C289   C291    1.434   .     S
C289   O319    1.286   .     A
C290   C383    1.335   1_455 S
C290   H389    1.087   1_455 S
C291   C336    1.335   .     S
C291   H349    1.087   .     S
C292   O322    1.387   .     S
C293   O314    1.387   .     S
C293   C2      1.393   1_565 S
C294   H304    1.083   .     S
C294   C16     1.393   1_565 S
Cu295  O321    1.960   .     S
Cu295  Cu296   2.679   .     S
Cu295  O318    1.958   .     S
Cu295  N311    2.013   .     S
Cu295  O313    1.962   .     S
Cu295  O317    1.964   .     S
Cu296  O320    1.960   .     S
Cu296  O316    1.964   .     S
Cu296  N312    2.013   .     S
Cu296  O319    1.958   .     S
Cu296  O315    1.962   .     S
H297   C336    1.087   .     S
H303   C383    1.087   1_455 S
C323   O359    1.292   .     A
C323   C326    1.449   .     S
C323   O362    1.289   .     A
C324   C326    1.399   .     A
C324   H351    1.083   .     S
C325   C339    1.407   .     A
C325   C333    1.449   .     S
C325   C340    1.399   .     A
C326   C338    1.407   .     A
C327   N358    1.367   .     A
C327   H352    1.082   .     S
C327   C1157   1.417   1_554 S
C328   H353    1.082   .     S
C328   N357    1.367   .     A
C328   C744    1.417   .     S
C329   H354    1.082   .     S
C329   N357    1.367   .     A
C329   C741    1.417   .     S
C330   N358    1.367   .     A
C330   H355    1.082   .     S
C330   C1156   1.417   1_554 S
C331   O368    1.411   .     S
C331   H356    1.115   .     S
C331   H344    1.109   .     S
C331   H345    1.111   .     S
C332   O360    1.411   .     S
C332   H348    1.111   .     S
C332   H347    1.115   .     S
C332   H346    1.109   .     S
C333   O363    1.289   .     A
C333   O361    1.292   .     A
C334   O366    1.289   .     A
C334   C336    1.434   .     S
C334   O364    1.286   .     A
C335   O367    1.289   .     A
C335   C337    1.434   .     S
C335   O365    1.286   .     A
C337   C382    1.335   .     S
C337   H395    1.087   .     S
C338   O368    1.387   .     S
C339   O360    1.387   .     S
C339   C48     1.393   1_565 S
C340   H350    1.083   .     S
C340   C62     1.393   1_565 S
Cu341  O367    1.960   .     S
Cu341  Cu342   2.679   .     S
Cu341  O364    1.958   .     S
Cu341  N357    2.013   .     S
Cu341  O359    1.962   .     S
Cu341  O363    1.964   .     S
Cu342  O366    1.960   .     S
Cu342  O362    1.964   .     S
Cu342  N358    2.013   .     S
Cu342  O365    1.958   .     S
Cu342  O361    1.962   .     S
H343   C382    1.087   .     S
C369   O405    1.292   .     A
C369   C372    1.449   .     S
C369   O408    1.289   .     A
C370   C372    1.399   .     A
C370   H397    1.083   .     S
C371   C385    1.407   .     A
C371   C379    1.449   .     S
C371   C386    1.399   .     A
C372   C384    1.407   .     A
C373   N404    1.367   .     A
C373   H398    1.082   .     S
C373   C1203   1.417   1_554 S
C374   H399    1.082   .     S
C374   N403    1.367   .     A
C374   C790    1.417   .     S
C375   H400    1.082   .     S
C375   N403    1.367   .     A
C375   C787    1.417   .     S
C376   N404    1.367   .     A
C376   H401    1.082   .     S
C376   C1202   1.417   1_554 S
C377   O414    1.411   .     S
C377   H402    1.115   .     S
C377   H390    1.109   .     S
C377   H391    1.111   .     S
C378   O406    1.411   .     S
C378   H394    1.111   .     S
C378   H393    1.115   .     S
C378   H392    1.109   .     S
C379   O409    1.289   .     A
C379   O407    1.292   .     A
C380   O412    1.289   .     A
C380   C382    1.434   .     S
C380   O410    1.286   .     A
C381   O413    1.289   .     A
C381   C383    1.434   .     S
C381   O411    1.286   .     A
C383   C290    1.335   1_655 S
C383   H303    1.087   1_655 S
C384   O414    1.387   .     S
C385   O406    1.387   .     S
C385   C94     1.393   1_565 S
C386   H396    1.083   .     S
C386   C108    1.393   1_565 S
Cu387  O413    1.960   .     S
Cu387  Cu388   2.679   .     S
Cu387  O410    1.958   .     S
Cu387  N403    2.013   .     S
Cu387  O405    1.962   .     S
Cu387  O409    1.964   .     S
Cu388  O412    1.960   .     S
Cu388  O408    1.964   .     S
Cu388  N404    2.013   .     S
Cu388  O411    1.958   .     S
Cu388  O407    1.962   .     S
H389   C290    1.087   1_655 S
C415   O451    1.292   .     A
C415   C418    1.449   .     S
C415   O454    1.289   .     A
C416   C418    1.399   .     A
C416   H443    1.083   .     S
C416   C707    1.393   1_545 S
C417   C431    1.407   .     A
C417   C425    1.449   .     S
C417   C432    1.399   .     A
C418   C430    1.407   .     A
C419   N450    1.367   .     A
C419   H444    1.082   .     S
C420   H445    1.082   .     S
C420   N449    1.367   .     A
C420   C836    1.417   .     S
C421   H446    1.082   .     S
C421   N449    1.367   .     A
C421   C833    1.417   .     S
C422   N450    1.367   .     A
C422   H447    1.082   .     S
C423   O460    1.411   .     S
C423   H448    1.115   .     S
C423   H436    1.109   .     S
C423   H437    1.111   .     S
C424   O452    1.411   .     S
C424   H440    1.111   .     S
C424   H439    1.115   .     S
C424   H438    1.109   .     S
C425   O455    1.289   .     A
C425   O453    1.292   .     A
C426   O458    1.289   .     A
C426   C428    1.434   .     S
C426   O456    1.286   .     A
C427   O459    1.289   .     A
C427   C429    1.434   .     S
C427   O457    1.286   .     A
C428   C521    1.335   1_455 S
C428   H527    1.087   1_455 S
C429   C474    1.335   .     S
C429   H487    1.087   .     S
C430   O460    1.387   .     S
C430   C708    1.393   1_545 S
C431   O452    1.387   .     S
C431   C554    1.393   .     S
C432   H442    1.083   .     S
C432   C568    1.393   .     S
Cu433  O459    1.960   .     S
Cu433  Cu434   2.679   .     S
Cu433  O456    1.958   .     S
Cu433  N449    2.013   .     S
Cu433  O451    1.962   .     S
Cu433  O455    1.964   .     S
Cu434  O458    1.960   .     S
Cu434  O454    1.964   .     S
Cu434  N450    2.013   .     S
Cu434  O457    1.958   .     S
Cu434  O453    1.962   .     S
H435   C474    1.087   .     S
H441   C521    1.087   1_455 S
C461   O497    1.292   .     A
C461   C464    1.449   .     S
C461   O500    1.289   .     A
C462   C464    1.399   .     A
C462   H489    1.083   .     S
C462   C753    1.393   1_545 S
C463   C477    1.407   .     A
C463   C471    1.449   .     S
C463   C478    1.399   .     A
C464   C476    1.407   .     A
C465   N496    1.367   .     A
C465   H490    1.082   .     S
C466   H491    1.082   .     S
C466   N495    1.367   .     A
C466   C882    1.417   .     S
C467   H492    1.082   .     S
C467   N495    1.367   .     A
C467   C879    1.417   .     S
C468   N496    1.367   .     A
C468   H493    1.082   .     S
C469   O506    1.411   .     S
C469   H494    1.115   .     S
C469   H482    1.109   .     S
C469   H483    1.111   .     S
C470   O498    1.411   .     S
C470   H486    1.111   .     S
C470   H485    1.115   .     S
C470   H484    1.109   .     S
C471   O501    1.289   .     A
C471   O499    1.292   .     A
C472   O504    1.289   .     A
C472   C474    1.434   .     S
C472   O502    1.286   .     A
C473   O505    1.289   .     A
C473   C475    1.434   .     S
C473   O503    1.286   .     A
C475   C520    1.335   .     S
C475   H533    1.087   .     S
C476   O506    1.387   .     S
C476   C754    1.393   1_545 S
C477   O498    1.387   .     S
C477   C600    1.393   .     S
C478   H488    1.083   .     S
C478   C614    1.393   .     S
Cu479  O505    1.960   .     S
Cu479  Cu480   2.679   .     S
Cu479  O502    1.958   .     S
Cu479  N495    2.013   .     S
Cu479  O497    1.962   .     S
Cu479  O501    1.964   .     S
Cu480  O504    1.960   .     S
Cu480  O500    1.964   .     S
Cu480  N496    2.013   .     S
Cu480  O503    1.958   .     S
Cu480  O499    1.962   .     S
H481   C520    1.087   .     S
C507   O543    1.292   .     A
C507   C510    1.449   .     S
C507   O546    1.289   .     A
C508   C510    1.399   .     A
C508   H535    1.083   .     S
C508   C799    1.393   1_545 S
C509   C523    1.407   .     A
C509   C517    1.449   .     S
C509   C524    1.399   .     A
C510   C522    1.407   .     A
C511   N542    1.367   .     A
C511   H536    1.082   .     S
C512   H537    1.082   .     S
C512   N541    1.367   .     A
C512   C928    1.417   .     S
C513   H538    1.082   .     S
C513   N541    1.367   .     A
C513   C925    1.417   .     S
C514   N542    1.367   .     A
C514   H539    1.082   .     S
C515   O552    1.411   .     S
C515   H540    1.115   .     S
C515   H528    1.109   .     S
C515   H529    1.111   .     S
C516   O544    1.411   .     S
C516   H532    1.111   .     S
C516   H531    1.115   .     S
C516   H530    1.109   .     S
C517   O547    1.289   .     A
C517   O545    1.292   .     A
C518   O550    1.289   .     A
C518   C520    1.434   .     S
C518   O548    1.286   .     A
C519   O551    1.289   .     A
C519   C521    1.434   .     S
C519   O549    1.286   .     A
C521   C428    1.335   1_655 S
C521   H441    1.087   1_655 S
C522   O552    1.387   .     S
C522   C800    1.393   1_545 S
C523   O544    1.387   .     S
C523   C646    1.393   .     S
C524   H534    1.083   .     S
C524   C660    1.393   .     S
Cu525  O551    1.960   .     S
Cu525  Cu526   2.679   .     S
Cu525  O548    1.958   .     S
Cu525  N541    2.013   .     S
Cu525  O543    1.962   .     S
Cu525  O547    1.964   .     S
Cu526  O550    1.960   .     S
Cu526  O546    1.964   .     S
Cu526  N542    2.013   .     S
Cu526  O549    1.958   .     S
Cu526  O545    1.962   .     S
H527   C428    1.087   1_655 S
C553   O589    1.292   .     A
C553   C556    1.449   .     S
C553   O592    1.289   .     A
C554   C556    1.399   .     A
C554   H581    1.083   .     S
C555   C569    1.407   .     A
C555   C563    1.449   .     S
C555   C570    1.399   .     A
C556   C568    1.407   .     A
C557   N588    1.367   .     A
C557   H582    1.082   .     S
C558   H583    1.082   .     S
C558   N587    1.367   .     A
C558   C974    1.417   .     S
C559   H584    1.082   .     S
C559   N587    1.367   .     A
C559   C971    1.417   .     S
C560   N588    1.367   .     A
C560   H585    1.082   .     S
C561   O598    1.411   .     S
C561   H586    1.115   .     S
C561   H574    1.109   .     S
C561   H575    1.111   .     S
C562   O590    1.411   .     S
C562   H578    1.111   .     S
C562   H577    1.115   .     S
C562   H576    1.109   .     S
C563   O593    1.289   .     A
C563   O591    1.292   .     A
C564   O596    1.289   .     A
C564   C566    1.434   .     S
C564   O594    1.286   .     A
C565   O597    1.289   .     A
C565   C567    1.434   .     S
C565   O595    1.286   .     A
C566   C659    1.335   1_455 S
C566   H665    1.087   1_455 S
C567   C612    1.335   .     S
C567   H625    1.087   .     S
C568   O598    1.387   .     S
C569   O590    1.387   .     S
C569   C692    1.393   .     S
C570   H580    1.083   .     S
C570   C706    1.393   .     S
Cu571  O597    1.960   .     S
Cu571  Cu572   2.679   .     S
Cu571  O594    1.958   .     S
Cu571  N587    2.013   .     S
Cu571  O589    1.962   .     S
Cu571  O593    1.964   .     S
Cu572  O596    1.960   .     S
Cu572  O592    1.964   .     S
Cu572  N588    2.013   .     S
Cu572  O595    1.958   .     S
Cu572  O591    1.962   .     S
H573   C612    1.087   .     S
H579   C659    1.087   1_455 S
C599   O635    1.292   .     A
C599   C602    1.449   .     S
C599   O638    1.289   .     A
C600   C602    1.399   .     A
C600   H627    1.083   .     S
C601   C615    1.407   .     A
C601   C609    1.449   .     S
C601   C616    1.399   .     A
C602   C614    1.407   .     A
C603   N634    1.367   .     A
C603   H628    1.082   .     S
C604   H629    1.082   .     S
C604   N633    1.367   .     A
C604   C1020   1.417   .     S
C605   H630    1.082   .     S
C605   N633    1.367   .     A
C605   C1017   1.417   .     S
C606   N634    1.367   .     A
C606   H631    1.082   .     S
C607   O644    1.411   .     S
C607   H632    1.115   .     S
C607   H620    1.109   .     S
C607   H621    1.111   .     S
C608   O636    1.411   .     S
C608   H624    1.111   .     S
C608   H623    1.115   .     S
C608   H622    1.109   .     S
C609   O639    1.289   .     A
C609   O637    1.292   .     A
C610   O642    1.289   .     A
C610   C612    1.434   .     S
C610   O640    1.286   .     A
C611   O643    1.289   .     A
C611   C613    1.434   .     S
C611   O641    1.286   .     A
C613   C658    1.335   .     S
C613   H671    1.087   .     S
C614   O644    1.387   .     S
C615   O636    1.387   .     S
C615   C738    1.393   .     S
C616   H626    1.083   .     S
C616   C752    1.393   .     S
Cu617  O643    1.960   .     S
Cu617  Cu618   2.679   .     S
Cu617  O640    1.958   .     S
Cu617  N633    2.013   .     S
Cu617  O635    1.962   .     S
Cu617  O639    1.964   .     S
Cu618  O642    1.960   .     S
Cu618  O638    1.964   .     S
Cu618  N634    2.013   .     S
Cu618  O641    1.958   .     S
Cu618  O637    1.962   .     S
H619   C658    1.087   .     S
C645   O681    1.292   .     A
C645   C648    1.449   .     S
C645   O684    1.289   .     A
C646   C648    1.399   .     A
C646   H673    1.083   .     S
C647   C661    1.407   .     A
C647   C655    1.449   .     S
C647   C662    1.399   .     A
C648   C660    1.407   .     A
C649   N680    1.367   .     A
C649   H674    1.082   .     S
C650   H675    1.082   .     S
C650   N679    1.367   .     A
C650   C1066   1.417   .     S
C651   H676    1.082   .     S
C651   N679    1.367   .     A
C651   C1063   1.417   .     S
C652   N680    1.367   .     A
C652   H677    1.082   .     S
C653   O690    1.411   .     S
C653   H678    1.115   .     S
C653   H666    1.109   .     S
C653   H667    1.111   .     S
C654   O682    1.411   .     S
C654   H670    1.111   .     S
C654   H669    1.115   .     S
C654   H668    1.109   .     S
C655   O685    1.289   .     A
C655   O683    1.292   .     A
C656   O688    1.289   .     A
C656   C658    1.434   .     S
C656   O686    1.286   .     A
C657   O689    1.289   .     A
C657   C659    1.434   .     S
C657   O687    1.286   .     A
C659   C566    1.335   1_655 S
C659   H579    1.087   1_655 S
C660   O690    1.387   .     S
C661   O682    1.387   .     S
C661   C784    1.393   .     S
C662   H672    1.083   .     S
C662   C798    1.393   .     S
Cu663  O689    1.960   .     S
Cu663  Cu664   2.679   .     S
Cu663  O686    1.958   .     S
Cu663  N679    2.013   .     S
Cu663  O681    1.962   .     S
Cu663  O685    1.964   .     S
Cu664  O688    1.960   .     S
Cu664  O684    1.964   .     S
Cu664  N680    2.013   .     S
Cu664  O687    1.958   .     S
Cu664  O683    1.962   .     S
H665   C566    1.087   1_655 S
C691   O727    1.292   .     A
C691   C694    1.449   .     S
C691   O730    1.289   .     A
C692   C694    1.399   .     A
C692   H719    1.083   .     S
C693   C707    1.407   .     A
C693   C701    1.449   .     S
C693   C708    1.399   .     A
C694   C706    1.407   .     A
C695   N726    1.367   .     A
C695   H720    1.082   .     S
C696   H721    1.082   .     S
C696   N725    1.367   .     A
C696   C1112   1.417   .     S
C697   H722    1.082   .     S
C697   N725    1.367   .     A
C697   C1109   1.417   .     S
C698   N726    1.367   .     A
C698   H723    1.082   .     S
C699   O736    1.411   .     S
C699   H724    1.115   .     S
C699   H712    1.109   .     S
C699   H713    1.111   .     S
C700   O728    1.411   .     S
C700   H716    1.111   .     S
C700   H715    1.115   .     S
C700   H714    1.109   .     S
C701   O731    1.289   .     A
C701   O729    1.292   .     A
C702   O734    1.289   .     A
C702   C704    1.434   .     S
C702   O732    1.286   .     A
C703   O735    1.289   .     A
C703   C705    1.434   .     S
C703   O733    1.286   .     A
C704   C797    1.335   1_455 S
C704   H803    1.087   1_455 S
C705   C750    1.335   .     S
C705   H763    1.087   .     S
C706   O736    1.387   .     S
C707   O728    1.387   .     S
C707   C416    1.393   1_565 S
C708   H718    1.083   .     S
C708   C430    1.393   1_565 S
Cu709  O735    1.960   .     S
Cu709  Cu710   2.679   .     S
Cu709  O732    1.958   .     S
Cu709  N725    2.013   .     S
Cu709  O727    1.962   .     S
Cu709  O731    1.964   .     S
Cu710  O734    1.960   .     S
Cu710  O730    1.964   .     S
Cu710  N726    2.013   .     S
Cu710  O733    1.958   .     S
Cu710  O729    1.962   .     S
H711   C750    1.087   .     S
H717   C797    1.087   1_455 S
C737   O773    1.292   .     A
C737   C740    1.449   .     S
C737   O776    1.289   .     A
C738   C740    1.399   .     A
C738   H765    1.083   .     S
C739   C753    1.407   .     A
C739   C747    1.449   .     S
C739   C754    1.399   .     A
C740   C752    1.407   .     A
C741   N772    1.367   .     A
C741   H766    1.082   .     S
C742   H767    1.082   .     S
C742   N771    1.367   .     A
C742   C1158   1.417   .     S
C743   H768    1.082   .     S
C743   N771    1.367   .     A
C743   C1155   1.417   .     S
C744   N772    1.367   .     A
C744   H769    1.082   .     S
C745   O782    1.411   .     S
C745   H770    1.115   .     S
C745   H758    1.109   .     S
C745   H759    1.111   .     S
C746   O774    1.411   .     S
C746   H762    1.111   .     S
C746   H761    1.115   .     S
C746   H760    1.109   .     S
C747   O777    1.289   .     A
C747   O775    1.292   .     A
C748   O780    1.289   .     A
C748   C750    1.434   .     S
C748   O778    1.286   .     A
C749   O781    1.289   .     A
C749   C751    1.434   .     S
C749   O779    1.286   .     A
C751   C796    1.335   .     S
C751   H809    1.087   .     S
C752   O782    1.387   .     S
C753   O774    1.387   .     S
C753   C462    1.393   1_565 S
C754   H764    1.083   .     S
C754   C476    1.393   1_565 S
Cu755  O781    1.960   .     S
Cu755  Cu756   2.679   .     S
Cu755  O778    1.958   .     S
Cu755  N771    2.013   .     S
Cu755  O773    1.962   .     S
Cu755  O777    1.964   .     S
Cu756  O780    1.960   .     S
Cu756  O776    1.964   .     S
Cu756  N772    2.013   .     S
Cu756  O779    1.958   .     S
Cu756  O775    1.962   .     S
H757   C796    1.087   .     S
C783   O819    1.292   .     A
C783   C786    1.449   .     S
C783   O822    1.289   .     A
C784   C786    1.399   .     A
C784   H811    1.083   .     S
C785   C799    1.407   .     A
C785   C793    1.449   .     S
C785   C800    1.399   .     A
C786   C798    1.407   .     A
C787   N818    1.367   .     A
C787   H812    1.082   .     S
C788   H813    1.082   .     S
C788   N817    1.367   .     A
C788   C1204   1.417   .     S
C789   H814    1.082   .     S
C789   N817    1.367   .     A
C789   C1201   1.417   .     S
C790   N818    1.367   .     A
C790   H815    1.082   .     S
C791   O828    1.411   .     S
C791   H816    1.115   .     S
C791   H804    1.109   .     S
C791   H805    1.111   .     S
C792   O820    1.411   .     S
C792   H808    1.111   .     S
C792   H807    1.115   .     S
C792   H806    1.109   .     S
C793   O823    1.289   .     A
C793   O821    1.292   .     A
C794   O826    1.289   .     A
C794   C796    1.434   .     S
C794   O824    1.286   .     A
C795   O827    1.289   .     A
C795   C797    1.434   .     S
C795   O825    1.286   .     A
C797   C704    1.335   1_655 S
C797   H717    1.087   1_655 S
C798   O828    1.387   .     S
C799   O820    1.387   .     S
C799   C508    1.393   1_565 S
C800   H810    1.083   .     S
C800   C522    1.393   1_565 S
Cu801  O827    1.960   .     S
Cu801  Cu802   2.679   .     S
Cu801  O824    1.958   .     S
Cu801  N817    2.013   .     S
Cu801  O819    1.962   .     S
Cu801  O823    1.964   .     S
Cu802  O826    1.960   .     S
Cu802  O822    1.964   .     S
Cu802  N818    2.013   .     S
Cu802  O825    1.958   .     S
Cu802  O821    1.962   .     S
H803   C704    1.087   1_655 S
C829   O865    1.292   .     A
C829   C832    1.449   .     S
C829   O868    1.289   .     A
C830   C832    1.399   .     A
C830   H857    1.083   .     S
C830   C1121   1.393   1_545 S
C831   C845    1.407   .     A
C831   C839    1.449   .     S
C831   C846    1.399   .     A
C832   C844    1.407   .     A
C833   N864    1.367   .     A
C833   H858    1.082   .     S
C834   H859    1.082   .     S
C834   N863    1.367   .     A
C834   C8      1.417   1_556 S
C835   H860    1.082   .     S
C835   N863    1.367   .     A
C835   C5      1.417   1_556 S
C836   N864    1.367   .     A
C836   H861    1.082   .     S
C837   O874    1.411   .     S
C837   H862    1.115   .     S
C837   H850    1.109   .     S
C837   H851    1.111   .     S
C838   O866    1.411   .     S
C838   H854    1.111   .     S
C838   H853    1.115   .     S
C838   H852    1.109   .     S
C839   O869    1.289   .     A
C839   O867    1.292   .     A
C840   O872    1.289   .     A
C840   C842    1.434   .     S
C840   O870    1.286   .     A
C841   O873    1.289   .     A
C841   C843    1.434   .     S
C841   O871    1.286   .     A
C842   C935    1.335   1_455 S
C842   H941    1.087   1_455 S
C843   C888    1.335   .     S
C843   H901    1.087   .     S
C844   O874    1.387   .     S
C844   C1122   1.393   1_545 S
C845   O866    1.387   .     S
C845   C968    1.393   .     S
C846   H856    1.083   .     S
C846   C982    1.393   .     S
Cu847  O873    1.960   .     S
Cu847  Cu848   2.679   .     S
Cu847  O870    1.958   .     S
Cu847  N863    2.013   .     S
Cu847  O865    1.962   .     S
Cu847  O869    1.964   .     S
Cu848  O872    1.960   .     S
Cu848  O868    1.964   .     S
Cu848  N864    2.013   .     S
Cu848  O871    1.958   .     S
Cu848  O867    1.962   .     S
H849   C888    1.087   .     S
H855   C935    1.087   1_455 S
C875   O911    1.292   .     A
C875   C878    1.449   .     S
C875   O914    1.289   .     A
C876   C878    1.399   .     A
C876   H903    1.083   .     S
C876   C1167   1.393   1_545 S
C877   C891    1.407   .     A
C877   C885    1.449   .     S
C877   C892    1.399   .     A
C878   C890    1.407   .     A
C879   N910    1.367   .     A
C879   H904    1.082   .     S
C880   H905    1.082   .     S
C880   N909    1.367   .     A
C880   C54     1.417   1_556 S
C881   H906    1.082   .     S
C881   N909    1.367   .     A
C881   C51     1.417   1_556 S
C882   N910    1.367   .     A
C882   H907    1.082   .     S
C883   O920    1.411   .     S
C883   H908    1.115   .     S
C883   H896    1.109   .     S
C883   H897    1.111   .     S
C884   O912    1.411   .     S
C884   H900    1.111   .     S
C884   H899    1.115   .     S
C884   H898    1.109   .     S
C885   O915    1.289   .     A
C885   O913    1.292   .     A
C886   O918    1.289   .     A
C886   C888    1.434   .     S
C886   O916    1.286   .     A
C887   O919    1.289   .     A
C887   C889    1.434   .     S
C887   O917    1.286   .     A
C889   C934    1.335   .     S
C889   H947    1.087   .     S
C890   O920    1.387   .     S
C890   C1168   1.393   1_545 S
C891   O912    1.387   .     S
C891   C1014   1.393   .     S
C892   H902    1.083   .     S
C892   C1028   1.393   .     S
Cu893  O919    1.960   .     S
Cu893  Cu894   2.679   .     S
Cu893  O916    1.958   .     S
Cu893  N909    2.013   .     S
Cu893  O911    1.962   .     S
Cu893  O915    1.964   .     S
Cu894  O918    1.960   .     S
Cu894  O914    1.964   .     S
Cu894  N910    2.013   .     S
Cu894  O917    1.958   .     S
Cu894  O913    1.962   .     S
H895   C934    1.087   .     S
C921   O957    1.292   .     A
C921   C924    1.449   .     S
C921   O960    1.289   .     A
C922   C924    1.399   .     A
C922   H949    1.083   .     S
C922   C1213   1.393   1_545 S
C923   C937    1.407   .     A
C923   C931    1.449   .     S
C923   C938    1.399   .     A
C924   C936    1.407   .     A
C925   N956    1.367   .     A
C925   H950    1.082   .     S
C926   H951    1.082   .     S
C926   N955    1.367   .     A
C926   C100    1.417   1_556 S
C927   H952    1.082   .     S
C927   N955    1.367   .     A
C927   C97     1.417   1_556 S
C928   N956    1.367   .     A
C928   H953    1.082   .     S
C929   O966    1.411   .     S
C929   H954    1.115   .     S
C929   H942    1.109   .     S
C929   H943    1.111   .     S
C930   O958    1.411   .     S
C930   H946    1.111   .     S
C930   H945    1.115   .     S
C930   H944    1.109   .     S
C931   O961    1.289   .     A
C931   O959    1.292   .     A
C932   O964    1.289   .     A
C932   C934    1.434   .     S
C932   O962    1.286   .     A
C933   O965    1.289   .     A
C933   C935    1.434   .     S
C933   O963    1.286   .     A
C935   C842    1.335   1_655 S
C935   H855    1.087   1_655 S
C936   O966    1.387   .     S
C936   C1214   1.393   1_545 S
C937   O958    1.387   .     S
C937   C1060   1.393   .     S
C938   H948    1.083   .     S
C938   C1074   1.393   .     S
Cu939  O965    1.960   .     S
Cu939  Cu940   2.679   .     S
Cu939  O962    1.958   .     S
Cu939  N955    2.013   .     S
Cu939  O957    1.962   .     S
Cu939  O961    1.964   .     S
Cu940  O964    1.960   .     S
Cu940  O960    1.964   .     S
Cu940  N956    2.013   .     S
Cu940  O963    1.958   .     S
Cu940  O959    1.962   .     S
H941   C842    1.087   1_655 S
C967   O1003   1.292   .     A
C967   C970    1.449   .     S
C967   O1006   1.289   .     A
C968   C970    1.399   .     A
C968   H995    1.083   .     S
C969   C983    1.407   .     A
C969   C977    1.449   .     S
C969   C984    1.399   .     A
C970   C982    1.407   .     A
C971   N1002   1.367   .     A
C971   H996    1.082   .     S
C972   H997    1.082   .     S
C972   N1001   1.367   .     A
C972   C146    1.417   1_556 S
C973   H998    1.082   .     S
C973   N1001   1.367   .     A
C973   C143    1.417   1_556 S
C974   N1002   1.367   .     A
C974   H999    1.082   .     S
C975   O1012   1.411   .     S
C975   H1000   1.115   .     S
C975   H988    1.109   .     S
C975   H989    1.111   .     S
C976   O1004   1.411   .     S
C976   H992    1.111   .     S
C976   H991    1.115   .     S
C976   H990    1.109   .     S
C977   O1007   1.289   .     A
C977   O1005   1.292   .     A
C978   O1010   1.289   .     A
C978   C980    1.434   .     S
C978   O1008   1.286   .     A
C979   O1011   1.289   .     A
C979   C981    1.434   .     S
C979   O1009   1.286   .     A
C980   C1073   1.335   1_455 S
C980   H1079   1.087   1_455 S
C981   C1026   1.335   .     S
C981   H1039   1.087   .     S
C982   O1012   1.387   .     S
C983   O1004   1.387   .     S
C983   C1106   1.393   .     S
C984   H994    1.083   .     S
C984   C1120   1.393   .     S
Cu985  O1011   1.960   .     S
Cu985  Cu986   2.679   .     S
Cu985  O1008   1.958   .     S
Cu985  N1001   2.013   .     S
Cu985  O1003   1.962   .     S
Cu985  O1007   1.964   .     S
Cu986  O1010   1.960   .     S
Cu986  O1006   1.964   .     S
Cu986  N1002   2.013   .     S
Cu986  O1009   1.958   .     S
Cu986  O1005   1.962   .     S
H987   C1026   1.087   .     S
H993   C1073   1.087   1_455 S
C1013  O1049   1.292   .     A
C1013  C1016   1.449   .     S
C1013  O1052   1.289   .     A
C1014  C1016   1.399   .     A
C1014  H1041   1.083   .     S
C1015  C1029   1.407   .     A
C1015  C1023   1.449   .     S
C1015  C1030   1.399   .     A
C1016  C1028   1.407   .     A
C1017  N1048   1.367   .     A
C1017  H1042   1.082   .     S
C1018  H1043   1.082   .     S
C1018  N1047   1.367   .     A
C1018  C192    1.417   1_556 S
C1019  H1044   1.082   .     S
C1019  N1047   1.367   .     A
C1019  C189    1.417   1_556 S
C1020  N1048   1.367   .     A
C1020  H1045   1.082   .     S
C1021  O1058   1.411   .     S
C1021  H1046   1.115   .     S
C1021  H1034   1.109   .     S
C1021  H1035   1.111   .     S
C1022  O1050   1.411   .     S
C1022  H1038   1.111   .     S
C1022  H1037   1.115   .     S
C1022  H1036   1.109   .     S
C1023  O1053   1.289   .     A
C1023  O1051   1.292   .     A
C1024  O1056   1.289   .     A
C1024  C1026   1.434   .     S
C1024  O1054   1.286   .     A
C1025  O1057   1.289   .     A
C1025  C1027   1.434   .     S
C1025  O1055   1.286   .     A
C1027  C1072   1.335   .     S
C1027  H1085   1.087   .     S
C1028  O1058   1.387   .     S
C1029  O1050   1.387   .     S
C1029  C1152   1.393   .     S
C1030  H1040   1.083   .     S
C1030  C1166   1.393   .     S
Cu1031 O1057   1.960   .     S
Cu1031 Cu1032  2.679   .     S
Cu1031 O1054   1.958   .     S
Cu1031 N1047   2.013   .     S
Cu1031 O1049   1.962   .     S
Cu1031 O1053   1.964   .     S
Cu1032 O1056   1.960   .     S
Cu1032 O1052   1.964   .     S
Cu1032 N1048   2.013   .     S
Cu1032 O1055   1.958   .     S
Cu1032 O1051   1.962   .     S
H1033  C1072   1.087   .     S
C1059  O1095   1.292   .     A
C1059  C1062   1.449   .     S
C1059  O1098   1.289   .     A
C1060  C1062   1.399   .     A
C1060  H1087   1.083   .     S
C1061  C1075   1.407   .     A
C1061  C1069   1.449   .     S
C1061  C1076   1.399   .     A
C1062  C1074   1.407   .     A
C1063  N1094   1.367   .     A
C1063  H1088   1.082   .     S
C1064  H1089   1.082   .     S
C1064  N1093   1.367   .     A
C1064  C238    1.417   1_556 S
C1065  H1090   1.082   .     S
C1065  N1093   1.367   .     A
C1065  C235    1.417   1_556 S
C1066  N1094   1.367   .     A
C1066  H1091   1.082   .     S
C1067  O1104   1.411   .     S
C1067  H1092   1.115   .     S
C1067  H1080   1.109   .     S
C1067  H1081   1.111   .     S
C1068  O1096   1.411   .     S
C1068  H1084   1.111   .     S
C1068  H1083   1.115   .     S
C1068  H1082   1.109   .     S
C1069  O1099   1.289   .     A
C1069  O1097   1.292   .     A
C1070  O1102   1.289   .     A
C1070  C1072   1.434   .     S
C1070  O1100   1.286   .     A
C1071  O1103   1.289   .     A
C1071  C1073   1.434   .     S
C1071  O1101   1.286   .     A
C1073  C980    1.335   1_655 S
C1073  H993    1.087   1_655 S
C1074  O1104   1.387   .     S
C1075  O1096   1.387   .     S
C1075  C1198   1.393   .     S
C1076  H1086   1.083   .     S
C1076  C1212   1.393   .     S
Cu1077 O1103   1.960   .     S
Cu1077 Cu1078  2.679   .     S
Cu1077 O1100   1.958   .     S
Cu1077 N1093   2.013   .     S
Cu1077 O1095   1.962   .     S
Cu1077 O1099   1.964   .     S
Cu1078 O1102   1.960   .     S
Cu1078 O1098   1.964   .     S
Cu1078 N1094   2.013   .     S
Cu1078 O1101   1.958   .     S
Cu1078 O1097   1.962   .     S
H1079  C980    1.087   1_655 S
C1105  O1141   1.292   .     A
C1105  C1108   1.449   .     S
C1105  O1144   1.289   .     A
C1106  C1108   1.399   .     A
C1106  H1133   1.083   .     S
C1107  C1121   1.407   .     A
C1107  C1115   1.449   .     S
C1107  C1122   1.399   .     A
C1108  C1120   1.407   .     A
C1109  N1140   1.367   .     A
C1109  H1134   1.082   .     S
C1110  H1135   1.082   .     S
C1110  N1139   1.367   .     A
C1110  C284    1.417   1_556 S
C1111  H1136   1.082   .     S
C1111  N1139   1.367   .     A
C1111  C281    1.417   1_556 S
C1112  N1140   1.367   .     A
C1112  H1137   1.082   .     S
C1113  O1150   1.411   .     S
C1113  H1138   1.115   .     S
C1113  H1126   1.109   .     S
C1113  H1127   1.111   .     S
C1114  O1142   1.411   .     S
C1114  H1130   1.111   .     S
C1114  H1129   1.115   .     S
C1114  H1128   1.109   .     S
C1115  O1145   1.289   .     A
C1115  O1143   1.292   .     A
C1116  O1148   1.289   .     A
C1116  C1118   1.434   .     S
C1116  O1146   1.286   .     A
C1117  O1149   1.289   .     A
C1117  C1119   1.434   .     S
C1117  O1147   1.286   .     A
C1118  C1211   1.335   1_455 S
C1118  H1217   1.087   1_455 S
C1119  C1164   1.335   .     S
C1119  H1177   1.087   .     S
C1120  O1150   1.387   .     S
C1121  O1142   1.387   .     S
C1121  C830    1.393   1_565 S
C1122  H1132   1.083   .     S
C1122  C844    1.393   1_565 S
Cu1123 O1149   1.960   .     S
Cu1123 Cu1124  2.679   .     S
Cu1123 O1146   1.958   .     S
Cu1123 N1139   2.013   .     S
Cu1123 O1141   1.962   .     S
Cu1123 O1145   1.964   .     S
Cu1124 O1148   1.960   .     S
Cu1124 O1144   1.964   .     S
Cu1124 N1140   2.013   .     S
Cu1124 O1147   1.958   .     S
Cu1124 O1143   1.962   .     S
H1125  C1164   1.087   .     S
H1131  C1211   1.087   1_455 S
C1151  O1187   1.292   .     A
C1151  C1154   1.449   .     S
C1151  O1190   1.289   .     A
C1152  C1154   1.399   .     A
C1152  H1179   1.083   .     S
C1153  C1167   1.407   .     A
C1153  C1161   1.449   .     S
C1153  C1168   1.399   .     A
C1154  C1166   1.407   .     A
C1155  N1186   1.367   .     A
C1155  H1180   1.082   .     S
C1156  H1181   1.082   .     S
C1156  N1185   1.367   .     A
C1156  C330    1.417   1_556 S
C1157  H1182   1.082   .     S
C1157  N1185   1.367   .     A
C1157  C327    1.417   1_556 S
C1158  N1186   1.367   .     A
C1158  H1183   1.082   .     S
C1159  O1196   1.411   .     S
C1159  H1184   1.115   .     S
C1159  H1172   1.109   .     S
C1159  H1173   1.111   .     S
C1160  O1188   1.411   .     S
C1160  H1176   1.111   .     S
C1160  H1175   1.115   .     S
C1160  H1174   1.109   .     S
C1161  O1191   1.289   .     A
C1161  O1189   1.292   .     A
C1162  O1194   1.289   .     A
C1162  C1164   1.434   .     S
C1162  O1192   1.286   .     A
C1163  O1195   1.289   .     A
C1163  C1165   1.434   .     S
C1163  O1193   1.286   .     A
C1165  C1210   1.335   .     S
C1165  H1223   1.087   .     S
C1166  O1196   1.387   .     S
C1167  O1188   1.387   .     S
C1167  C876    1.393   1_565 S
C1168  H1178   1.083   .     S
C1168  C890    1.393   1_565 S
Cu1169 O1195   1.960   .     S
Cu1169 Cu1170  2.679   .     S
Cu1169 O1192   1.958   .     S
Cu1169 N1185   2.013   .     S
Cu1169 O1187   1.962   .     S
Cu1169 O1191   1.964   .     S
Cu1170 O1194   1.960   .     S
Cu1170 O1190   1.964   .     S
Cu1170 N1186   2.013   .     S
Cu1170 O1193   1.958   .     S
Cu1170 O1189   1.962   .     S
H1171  C1210   1.087   .     S
C1197  O1233   1.292   .     A
C1197  C1200   1.449   .     S
C1197  O1236   1.289   .     A
C1198  C1200   1.399   .     A
C1198  H1225   1.083   .     S
C1199  C1213   1.407   .     A
C1199  C1207   1.449   .     S
C1199  C1214   1.399   .     A
C1200  C1212   1.407   .     A
C1201  N1232   1.367   .     A
C1201  H1226   1.082   .     S
C1202  H1227   1.082   .     S
C1202  N1231   1.367   .     A
C1202  C376    1.417   1_556 S
C1203  H1228   1.082   .     S
C1203  N1231   1.367   .     A
C1203  C373    1.417   1_556 S
C1204  N1232   1.367   .     A
C1204  H1229   1.082   .     S
C1205  O1242   1.411   .     S
C1205  H1230   1.115   .     S
C1205  H1218   1.109   .     S
C1205  H1219   1.111   .     S
C1206  O1234   1.411   .     S
C1206  H1222   1.111   .     S
C1206  H1221   1.115   .     S
C1206  H1220   1.109   .     S
C1207  O1237   1.289   .     A
C1207  O1235   1.292   .     A
C1208  O1240   1.289   .     A
C1208  C1210   1.434   .     S
C1208  O1238   1.286   .     A
C1209  O1241   1.289   .     A
C1209  C1211   1.434   .     S
C1209  O1239   1.286   .     A
C1211  C1118   1.335   1_655 S
C1211  H1131   1.087   1_655 S
C1212  O1242   1.387   .     S
C1213  O1234   1.387   .     S
C1213  C922    1.393   1_565 S
C1214  H1224   1.083   .     S
C1214  C936    1.393   1_565 S
Cu1215 O1241   1.960   .     S
Cu1215 Cu1216  2.679   .     S
Cu1215 O1238   1.958   .     S
Cu1215 N1231   2.013   .     S
Cu1215 O1233   1.962   .     S
Cu1215 O1237   1.964   .     S
Cu1216 O1240   1.960   .     S
Cu1216 O1236   1.964   .     S
Cu1216 N1232   2.013   .     S
Cu1216 O1239   1.958   .     S
Cu1216 O1235   1.962   .     S
H1217  C1118   1.087   1_655 S
