data_str_m1_o10_o16_pcu_sym.261
_audit_creation_date              2020-01-03
_audit_creation_method            'Materials Studio'
_symmetry_space_group_name_H-M    'P1'
_symmetry_Int_Tables_number       1
_symmetry_cell_setting            triclinic
loop_
_symmetry_equiv_pos_as_xyz
  x,y,z
_cell_length_a                    32.4933
_cell_length_b                    32.5140
_cell_length_c                    31.2455
_cell_angle_alpha                 96.3869
_cell_angle_beta                  74.4282
_cell_angle_gamma                 98.5309
loop_
_atom_site_label
_atom_site_type_symbol
_atom_site_fract_x
_atom_site_fract_y
_atom_site_fract_z
_atom_site_U_iso_or_equiv
_atom_site_adp_type
_atom_site_occupancy
C1     C     0.05278   0.15982   0.25992   0.00000  Uiso   1.00
C2     C     0.16453   0.16127   0.06152   0.00000  Uiso   1.00
C3     C     0.23012   0.13050   0.05622   0.00000  Uiso   1.00
C4     C     0.28082   0.17382   0.23989   0.00000  Uiso   1.00
C5     C     0.13621   0.18769   0.41966   0.00000  Uiso   1.00
C6     C     0.32683   0.17633   0.23549   0.00000  Uiso   1.00
C7     C     0.00743   0.15764   0.26394   0.00000  Uiso   1.00
C8     C     0.18044   0.32250   0.23632   0.00000  Uiso   1.00
C9     C     0.15192   0.01178   0.26385   0.00000  Uiso   1.00
C10    C     0.15620   0.05592   0.26013   0.00000  Uiso   1.00
C11    C     0.17659   0.27793   0.24012   0.00000  Uiso   1.00
C12    C     0.07554   0.18101   0.48507   0.00000  Uiso   1.00
C13    C     0.18495   0.14878   0.12951   0.00000  Uiso   1.00
C14    C     0.14887   0.18500   0.37071   0.00000  Uiso   1.00
C15    C     0.24380   0.13595   0.01107   0.00000  Uiso   1.00
C16    C     0.19158   0.14421   0.08159   0.00000  Uiso   1.00
C17    C     0.09267   0.19045   0.44082   0.00000  Uiso   1.00
C18    C     0.09677   0.16856   0.12053   0.00000  Uiso   1.00
C19    C     0.01159   0.21688   0.00631   0.00000  Uiso   1.00
C20    C     0.10265   0.16932   0.00832   0.00000  Uiso   1.00
C21    C     0.14755   0.17132   0.48996   0.00000  Uiso   1.00
C22    C     0.16434   0.17970   0.44452   0.00000  Uiso   1.00
C23    C     0.17570   0.16142   0.01426   0.00000  Uiso   1.00
C24    C     0.21767   0.15259   0.49024   0.00000  Uiso   1.00
C25    C     0.23401   0.16231   0.44610   0.00000  Uiso   1.00
C26    C     0.20852   0.17822   0.42449   0.00000  Uiso   1.00
H27    H     0.25136   0.11872   0.07214   0.00000  Uiso   1.00
H28    H     0.01608   0.19336   0.20907   0.00000  Uiso   1.00
H29    H     0.12992   0.21354   0.07524   0.00000  Uiso   1.00
H30    H     0.06693   0.17795   0.11567   0.00000  Uiso   1.00
H31    H     0.09880   0.17991   0.15482   0.00000  Uiso   1.00
H32    H     0.09424   0.13394   0.11678   0.00000  Uiso   1.00
H33    H     0.01977   0.16474   0.03443   0.00000  Uiso   1.00
H34    H     0.30988   0.21169   0.02247   0.00000  Uiso   1.00
H35    H     0.01560   0.22634   0.47225   0.00000  Uiso   1.00
H36    H     0.02679   0.24233   0.02599   0.00000  Uiso   1.00
H37    H     0.31883   0.14089   0.29093   0.00000  Uiso   1.00
H38    H     0.20676   0.00371   0.21093   0.00000  Uiso   1.00
H39    H     0.12532   0.33137   0.28944   0.00000  Uiso   1.00
H40    H     0.26706   0.15863   0.42855   0.00000  Uiso   1.00
H41    H     0.27535   0.12811   0.49262   0.00000  Uiso   1.00
H42    H     0.07101   0.19580   0.42158   0.00000  Uiso   1.00
H43    H     0.08777   0.15675   0.03995   0.00000  Uiso   1.00
H44    H     0.22370   0.18805   0.39139   0.00000  Uiso   1.00
N45    N     0.13415   0.18739   0.08869   0.00000  Uiso   1.00
N46    N     0.03032   0.17885   0.00475   0.00000  Uiso   1.00
O47    O     0.16667   0.16667   0.25000   0.00000  Uiso   1.00
O48    O     0.15451   0.12637   0.15459   0.00000  Uiso   1.00
O49    O     0.12940   0.20391   0.34968   0.00000  Uiso   1.00
O50    O     0.20824   0.17759   0.14606   0.00000  Uiso   1.00
O51    O     0.17451   0.15880   0.34968   0.00000  Uiso   1.00
O52    O     0.17930   0.08019   0.28214   0.00000  Uiso   1.00
O53    O     0.14632   0.26085   0.27014   0.00000  Uiso   1.00
O54    O     0.07412   0.13291   0.23413   0.00000  Uiso   1.00
O55    O     0.26693   0.19272   0.21361   0.00000  Uiso   1.00
O56    O     0.07071   0.18878   0.28213   0.00000  Uiso   1.00
O57    O     0.25491   0.15226   0.27014   0.00000  Uiso   1.00
O58    O     0.13760   0.06944   0.23413   0.00000  Uiso   1.00
O59    O     0.20345   0.25620   0.21361   0.00000  Uiso   1.00
Zn60   Zn    0.19338   0.13994   0.28734   0.00000  Uiso   1.00
Zn61   Zn    0.13379   0.12458   0.21876   0.00000  Uiso   1.00
Zn62   Zn    0.21056   0.19775   0.20657   0.00000  Uiso   1.00
Zn63   Zn    0.12893   0.20439   0.28734   0.00000  Uiso   1.00
C64    C     0.38611   0.15982   0.25992   0.00000  Uiso   1.00
C65    C     0.49786   0.16127   0.06152   0.00000  Uiso   1.00
C66    C     0.56346   0.13050   0.05622   0.00000  Uiso   1.00
C67    C     0.61415   0.17382   0.23989   0.00000  Uiso   1.00
C68    C     0.46954   0.18769   0.41966   0.00000  Uiso   1.00
C69    C     0.66016   0.17633   0.23549   0.00000  Uiso   1.00
C70    C     0.34077   0.15764   0.26394   0.00000  Uiso   1.00
C71    C     0.51378   0.32250   0.23632   0.00000  Uiso   1.00
C72    C     0.48526   0.01178   0.26385   0.00000  Uiso   1.00
C73    C     0.48953   0.05592   0.26013   0.00000  Uiso   1.00
C74    C     0.50992   0.27793   0.24012   0.00000  Uiso   1.00
C75    C     0.40888   0.18101   0.48507   0.00000  Uiso   1.00
C76    C     0.51829   0.14878   0.12951   0.00000  Uiso   1.00
C77    C     0.48220   0.18500   0.37071   0.00000  Uiso   1.00
C78    C     0.57714   0.13595   0.01107   0.00000  Uiso   1.00
C79    C     0.52491   0.14421   0.08159   0.00000  Uiso   1.00
C80    C     0.42600   0.19045   0.44082   0.00000  Uiso   1.00
C81    C     0.43011   0.16856   0.12053   0.00000  Uiso   1.00
C82    C     0.34493   0.21688   0.00631   0.00000  Uiso   1.00
C83    C     0.43598   0.16932   0.00832   0.00000  Uiso   1.00
C84    C     0.48089   0.17132   0.48996   0.00000  Uiso   1.00
C85    C     0.49768   0.17970   0.44452   0.00000  Uiso   1.00
C86    C     0.50904   0.16142   0.01426   0.00000  Uiso   1.00
C87    C     0.55100   0.15259   0.49024   0.00000  Uiso   1.00
C88    C     0.56734   0.16231   0.44610   0.00000  Uiso   1.00
C89    C     0.54186   0.17822   0.42449   0.00000  Uiso   1.00
H90    H     0.58469   0.11872   0.07214   0.00000  Uiso   1.00
H91    H     0.34941   0.19336   0.20907   0.00000  Uiso   1.00
H92    H     0.46325   0.21354   0.07524   0.00000  Uiso   1.00
H93    H     0.40026   0.17795   0.11567   0.00000  Uiso   1.00
H94    H     0.43213   0.17991   0.15482   0.00000  Uiso   1.00
H95    H     0.42758   0.13394   0.11678   0.00000  Uiso   1.00
H96    H     0.35311   0.16474   0.03443   0.00000  Uiso   1.00
H97    H     0.64321   0.21169   0.02247   0.00000  Uiso   1.00
H98    H     0.34893   0.22634   0.47225   0.00000  Uiso   1.00
H99    H     0.36013   0.24233   0.02599   0.00000  Uiso   1.00
H100   H     0.65216   0.14089   0.29093   0.00000  Uiso   1.00
H101   H     0.54010   0.00371   0.21093   0.00000  Uiso   1.00
H102   H     0.45865   0.33137   0.28944   0.00000  Uiso   1.00
H103   H     0.60039   0.15863   0.42855   0.00000  Uiso   1.00
H104   H     0.60868   0.12811   0.49262   0.00000  Uiso   1.00
H105   H     0.40434   0.19580   0.42158   0.00000  Uiso   1.00
H106   H     0.42110   0.15675   0.03995   0.00000  Uiso   1.00
H107   H     0.55704   0.18805   0.39139   0.00000  Uiso   1.00
N108   N     0.46748   0.18739   0.08869   0.00000  Uiso   1.00
N109   N     0.36365   0.17885   0.00475   0.00000  Uiso   1.00
O110   O     0.50000   0.16667   0.25000   0.00000  Uiso   1.00
O111   O     0.48784   0.12637   0.15459   0.00000  Uiso   1.00
O112   O     0.46274   0.20391   0.34968   0.00000  Uiso   1.00
O113   O     0.54157   0.17759   0.14606   0.00000  Uiso   1.00
O114   O     0.50785   0.15880   0.34968   0.00000  Uiso   1.00
O115   O     0.51264   0.08019   0.28214   0.00000  Uiso   1.00
O116   O     0.47965   0.26085   0.27014   0.00000  Uiso   1.00
O117   O     0.40745   0.13291   0.23413   0.00000  Uiso   1.00
O118   O     0.60026   0.19272   0.21361   0.00000  Uiso   1.00
O119   O     0.40405   0.18878   0.28213   0.00000  Uiso   1.00
O120   O     0.58824   0.15226   0.27014   0.00000  Uiso   1.00
O121   O     0.47093   0.06944   0.23413   0.00000  Uiso   1.00
O122   O     0.53678   0.25620   0.21361   0.00000  Uiso   1.00
Zn123  Zn    0.52672   0.13994   0.28734   0.00000  Uiso   1.00
Zn124  Zn    0.46713   0.12458   0.21876   0.00000  Uiso   1.00
Zn125  Zn    0.54389   0.19775   0.20657   0.00000  Uiso   1.00
Zn126  Zn    0.46226   0.20439   0.28734   0.00000  Uiso   1.00
C127   C     0.71944   0.15982   0.25992   0.00000  Uiso   1.00
C128   C     0.83119   0.16127   0.06152   0.00000  Uiso   1.00
C129   C     0.89679   0.13050   0.05622   0.00000  Uiso   1.00
C130   C     0.94748   0.17382   0.23989   0.00000  Uiso   1.00
C131   C     0.80287   0.18769   0.41966   0.00000  Uiso   1.00
C132   C     0.99349   0.17633   0.23549   0.00000  Uiso   1.00
C133   C     0.67410   0.15764   0.26394   0.00000  Uiso   1.00
C134   C     0.84711   0.32250   0.23632   0.00000  Uiso   1.00
C135   C     0.81859   0.01178   0.26385   0.00000  Uiso   1.00
C136   C     0.82286   0.05592   0.26013   0.00000  Uiso   1.00
C137   C     0.84325   0.27793   0.24012   0.00000  Uiso   1.00
C138   C     0.74221   0.18101   0.48507   0.00000  Uiso   1.00
C139   C     0.85162   0.14878   0.12951   0.00000  Uiso   1.00
C140   C     0.81554   0.18500   0.37071   0.00000  Uiso   1.00
C141   C     0.91047   0.13595   0.01107   0.00000  Uiso   1.00
C142   C     0.85825   0.14421   0.08159   0.00000  Uiso   1.00
C143   C     0.75933   0.19045   0.44082   0.00000  Uiso   1.00
C144   C     0.76344   0.16856   0.12053   0.00000  Uiso   1.00
C145   C     0.67826   0.21688   0.00631   0.00000  Uiso   1.00
C146   C     0.76932   0.16932   0.00832   0.00000  Uiso   1.00
C147   C     0.81422   0.17132   0.48996   0.00000  Uiso   1.00
C148   C     0.83101   0.17970   0.44452   0.00000  Uiso   1.00
C149   C     0.84237   0.16142   0.01426   0.00000  Uiso   1.00
C150   C     0.88434   0.15259   0.49024   0.00000  Uiso   1.00
C151   C     0.90068   0.16231   0.44610   0.00000  Uiso   1.00
C152   C     0.87519   0.17822   0.42449   0.00000  Uiso   1.00
H153   H     0.91803   0.11872   0.07214   0.00000  Uiso   1.00
H154   H     0.68275   0.19336   0.20907   0.00000  Uiso   1.00
H155   H     0.79659   0.21354   0.07524   0.00000  Uiso   1.00
H156   H     0.73359   0.17795   0.11567   0.00000  Uiso   1.00
H157   H     0.76547   0.17991   0.15482   0.00000  Uiso   1.00
H158   H     0.76091   0.13394   0.11678   0.00000  Uiso   1.00
H159   H     0.68644   0.16474   0.03443   0.00000  Uiso   1.00
H160   H     0.97654   0.21169   0.02247   0.00000  Uiso   1.00
H161   H     0.68226   0.22634   0.47225   0.00000  Uiso   1.00
H162   H     0.69346   0.24233   0.02599   0.00000  Uiso   1.00
H163   H     0.98550   0.14089   0.29093   0.00000  Uiso   1.00
H164   H     0.87343   0.00371   0.21093   0.00000  Uiso   1.00
H165   H     0.79199   0.33137   0.28944   0.00000  Uiso   1.00
H166   H     0.93373   0.15863   0.42855   0.00000  Uiso   1.00
H167   H     0.94202   0.12811   0.49262   0.00000  Uiso   1.00
H168   H     0.73767   0.19580   0.42158   0.00000  Uiso   1.00
H169   H     0.75444   0.15675   0.03995   0.00000  Uiso   1.00
H170   H     0.89037   0.18805   0.39139   0.00000  Uiso   1.00
N171   N     0.80081   0.18739   0.08869   0.00000  Uiso   1.00
N172   N     0.69699   0.17885   0.00475   0.00000  Uiso   1.00
O173   O     0.83333   0.16667   0.25000   0.00000  Uiso   1.00
O174   O     0.82118   0.12637   0.15459   0.00000  Uiso   1.00
O175   O     0.79607   0.20391   0.34968   0.00000  Uiso   1.00
O176   O     0.87491   0.17759   0.14606   0.00000  Uiso   1.00
O177   O     0.84118   0.15880   0.34968   0.00000  Uiso   1.00
O178   O     0.84597   0.08019   0.28214   0.00000  Uiso   1.00
O179   O     0.81298   0.26085   0.27014   0.00000  Uiso   1.00
O180   O     0.74078   0.13291   0.23413   0.00000  Uiso   1.00
O181   O     0.93360   0.19272   0.21361   0.00000  Uiso   1.00
O182   O     0.73738   0.18878   0.28213   0.00000  Uiso   1.00
O183   O     0.92158   0.15226   0.27014   0.00000  Uiso   1.00
O184   O     0.80426   0.06944   0.23413   0.00000  Uiso   1.00
O185   O     0.87012   0.25620   0.21361   0.00000  Uiso   1.00
Zn186  Zn    0.86005   0.13994   0.28734   0.00000  Uiso   1.00
Zn187  Zn    0.80046   0.12458   0.21876   0.00000  Uiso   1.00
Zn188  Zn    0.87723   0.19775   0.20657   0.00000  Uiso   1.00
Zn189  Zn    0.79560   0.20439   0.28734   0.00000  Uiso   1.00
C190   C     0.05278   0.49315   0.25992   0.00000  Uiso   1.00
C191   C     0.16453   0.49460   0.06152   0.00000  Uiso   1.00
C192   C     0.23012   0.46383   0.05622   0.00000  Uiso   1.00
C193   C     0.28082   0.50715   0.23989   0.00000  Uiso   1.00
C194   C     0.13621   0.52102   0.41966   0.00000  Uiso   1.00
C195   C     0.32683   0.50966   0.23549   0.00000  Uiso   1.00
C196   C     0.00743   0.49097   0.26394   0.00000  Uiso   1.00
C197   C     0.18044   0.65584   0.23632   0.00000  Uiso   1.00
C198   C     0.15192   0.34512   0.26385   0.00000  Uiso   1.00
C199   C     0.15620   0.38925   0.26013   0.00000  Uiso   1.00
C200   C     0.17659   0.61127   0.24012   0.00000  Uiso   1.00
C201   C     0.07554   0.51435   0.48507   0.00000  Uiso   1.00
C202   C     0.18495   0.48212   0.12951   0.00000  Uiso   1.00
C203   C     0.14887   0.51833   0.37071   0.00000  Uiso   1.00
C204   C     0.24380   0.46928   0.01107   0.00000  Uiso   1.00
C205   C     0.19158   0.47754   0.08159   0.00000  Uiso   1.00
C206   C     0.09267   0.52379   0.44082   0.00000  Uiso   1.00
C207   C     0.09677   0.50189   0.12053   0.00000  Uiso   1.00
C208   C     0.01159   0.55021   0.00631   0.00000  Uiso   1.00
C209   C     0.10265   0.50265   0.00832   0.00000  Uiso   1.00
C210   C     0.14755   0.50465   0.48996   0.00000  Uiso   1.00
C211   C     0.16434   0.51304   0.44452   0.00000  Uiso   1.00
C212   C     0.17570   0.49476   0.01426   0.00000  Uiso   1.00
C213   C     0.21767   0.48592   0.49024   0.00000  Uiso   1.00
C214   C     0.23401   0.49564   0.44610   0.00000  Uiso   1.00
C215   C     0.20852   0.51155   0.42449   0.00000  Uiso   1.00
H216   H     0.25136   0.45206   0.07214   0.00000  Uiso   1.00
H217   H     0.01608   0.52669   0.20907   0.00000  Uiso   1.00
H218   H     0.12992   0.54688   0.07524   0.00000  Uiso   1.00
H219   H     0.06693   0.51128   0.11567   0.00000  Uiso   1.00
H220   H     0.09880   0.51324   0.15482   0.00000  Uiso   1.00
H221   H     0.09424   0.46728   0.11678   0.00000  Uiso   1.00
H222   H     0.01977   0.49807   0.03443   0.00000  Uiso   1.00
H223   H     0.30988   0.54503   0.02247   0.00000  Uiso   1.00
H224   H     0.01560   0.55968   0.47225   0.00000  Uiso   1.00
H225   H     0.02679   0.57566   0.02599   0.00000  Uiso   1.00
H226   H     0.31883   0.47422   0.29093   0.00000  Uiso   1.00
H227   H     0.20676   0.33704   0.21093   0.00000  Uiso   1.00
H228   H     0.12532   0.66470   0.28944   0.00000  Uiso   1.00
H229   H     0.26706   0.49196   0.42855   0.00000  Uiso   1.00
H230   H     0.27535   0.46145   0.49262   0.00000  Uiso   1.00
H231   H     0.07101   0.52913   0.42158   0.00000  Uiso   1.00
H232   H     0.08777   0.49008   0.03995   0.00000  Uiso   1.00
H233   H     0.22370   0.52138   0.39139   0.00000  Uiso   1.00
N234   N     0.13415   0.52072   0.08869   0.00000  Uiso   1.00
N235   N     0.03032   0.51218   0.00475   0.00000  Uiso   1.00
O236   O     0.16667   0.50000   0.25000   0.00000  Uiso   1.00
O237   O     0.15451   0.45970   0.15459   0.00000  Uiso   1.00
O238   O     0.12940   0.53724   0.34968   0.00000  Uiso   1.00
O239   O     0.20824   0.51092   0.14606   0.00000  Uiso   1.00
O240   O     0.17451   0.49213   0.34968   0.00000  Uiso   1.00
O241   O     0.17930   0.41352   0.28214   0.00000  Uiso   1.00
O242   O     0.14632   0.59418   0.27014   0.00000  Uiso   1.00
O243   O     0.07412   0.46625   0.23413   0.00000  Uiso   1.00
O244   O     0.26693   0.52605   0.21361   0.00000  Uiso   1.00
O245   O     0.07071   0.52211   0.28213   0.00000  Uiso   1.00
O246   O     0.25491   0.48559   0.27014   0.00000  Uiso   1.00
O247   O     0.13760   0.40277   0.23413   0.00000  Uiso   1.00
O248   O     0.20345   0.58953   0.21361   0.00000  Uiso   1.00
Zn249  Zn    0.19338   0.47327   0.28734   0.00000  Uiso   1.00
Zn250  Zn    0.13379   0.45791   0.21876   0.00000  Uiso   1.00
Zn251  Zn    0.21056   0.53109   0.20657   0.00000  Uiso   1.00
Zn252  Zn    0.12893   0.53773   0.28734   0.00000  Uiso   1.00
C253   C     0.38611   0.49315   0.25992   0.00000  Uiso   1.00
C254   C     0.49786   0.49460   0.06152   0.00000  Uiso   1.00
C255   C     0.56346   0.46383   0.05622   0.00000  Uiso   1.00
C256   C     0.61415   0.50715   0.23989   0.00000  Uiso   1.00
C257   C     0.46954   0.52102   0.41966   0.00000  Uiso   1.00
C258   C     0.66016   0.50966   0.23549   0.00000  Uiso   1.00
C259   C     0.34077   0.49097   0.26394   0.00000  Uiso   1.00
C260   C     0.51378   0.65584   0.23632   0.00000  Uiso   1.00
C261   C     0.48526   0.34512   0.26385   0.00000  Uiso   1.00
C262   C     0.48953   0.38925   0.26013   0.00000  Uiso   1.00
C263   C     0.50992   0.61127   0.24012   0.00000  Uiso   1.00
C264   C     0.40888   0.51435   0.48507   0.00000  Uiso   1.00
C265   C     0.51829   0.48212   0.12951   0.00000  Uiso   1.00
C266   C     0.48220   0.51833   0.37071   0.00000  Uiso   1.00
C267   C     0.57714   0.46928   0.01107   0.00000  Uiso   1.00
C268   C     0.52491   0.47754   0.08159   0.00000  Uiso   1.00
C269   C     0.42600   0.52379   0.44082   0.00000  Uiso   1.00
C270   C     0.43011   0.50189   0.12053   0.00000  Uiso   1.00
C271   C     0.34493   0.55021   0.00631   0.00000  Uiso   1.00
C272   C     0.43598   0.50265   0.00832   0.00000  Uiso   1.00
C273   C     0.48089   0.50465   0.48996   0.00000  Uiso   1.00
C274   C     0.49768   0.51304   0.44452   0.00000  Uiso   1.00
C275   C     0.50904   0.49476   0.01426   0.00000  Uiso   1.00
C276   C     0.55100   0.48592   0.49024   0.00000  Uiso   1.00
C277   C     0.56734   0.49564   0.44610   0.00000  Uiso   1.00
C278   C     0.54186   0.51155   0.42449   0.00000  Uiso   1.00
H279   H     0.58469   0.45206   0.07214   0.00000  Uiso   1.00
H280   H     0.34941   0.52669   0.20907   0.00000  Uiso   1.00
H281   H     0.46325   0.54688   0.07524   0.00000  Uiso   1.00
H282   H     0.40026   0.51128   0.11567   0.00000  Uiso   1.00
H283   H     0.43213   0.51324   0.15482   0.00000  Uiso   1.00
H284   H     0.42758   0.46728   0.11678   0.00000  Uiso   1.00
H285   H     0.35311   0.49807   0.03443   0.00000  Uiso   1.00
H286   H     0.64321   0.54503   0.02247   0.00000  Uiso   1.00
H287   H     0.34893   0.55968   0.47225   0.00000  Uiso   1.00
H288   H     0.36013   0.57566   0.02599   0.00000  Uiso   1.00
H289   H     0.65216   0.47422   0.29093   0.00000  Uiso   1.00
H290   H     0.54010   0.33704   0.21093   0.00000  Uiso   1.00
H291   H     0.45865   0.66470   0.28944   0.00000  Uiso   1.00
H292   H     0.60039   0.49196   0.42855   0.00000  Uiso   1.00
H293   H     0.60868   0.46145   0.49262   0.00000  Uiso   1.00
H294   H     0.40434   0.52913   0.42158   0.00000  Uiso   1.00
H295   H     0.42110   0.49008   0.03995   0.00000  Uiso   1.00
H296   H     0.55704   0.52138   0.39139   0.00000  Uiso   1.00
N297   N     0.46748   0.52072   0.08869   0.00000  Uiso   1.00
N298   N     0.36365   0.51218   0.00475   0.00000  Uiso   1.00
O299   O     0.50000   0.50000   0.25000   0.00000  Uiso   1.00
O300   O     0.48784   0.45970   0.15459   0.00000  Uiso   1.00
O301   O     0.46274   0.53724   0.34968   0.00000  Uiso   1.00
O302   O     0.54157   0.51092   0.14606   0.00000  Uiso   1.00
O303   O     0.50785   0.49213   0.34968   0.00000  Uiso   1.00
O304   O     0.51264   0.41352   0.28214   0.00000  Uiso   1.00
O305   O     0.47965   0.59418   0.27014   0.00000  Uiso   1.00
O306   O     0.40745   0.46625   0.23413   0.00000  Uiso   1.00
O307   O     0.60026   0.52605   0.21361   0.00000  Uiso   1.00
O308   O     0.40405   0.52211   0.28213   0.00000  Uiso   1.00
O309   O     0.58824   0.48559   0.27014   0.00000  Uiso   1.00
O310   O     0.47093   0.40277   0.23413   0.00000  Uiso   1.00
O311   O     0.53678   0.58953   0.21361   0.00000  Uiso   1.00
Zn312  Zn    0.52672   0.47327   0.28734   0.00000  Uiso   1.00
Zn313  Zn    0.46713   0.45791   0.21876   0.00000  Uiso   1.00
Zn314  Zn    0.54389   0.53109   0.20657   0.00000  Uiso   1.00
Zn315  Zn    0.46226   0.53773   0.28734   0.00000  Uiso   1.00
C316   C     0.71944   0.49315   0.25992   0.00000  Uiso   1.00
C317   C     0.83119   0.49460   0.06152   0.00000  Uiso   1.00
C318   C     0.89679   0.46383   0.05622   0.00000  Uiso   1.00
C319   C     0.94748   0.50715   0.23989   0.00000  Uiso   1.00
C320   C     0.80287   0.52102   0.41966   0.00000  Uiso   1.00
C321   C     0.99349   0.50966   0.23549   0.00000  Uiso   1.00
C322   C     0.67410   0.49097   0.26394   0.00000  Uiso   1.00
C323   C     0.84711   0.65584   0.23632   0.00000  Uiso   1.00
C324   C     0.81859   0.34512   0.26385   0.00000  Uiso   1.00
C325   C     0.82286   0.38925   0.26013   0.00000  Uiso   1.00
C326   C     0.84325   0.61127   0.24012   0.00000  Uiso   1.00
C327   C     0.74221   0.51435   0.48507   0.00000  Uiso   1.00
C328   C     0.85162   0.48212   0.12951   0.00000  Uiso   1.00
C329   C     0.81554   0.51833   0.37071   0.00000  Uiso   1.00
C330   C     0.91047   0.46928   0.01107   0.00000  Uiso   1.00
C331   C     0.85825   0.47754   0.08159   0.00000  Uiso   1.00
C332   C     0.75933   0.52379   0.44082   0.00000  Uiso   1.00
C333   C     0.76344   0.50189   0.12053   0.00000  Uiso   1.00
C334   C     0.67826   0.55021   0.00631   0.00000  Uiso   1.00
C335   C     0.76932   0.50265   0.00832   0.00000  Uiso   1.00
C336   C     0.81422   0.50465   0.48996   0.00000  Uiso   1.00
C337   C     0.83101   0.51304   0.44452   0.00000  Uiso   1.00
C338   C     0.84237   0.49476   0.01426   0.00000  Uiso   1.00
C339   C     0.88434   0.48592   0.49024   0.00000  Uiso   1.00
C340   C     0.90068   0.49564   0.44610   0.00000  Uiso   1.00
C341   C     0.87519   0.51155   0.42449   0.00000  Uiso   1.00
H342   H     0.91803   0.45206   0.07214   0.00000  Uiso   1.00
H343   H     0.68275   0.52669   0.20907   0.00000  Uiso   1.00
H344   H     0.79659   0.54688   0.07524   0.00000  Uiso   1.00
H345   H     0.73359   0.51128   0.11567   0.00000  Uiso   1.00
H346   H     0.76547   0.51324   0.15482   0.00000  Uiso   1.00
H347   H     0.76091   0.46728   0.11678   0.00000  Uiso   1.00
H348   H     0.68644   0.49807   0.03443   0.00000  Uiso   1.00
H349   H     0.97654   0.54503   0.02247   0.00000  Uiso   1.00
H350   H     0.68226   0.55968   0.47225   0.00000  Uiso   1.00
H351   H     0.69346   0.57566   0.02599   0.00000  Uiso   1.00
H352   H     0.98550   0.47422   0.29093   0.00000  Uiso   1.00
H353   H     0.87343   0.33704   0.21093   0.00000  Uiso   1.00
H354   H     0.79199   0.66470   0.28944   0.00000  Uiso   1.00
H355   H     0.93373   0.49196   0.42855   0.00000  Uiso   1.00
H356   H     0.94202   0.46145   0.49262   0.00000  Uiso   1.00
H357   H     0.73767   0.52913   0.42158   0.00000  Uiso   1.00
H358   H     0.75444   0.49008   0.03995   0.00000  Uiso   1.00
H359   H     0.89037   0.52138   0.39139   0.00000  Uiso   1.00
N360   N     0.80081   0.52072   0.08869   0.00000  Uiso   1.00
N361   N     0.69699   0.51218   0.00475   0.00000  Uiso   1.00
O362   O     0.83333   0.50000   0.25000   0.00000  Uiso   1.00
O363   O     0.82118   0.45970   0.15459   0.00000  Uiso   1.00
O364   O     0.79607   0.53724   0.34968   0.00000  Uiso   1.00
O365   O     0.87491   0.51092   0.14606   0.00000  Uiso   1.00
O366   O     0.84118   0.49213   0.34968   0.00000  Uiso   1.00
O367   O     0.84597   0.41352   0.28214   0.00000  Uiso   1.00
O368   O     0.81298   0.59418   0.27014   0.00000  Uiso   1.00
O369   O     0.74078   0.46625   0.23413   0.00000  Uiso   1.00
O370   O     0.93360   0.52605   0.21361   0.00000  Uiso   1.00
O371   O     0.73738   0.52211   0.28213   0.00000  Uiso   1.00
O372   O     0.92158   0.48559   0.27014   0.00000  Uiso   1.00
O373   O     0.80426   0.40277   0.23413   0.00000  Uiso   1.00
O374   O     0.87012   0.58953   0.21361   0.00000  Uiso   1.00
Zn375  Zn    0.86005   0.47327   0.28734   0.00000  Uiso   1.00
Zn376  Zn    0.80046   0.45791   0.21876   0.00000  Uiso   1.00
Zn377  Zn    0.87723   0.53109   0.20657   0.00000  Uiso   1.00
Zn378  Zn    0.79560   0.53773   0.28734   0.00000  Uiso   1.00
C379   C     0.05278   0.82649   0.25992   0.00000  Uiso   1.00
C380   C     0.16453   0.82793   0.06152   0.00000  Uiso   1.00
C381   C     0.23012   0.79716   0.05622   0.00000  Uiso   1.00
C382   C     0.28082   0.84049   0.23989   0.00000  Uiso   1.00
C383   C     0.13621   0.85435   0.41966   0.00000  Uiso   1.00
C384   C     0.32683   0.84299   0.23549   0.00000  Uiso   1.00
C385   C     0.00743   0.82431   0.26394   0.00000  Uiso   1.00
C386   C     0.18044   0.98917   0.23632   0.00000  Uiso   1.00
C387   C     0.15192   0.67845   0.26385   0.00000  Uiso   1.00
C388   C     0.15620   0.72258   0.26013   0.00000  Uiso   1.00
C389   C     0.17659   0.94460   0.24012   0.00000  Uiso   1.00
C390   C     0.07554   0.84768   0.48507   0.00000  Uiso   1.00
C391   C     0.18495   0.81545   0.12951   0.00000  Uiso   1.00
C392   C     0.14887   0.85167   0.37071   0.00000  Uiso   1.00
C393   C     0.24380   0.80261   0.01107   0.00000  Uiso   1.00
C394   C     0.19158   0.81088   0.08159   0.00000  Uiso   1.00
C395   C     0.09267   0.85712   0.44082   0.00000  Uiso   1.00
C396   C     0.09677   0.83523   0.12053   0.00000  Uiso   1.00
C397   C     0.01159   0.88354   0.00631   0.00000  Uiso   1.00
C398   C     0.10265   0.83599   0.00832   0.00000  Uiso   1.00
C399   C     0.14755   0.83798   0.48996   0.00000  Uiso   1.00
C400   C     0.16434   0.84637   0.44452   0.00000  Uiso   1.00
C401   C     0.17570   0.82809   0.01426   0.00000  Uiso   1.00
C402   C     0.21767   0.81926   0.49024   0.00000  Uiso   1.00
C403   C     0.23401   0.82898   0.44610   0.00000  Uiso   1.00
C404   C     0.20852   0.84488   0.42449   0.00000  Uiso   1.00
H405   H     0.25136   0.78539   0.07214   0.00000  Uiso   1.00
H406   H     0.01608   0.86002   0.20907   0.00000  Uiso   1.00
H407   H     0.12992   0.88021   0.07524   0.00000  Uiso   1.00
H408   H     0.06693   0.84462   0.11567   0.00000  Uiso   1.00
H409   H     0.09880   0.84658   0.15482   0.00000  Uiso   1.00
H410   H     0.09424   0.80061   0.11678   0.00000  Uiso   1.00
H411   H     0.01977   0.83141   0.03443   0.00000  Uiso   1.00
H412   H     0.30988   0.87836   0.02247   0.00000  Uiso   1.00
H413   H     0.01560   0.89301   0.47225   0.00000  Uiso   1.00
H414   H     0.02679   0.90900   0.02599   0.00000  Uiso   1.00
H415   H     0.31883   0.80756   0.29093   0.00000  Uiso   1.00
H416   H     0.20676   0.67037   0.21093   0.00000  Uiso   1.00
H417   H     0.12532   0.99803   0.28944   0.00000  Uiso   1.00
H418   H     0.26706   0.82529   0.42855   0.00000  Uiso   1.00
H419   H     0.27535   0.79478   0.49262   0.00000  Uiso   1.00
H420   H     0.07101   0.86247   0.42158   0.00000  Uiso   1.00
H421   H     0.08777   0.82341   0.03995   0.00000  Uiso   1.00
H422   H     0.22370   0.85471   0.39139   0.00000  Uiso   1.00
N423   N     0.13415   0.85406   0.08869   0.00000  Uiso   1.00
N424   N     0.03032   0.84551   0.00475   0.00000  Uiso   1.00
O425   O     0.16667   0.83333   0.25000   0.00000  Uiso   1.00
O426   O     0.15451   0.79304   0.15459   0.00000  Uiso   1.00
O427   O     0.12940   0.87058   0.34968   0.00000  Uiso   1.00
O428   O     0.20824   0.84425   0.14606   0.00000  Uiso   1.00
O429   O     0.17451   0.82546   0.34968   0.00000  Uiso   1.00
O430   O     0.17930   0.74686   0.28214   0.00000  Uiso   1.00
O431   O     0.14632   0.92751   0.27014   0.00000  Uiso   1.00
O432   O     0.07412   0.79958   0.23413   0.00000  Uiso   1.00
O433   O     0.26693   0.85939   0.21361   0.00000  Uiso   1.00
O434   O     0.07071   0.85544   0.28213   0.00000  Uiso   1.00
O435   O     0.25491   0.81892   0.27014   0.00000  Uiso   1.00
O436   O     0.13760   0.73610   0.23413   0.00000  Uiso   1.00
O437   O     0.20345   0.92286   0.21361   0.00000  Uiso   1.00
Zn438  Zn    0.19338   0.80661   0.28734   0.00000  Uiso   1.00
Zn439  Zn    0.13379   0.79124   0.21876   0.00000  Uiso   1.00
Zn440  Zn    0.21056   0.86442   0.20657   0.00000  Uiso   1.00
Zn441  Zn    0.12893   0.87106   0.28734   0.00000  Uiso   1.00
C442   C     0.38611   0.82649   0.25992   0.00000  Uiso   1.00
C443   C     0.49786   0.82793   0.06152   0.00000  Uiso   1.00
C444   C     0.56346   0.79716   0.05622   0.00000  Uiso   1.00
C445   C     0.61415   0.84049   0.23989   0.00000  Uiso   1.00
C446   C     0.46954   0.85435   0.41966   0.00000  Uiso   1.00
C447   C     0.66016   0.84299   0.23549   0.00000  Uiso   1.00
C448   C     0.34077   0.82431   0.26394   0.00000  Uiso   1.00
C449   C     0.51378   0.98917   0.23632   0.00000  Uiso   1.00
C450   C     0.48526   0.67845   0.26385   0.00000  Uiso   1.00
C451   C     0.48953   0.72258   0.26013   0.00000  Uiso   1.00
C452   C     0.50992   0.94460   0.24012   0.00000  Uiso   1.00
C453   C     0.40888   0.84768   0.48507   0.00000  Uiso   1.00
C454   C     0.51829   0.81545   0.12951   0.00000  Uiso   1.00
C455   C     0.48220   0.85167   0.37071   0.00000  Uiso   1.00
C456   C     0.57714   0.80261   0.01107   0.00000  Uiso   1.00
C457   C     0.52491   0.81088   0.08159   0.00000  Uiso   1.00
C458   C     0.42600   0.85712   0.44082   0.00000  Uiso   1.00
C459   C     0.43011   0.83523   0.12053   0.00000  Uiso   1.00
C460   C     0.34493   0.88354   0.00631   0.00000  Uiso   1.00
C461   C     0.43598   0.83599   0.00832   0.00000  Uiso   1.00
C462   C     0.48089   0.83798   0.48996   0.00000  Uiso   1.00
C463   C     0.49768   0.84637   0.44452   0.00000  Uiso   1.00
C464   C     0.50904   0.82809   0.01426   0.00000  Uiso   1.00
C465   C     0.55100   0.81926   0.49024   0.00000  Uiso   1.00
C466   C     0.56734   0.82898   0.44610   0.00000  Uiso   1.00
C467   C     0.54186   0.84488   0.42449   0.00000  Uiso   1.00
H468   H     0.58469   0.78539   0.07214   0.00000  Uiso   1.00
H469   H     0.34941   0.86002   0.20907   0.00000  Uiso   1.00
H470   H     0.46325   0.88021   0.07524   0.00000  Uiso   1.00
H471   H     0.40026   0.84462   0.11567   0.00000  Uiso   1.00
H472   H     0.43213   0.84658   0.15482   0.00000  Uiso   1.00
H473   H     0.42758   0.80061   0.11678   0.00000  Uiso   1.00
H474   H     0.35311   0.83141   0.03443   0.00000  Uiso   1.00
H475   H     0.64321   0.87836   0.02247   0.00000  Uiso   1.00
H476   H     0.34893   0.89301   0.47225   0.00000  Uiso   1.00
H477   H     0.36013   0.90900   0.02599   0.00000  Uiso   1.00
H478   H     0.65216   0.80756   0.29093   0.00000  Uiso   1.00
H479   H     0.54010   0.67037   0.21093   0.00000  Uiso   1.00
H480   H     0.45865   0.99803   0.28944   0.00000  Uiso   1.00
H481   H     0.60039   0.82529   0.42855   0.00000  Uiso   1.00
H482   H     0.60868   0.79478   0.49262   0.00000  Uiso   1.00
H483   H     0.40434   0.86247   0.42158   0.00000  Uiso   1.00
H484   H     0.42110   0.82341   0.03995   0.00000  Uiso   1.00
H485   H     0.55704   0.85471   0.39139   0.00000  Uiso   1.00
N486   N     0.46748   0.85406   0.08869   0.00000  Uiso   1.00
N487   N     0.36365   0.84551   0.00475   0.00000  Uiso   1.00
O488   O     0.50000   0.83333   0.25000   0.00000  Uiso   1.00
O489   O     0.48784   0.79304   0.15459   0.00000  Uiso   1.00
O490   O     0.46274   0.87058   0.34968   0.00000  Uiso   1.00
O491   O     0.54157   0.84425   0.14606   0.00000  Uiso   1.00
O492   O     0.50785   0.82546   0.34968   0.00000  Uiso   1.00
O493   O     0.51264   0.74686   0.28214   0.00000  Uiso   1.00
O494   O     0.47965   0.92751   0.27014   0.00000  Uiso   1.00
O495   O     0.40745   0.79958   0.23413   0.00000  Uiso   1.00
O496   O     0.60026   0.85939   0.21361   0.00000  Uiso   1.00
O497   O     0.40405   0.85544   0.28213   0.00000  Uiso   1.00
O498   O     0.58824   0.81892   0.27014   0.00000  Uiso   1.00
O499   O     0.47093   0.73610   0.23413   0.00000  Uiso   1.00
O500   O     0.53678   0.92286   0.21361   0.00000  Uiso   1.00
Zn501  Zn    0.52672   0.80661   0.28734   0.00000  Uiso   1.00
Zn502  Zn    0.46713   0.79124   0.21876   0.00000  Uiso   1.00
Zn503  Zn    0.54389   0.86442   0.20657   0.00000  Uiso   1.00
Zn504  Zn    0.46226   0.87106   0.28734   0.00000  Uiso   1.00
C505   C     0.71944   0.82649   0.25992   0.00000  Uiso   1.00
C506   C     0.83119   0.82793   0.06152   0.00000  Uiso   1.00
C507   C     0.89679   0.79716   0.05622   0.00000  Uiso   1.00
C508   C     0.94748   0.84049   0.23989   0.00000  Uiso   1.00
C509   C     0.80287   0.85435   0.41966   0.00000  Uiso   1.00
C510   C     0.99349   0.84299   0.23549   0.00000  Uiso   1.00
C511   C     0.67410   0.82431   0.26394   0.00000  Uiso   1.00
C512   C     0.84711   0.98917   0.23632   0.00000  Uiso   1.00
C513   C     0.81859   0.67845   0.26385   0.00000  Uiso   1.00
C514   C     0.82286   0.72258   0.26013   0.00000  Uiso   1.00
C515   C     0.84325   0.94460   0.24012   0.00000  Uiso   1.00
C516   C     0.74221   0.84768   0.48507   0.00000  Uiso   1.00
C517   C     0.85162   0.81545   0.12951   0.00000  Uiso   1.00
C518   C     0.81554   0.85167   0.37071   0.00000  Uiso   1.00
C519   C     0.91047   0.80261   0.01107   0.00000  Uiso   1.00
C520   C     0.85825   0.81088   0.08159   0.00000  Uiso   1.00
C521   C     0.75933   0.85712   0.44082   0.00000  Uiso   1.00
C522   C     0.76344   0.83523   0.12053   0.00000  Uiso   1.00
C523   C     0.67826   0.88354   0.00631   0.00000  Uiso   1.00
C524   C     0.76932   0.83599   0.00832   0.00000  Uiso   1.00
C525   C     0.81422   0.83798   0.48996   0.00000  Uiso   1.00
C526   C     0.83101   0.84637   0.44452   0.00000  Uiso   1.00
C527   C     0.84237   0.82809   0.01426   0.00000  Uiso   1.00
C528   C     0.88434   0.81926   0.49024   0.00000  Uiso   1.00
C529   C     0.90068   0.82898   0.44610   0.00000  Uiso   1.00
C530   C     0.87519   0.84488   0.42449   0.00000  Uiso   1.00
H531   H     0.91803   0.78539   0.07214   0.00000  Uiso   1.00
H532   H     0.68275   0.86002   0.20907   0.00000  Uiso   1.00
H533   H     0.79659   0.88021   0.07524   0.00000  Uiso   1.00
H534   H     0.73359   0.84462   0.11567   0.00000  Uiso   1.00
H535   H     0.76547   0.84658   0.15482   0.00000  Uiso   1.00
H536   H     0.76091   0.80061   0.11678   0.00000  Uiso   1.00
H537   H     0.68644   0.83141   0.03443   0.00000  Uiso   1.00
H538   H     0.97654   0.87836   0.02247   0.00000  Uiso   1.00
H539   H     0.68226   0.89301   0.47225   0.00000  Uiso   1.00
H540   H     0.69346   0.90900   0.02599   0.00000  Uiso   1.00
H541   H     0.98550   0.80756   0.29093   0.00000  Uiso   1.00
H542   H     0.87343   0.67037   0.21093   0.00000  Uiso   1.00
H543   H     0.79199   0.99803   0.28944   0.00000  Uiso   1.00
H544   H     0.93373   0.82529   0.42855   0.00000  Uiso   1.00
H545   H     0.94202   0.79478   0.49262   0.00000  Uiso   1.00
H546   H     0.73767   0.86247   0.42158   0.00000  Uiso   1.00
H547   H     0.75444   0.82341   0.03995   0.00000  Uiso   1.00
H548   H     0.89037   0.85471   0.39139   0.00000  Uiso   1.00
N549   N     0.80081   0.85406   0.08869   0.00000  Uiso   1.00
N550   N     0.69699   0.84551   0.00475   0.00000  Uiso   1.00
O551   O     0.83333   0.83333   0.25000   0.00000  Uiso   1.00
O552   O     0.82118   0.79304   0.15459   0.00000  Uiso   1.00
O553   O     0.79607   0.87058   0.34968   0.00000  Uiso   1.00
O554   O     0.87491   0.84425   0.14606   0.00000  Uiso   1.00
O555   O     0.84118   0.82546   0.34968   0.00000  Uiso   1.00
O556   O     0.84597   0.74686   0.28214   0.00000  Uiso   1.00
O557   O     0.81298   0.92751   0.27014   0.00000  Uiso   1.00
O558   O     0.74078   0.79958   0.23413   0.00000  Uiso   1.00
O559   O     0.93360   0.85939   0.21361   0.00000  Uiso   1.00
O560   O     0.73738   0.85544   0.28213   0.00000  Uiso   1.00
O561   O     0.92158   0.81892   0.27014   0.00000  Uiso   1.00
O562   O     0.80426   0.73610   0.23413   0.00000  Uiso   1.00
O563   O     0.87012   0.92286   0.21361   0.00000  Uiso   1.00
Zn564  Zn    0.86005   0.80661   0.28734   0.00000  Uiso   1.00
Zn565  Zn    0.80046   0.79124   0.21876   0.00000  Uiso   1.00
Zn566  Zn    0.87723   0.86442   0.20657   0.00000  Uiso   1.00
Zn567  Zn    0.79560   0.87106   0.28734   0.00000  Uiso   1.00
C568   C     0.05278   0.15982   0.75992   0.00000  Uiso   1.00
C569   C     0.16453   0.16127   0.56152   0.00000  Uiso   1.00
C570   C     0.23012   0.13050   0.55622   0.00000  Uiso   1.00
C571   C     0.28082   0.17382   0.73989   0.00000  Uiso   1.00
C572   C     0.13621   0.18769   0.91966   0.00000  Uiso   1.00
C573   C     0.32683   0.17633   0.73549   0.00000  Uiso   1.00
C574   C     0.00743   0.15764   0.76394   0.00000  Uiso   1.00
C575   C     0.18044   0.32250   0.73632   0.00000  Uiso   1.00
C576   C     0.15192   0.01178   0.76385   0.00000  Uiso   1.00
C577   C     0.15620   0.05592   0.76013   0.00000  Uiso   1.00
C578   C     0.17659   0.27793   0.74012   0.00000  Uiso   1.00
C579   C     0.07554   0.18101   0.98507   0.00000  Uiso   1.00
C580   C     0.18495   0.14878   0.62951   0.00000  Uiso   1.00
C581   C     0.14887   0.18500   0.87071   0.00000  Uiso   1.00
C582   C     0.24380   0.13595   0.51107   0.00000  Uiso   1.00
C583   C     0.19158   0.14421   0.58159   0.00000  Uiso   1.00
C584   C     0.09267   0.19045   0.94082   0.00000  Uiso   1.00
C585   C     0.09677   0.16856   0.62053   0.00000  Uiso   1.00
C586   C     0.01159   0.21688   0.50631   0.00000  Uiso   1.00
C587   C     0.10265   0.16932   0.50832   0.00000  Uiso   1.00
C588   C     0.14755   0.17132   0.98996   0.00000  Uiso   1.00
C589   C     0.16434   0.17970   0.94452   0.00000  Uiso   1.00
C590   C     0.17570   0.16142   0.51426   0.00000  Uiso   1.00
C591   C     0.21767   0.15259   0.99024   0.00000  Uiso   1.00
C592   C     0.23401   0.16231   0.94610   0.00000  Uiso   1.00
C593   C     0.20852   0.17822   0.92449   0.00000  Uiso   1.00
H594   H     0.25136   0.11872   0.57214   0.00000  Uiso   1.00
H595   H     0.01608   0.19336   0.70907   0.00000  Uiso   1.00
H596   H     0.12992   0.21354   0.57524   0.00000  Uiso   1.00
H597   H     0.06693   0.17795   0.61567   0.00000  Uiso   1.00
H598   H     0.09880   0.17991   0.65482   0.00000  Uiso   1.00
H599   H     0.09424   0.13394   0.61678   0.00000  Uiso   1.00
H600   H     0.01977   0.16474   0.53443   0.00000  Uiso   1.00
H601   H     0.30988   0.21169   0.52247   0.00000  Uiso   1.00
H602   H     0.01560   0.22634   0.97225   0.00000  Uiso   1.00
H603   H     0.02679   0.24233   0.52599   0.00000  Uiso   1.00
H604   H     0.31883   0.14089   0.79093   0.00000  Uiso   1.00
H605   H     0.20676   0.00371   0.71093   0.00000  Uiso   1.00
H606   H     0.12532   0.33137   0.78944   0.00000  Uiso   1.00
H607   H     0.26706   0.15863   0.92855   0.00000  Uiso   1.00
H608   H     0.27535   0.12811   0.99262   0.00000  Uiso   1.00
H609   H     0.07101   0.19580   0.92158   0.00000  Uiso   1.00
H610   H     0.08777   0.15675   0.53995   0.00000  Uiso   1.00
H611   H     0.22370   0.18805   0.89139   0.00000  Uiso   1.00
N612   N     0.13415   0.18739   0.58869   0.00000  Uiso   1.00
N613   N     0.03032   0.17885   0.50475   0.00000  Uiso   1.00
O614   O     0.16667   0.16667   0.75000   0.00000  Uiso   1.00
O615   O     0.15451   0.12637   0.65459   0.00000  Uiso   1.00
O616   O     0.12940   0.20391   0.84968   0.00000  Uiso   1.00
O617   O     0.20824   0.17759   0.64606   0.00000  Uiso   1.00
O618   O     0.17451   0.15880   0.84968   0.00000  Uiso   1.00
O619   O     0.17930   0.08019   0.78214   0.00000  Uiso   1.00
O620   O     0.14632   0.26085   0.77014   0.00000  Uiso   1.00
O621   O     0.07412   0.13291   0.73413   0.00000  Uiso   1.00
O622   O     0.26693   0.19272   0.71361   0.00000  Uiso   1.00
O623   O     0.07071   0.18878   0.78213   0.00000  Uiso   1.00
O624   O     0.25491   0.15226   0.77014   0.00000  Uiso   1.00
O625   O     0.13760   0.06944   0.73413   0.00000  Uiso   1.00
O626   O     0.20345   0.25620   0.71361   0.00000  Uiso   1.00
Zn627  Zn    0.19338   0.13994   0.78734   0.00000  Uiso   1.00
Zn628  Zn    0.13379   0.12458   0.71876   0.00000  Uiso   1.00
Zn629  Zn    0.21056   0.19775   0.70657   0.00000  Uiso   1.00
Zn630  Zn    0.12893   0.20439   0.78734   0.00000  Uiso   1.00
C631   C     0.38611   0.15982   0.75992   0.00000  Uiso   1.00
C632   C     0.49786   0.16127   0.56152   0.00000  Uiso   1.00
C633   C     0.56346   0.13050   0.55622   0.00000  Uiso   1.00
C634   C     0.61415   0.17382   0.73989   0.00000  Uiso   1.00
C635   C     0.46954   0.18769   0.91966   0.00000  Uiso   1.00
C636   C     0.66016   0.17633   0.73549   0.00000  Uiso   1.00
C637   C     0.34077   0.15764   0.76394   0.00000  Uiso   1.00
C638   C     0.51378   0.32250   0.73632   0.00000  Uiso   1.00
C639   C     0.48526   0.01178   0.76385   0.00000  Uiso   1.00
C640   C     0.48953   0.05592   0.76013   0.00000  Uiso   1.00
C641   C     0.50992   0.27793   0.74012   0.00000  Uiso   1.00
C642   C     0.40888   0.18101   0.98507   0.00000  Uiso   1.00
C643   C     0.51829   0.14878   0.62951   0.00000  Uiso   1.00
C644   C     0.48220   0.18500   0.87071   0.00000  Uiso   1.00
C645   C     0.57714   0.13595   0.51107   0.00000  Uiso   1.00
C646   C     0.52491   0.14421   0.58159   0.00000  Uiso   1.00
C647   C     0.42600   0.19045   0.94082   0.00000  Uiso   1.00
C648   C     0.43011   0.16856   0.62053   0.00000  Uiso   1.00
C649   C     0.34493   0.21688   0.50631   0.00000  Uiso   1.00
C650   C     0.43598   0.16932   0.50832   0.00000  Uiso   1.00
C651   C     0.48089   0.17132   0.98996   0.00000  Uiso   1.00
C652   C     0.49768   0.17970   0.94452   0.00000  Uiso   1.00
C653   C     0.50904   0.16142   0.51426   0.00000  Uiso   1.00
C654   C     0.55100   0.15259   0.99024   0.00000  Uiso   1.00
C655   C     0.56734   0.16231   0.94610   0.00000  Uiso   1.00
C656   C     0.54186   0.17822   0.92449   0.00000  Uiso   1.00
H657   H     0.58469   0.11872   0.57214   0.00000  Uiso   1.00
H658   H     0.34941   0.19336   0.70907   0.00000  Uiso   1.00
H659   H     0.46325   0.21354   0.57524   0.00000  Uiso   1.00
H660   H     0.40026   0.17795   0.61567   0.00000  Uiso   1.00
H661   H     0.43213   0.17991   0.65482   0.00000  Uiso   1.00
H662   H     0.42758   0.13394   0.61678   0.00000  Uiso   1.00
H663   H     0.35311   0.16474   0.53443   0.00000  Uiso   1.00
H664   H     0.64321   0.21169   0.52247   0.00000  Uiso   1.00
H665   H     0.34893   0.22634   0.97225   0.00000  Uiso   1.00
H666   H     0.36013   0.24233   0.52599   0.00000  Uiso   1.00
H667   H     0.65216   0.14089   0.79093   0.00000  Uiso   1.00
H668   H     0.54010   0.00371   0.71093   0.00000  Uiso   1.00
H669   H     0.45865   0.33137   0.78944   0.00000  Uiso   1.00
H670   H     0.60039   0.15863   0.92855   0.00000  Uiso   1.00
H671   H     0.60868   0.12811   0.99262   0.00000  Uiso   1.00
H672   H     0.40434   0.19580   0.92158   0.00000  Uiso   1.00
H673   H     0.42110   0.15675   0.53995   0.00000  Uiso   1.00
H674   H     0.55704   0.18805   0.89139   0.00000  Uiso   1.00
N675   N     0.46748   0.18739   0.58869   0.00000  Uiso   1.00
N676   N     0.36365   0.17885   0.50475   0.00000  Uiso   1.00
O677   O     0.50000   0.16667   0.75000   0.00000  Uiso   1.00
O678   O     0.48784   0.12637   0.65459   0.00000  Uiso   1.00
O679   O     0.46274   0.20391   0.84968   0.00000  Uiso   1.00
O680   O     0.54157   0.17759   0.64606   0.00000  Uiso   1.00
O681   O     0.50785   0.15880   0.84968   0.00000  Uiso   1.00
O682   O     0.51264   0.08019   0.78214   0.00000  Uiso   1.00
O683   O     0.47965   0.26085   0.77014   0.00000  Uiso   1.00
O684   O     0.40745   0.13291   0.73413   0.00000  Uiso   1.00
O685   O     0.60026   0.19272   0.71361   0.00000  Uiso   1.00
O686   O     0.40405   0.18878   0.78213   0.00000  Uiso   1.00
O687   O     0.58824   0.15226   0.77014   0.00000  Uiso   1.00
O688   O     0.47093   0.06944   0.73413   0.00000  Uiso   1.00
O689   O     0.53678   0.25620   0.71361   0.00000  Uiso   1.00
Zn690  Zn    0.52672   0.13994   0.78734   0.00000  Uiso   1.00
Zn691  Zn    0.46713   0.12458   0.71876   0.00000  Uiso   1.00
Zn692  Zn    0.54389   0.19775   0.70657   0.00000  Uiso   1.00
Zn693  Zn    0.46226   0.20439   0.78734   0.00000  Uiso   1.00
C694   C     0.71944   0.15982   0.75992   0.00000  Uiso   1.00
C695   C     0.83119   0.16127   0.56152   0.00000  Uiso   1.00
C696   C     0.89679   0.13050   0.55622   0.00000  Uiso   1.00
C697   C     0.94748   0.17382   0.73989   0.00000  Uiso   1.00
C698   C     0.80287   0.18769   0.91966   0.00000  Uiso   1.00
C699   C     0.99349   0.17633   0.73549   0.00000  Uiso   1.00
C700   C     0.67410   0.15764   0.76394   0.00000  Uiso   1.00
C701   C     0.84711   0.32250   0.73632   0.00000  Uiso   1.00
C702   C     0.81859   0.01178   0.76385   0.00000  Uiso   1.00
C703   C     0.82286   0.05592   0.76013   0.00000  Uiso   1.00
C704   C     0.84325   0.27793   0.74012   0.00000  Uiso   1.00
C705   C     0.74221   0.18101   0.98507   0.00000  Uiso   1.00
C706   C     0.85162   0.14878   0.62951   0.00000  Uiso   1.00
C707   C     0.81554   0.18500   0.87071   0.00000  Uiso   1.00
C708   C     0.91047   0.13595   0.51107   0.00000  Uiso   1.00
C709   C     0.85825   0.14421   0.58159   0.00000  Uiso   1.00
C710   C     0.75933   0.19045   0.94082   0.00000  Uiso   1.00
C711   C     0.76344   0.16856   0.62053   0.00000  Uiso   1.00
C712   C     0.67826   0.21688   0.50631   0.00000  Uiso   1.00
C713   C     0.76932   0.16932   0.50832   0.00000  Uiso   1.00
C714   C     0.81422   0.17132   0.98996   0.00000  Uiso   1.00
C715   C     0.83101   0.17970   0.94452   0.00000  Uiso   1.00
C716   C     0.84237   0.16142   0.51426   0.00000  Uiso   1.00
C717   C     0.88434   0.15259   0.99024   0.00000  Uiso   1.00
C718   C     0.90068   0.16231   0.94610   0.00000  Uiso   1.00
C719   C     0.87519   0.17822   0.92449   0.00000  Uiso   1.00
H720   H     0.91803   0.11872   0.57214   0.00000  Uiso   1.00
H721   H     0.68275   0.19336   0.70907   0.00000  Uiso   1.00
H722   H     0.79659   0.21354   0.57524   0.00000  Uiso   1.00
H723   H     0.73359   0.17795   0.61567   0.00000  Uiso   1.00
H724   H     0.76547   0.17991   0.65482   0.00000  Uiso   1.00
H725   H     0.76091   0.13394   0.61678   0.00000  Uiso   1.00
H726   H     0.68644   0.16474   0.53443   0.00000  Uiso   1.00
H727   H     0.97654   0.21169   0.52247   0.00000  Uiso   1.00
H728   H     0.68226   0.22634   0.97225   0.00000  Uiso   1.00
H729   H     0.69346   0.24233   0.52599   0.00000  Uiso   1.00
H730   H     0.98550   0.14089   0.79093   0.00000  Uiso   1.00
H731   H     0.87343   0.00371   0.71093   0.00000  Uiso   1.00
H732   H     0.79199   0.33137   0.78944   0.00000  Uiso   1.00
H733   H     0.93373   0.15863   0.92855   0.00000  Uiso   1.00
H734   H     0.94202   0.12811   0.99262   0.00000  Uiso   1.00
H735   H     0.73767   0.19580   0.92158   0.00000  Uiso   1.00
H736   H     0.75444   0.15675   0.53995   0.00000  Uiso   1.00
H737   H     0.89037   0.18805   0.89139   0.00000  Uiso   1.00
N738   N     0.80081   0.18739   0.58869   0.00000  Uiso   1.00
N739   N     0.69699   0.17885   0.50475   0.00000  Uiso   1.00
O740   O     0.83333   0.16667   0.75000   0.00000  Uiso   1.00
O741   O     0.82118   0.12637   0.65459   0.00000  Uiso   1.00
O742   O     0.79607   0.20391   0.84968   0.00000  Uiso   1.00
O743   O     0.87491   0.17759   0.64606   0.00000  Uiso   1.00
O744   O     0.84118   0.15880   0.84968   0.00000  Uiso   1.00
O745   O     0.84597   0.08019   0.78214   0.00000  Uiso   1.00
O746   O     0.81298   0.26085   0.77014   0.00000  Uiso   1.00
O747   O     0.74078   0.13291   0.73413   0.00000  Uiso   1.00
O748   O     0.93360   0.19272   0.71361   0.00000  Uiso   1.00
O749   O     0.73738   0.18878   0.78213   0.00000  Uiso   1.00
O750   O     0.92158   0.15226   0.77014   0.00000  Uiso   1.00
O751   O     0.80426   0.06944   0.73413   0.00000  Uiso   1.00
O752   O     0.87012   0.25620   0.71361   0.00000  Uiso   1.00
Zn753  Zn    0.86005   0.13994   0.78734   0.00000  Uiso   1.00
Zn754  Zn    0.80046   0.12458   0.71876   0.00000  Uiso   1.00
Zn755  Zn    0.87723   0.19775   0.70657   0.00000  Uiso   1.00
Zn756  Zn    0.79560   0.20439   0.78734   0.00000  Uiso   1.00
C757   C     0.05278   0.49315   0.75992   0.00000  Uiso   1.00
C758   C     0.16453   0.49460   0.56152   0.00000  Uiso   1.00
C759   C     0.23012   0.46383   0.55622   0.00000  Uiso   1.00
C760   C     0.28082   0.50715   0.73989   0.00000  Uiso   1.00
C761   C     0.13621   0.52102   0.91966   0.00000  Uiso   1.00
C762   C     0.32683   0.50966   0.73549   0.00000  Uiso   1.00
C763   C     0.00743   0.49097   0.76394   0.00000  Uiso   1.00
C764   C     0.18044   0.65584   0.73632   0.00000  Uiso   1.00
C765   C     0.15192   0.34512   0.76385   0.00000  Uiso   1.00
C766   C     0.15620   0.38925   0.76013   0.00000  Uiso   1.00
C767   C     0.17659   0.61127   0.74012   0.00000  Uiso   1.00
C768   C     0.07554   0.51435   0.98507   0.00000  Uiso   1.00
C769   C     0.18495   0.48212   0.62951   0.00000  Uiso   1.00
C770   C     0.14887   0.51833   0.87071   0.00000  Uiso   1.00
C771   C     0.24380   0.46928   0.51107   0.00000  Uiso   1.00
C772   C     0.19158   0.47754   0.58159   0.00000  Uiso   1.00
C773   C     0.09267   0.52379   0.94082   0.00000  Uiso   1.00
C774   C     0.09677   0.50189   0.62053   0.00000  Uiso   1.00
C775   C     0.01159   0.55021   0.50631   0.00000  Uiso   1.00
C776   C     0.10265   0.50265   0.50832   0.00000  Uiso   1.00
C777   C     0.14755   0.50465   0.98996   0.00000  Uiso   1.00
C778   C     0.16434   0.51304   0.94452   0.00000  Uiso   1.00
C779   C     0.17570   0.49476   0.51426   0.00000  Uiso   1.00
C780   C     0.21767   0.48592   0.99024   0.00000  Uiso   1.00
C781   C     0.23401   0.49564   0.94610   0.00000  Uiso   1.00
C782   C     0.20852   0.51155   0.92449   0.00000  Uiso   1.00
H783   H     0.25136   0.45206   0.57214   0.00000  Uiso   1.00
H784   H     0.01608   0.52669   0.70907   0.00000  Uiso   1.00
H785   H     0.12992   0.54688   0.57524   0.00000  Uiso   1.00
H786   H     0.06693   0.51128   0.61567   0.00000  Uiso   1.00
H787   H     0.09880   0.51324   0.65482   0.00000  Uiso   1.00
H788   H     0.09424   0.46728   0.61678   0.00000  Uiso   1.00
H789   H     0.01977   0.49807   0.53443   0.00000  Uiso   1.00
H790   H     0.30988   0.54503   0.52247   0.00000  Uiso   1.00
H791   H     0.01560   0.55968   0.97225   0.00000  Uiso   1.00
H792   H     0.02679   0.57566   0.52599   0.00000  Uiso   1.00
H793   H     0.31883   0.47422   0.79093   0.00000  Uiso   1.00
H794   H     0.20676   0.33704   0.71093   0.00000  Uiso   1.00
H795   H     0.12532   0.66470   0.78944   0.00000  Uiso   1.00
H796   H     0.26706   0.49196   0.92855   0.00000  Uiso   1.00
H797   H     0.27535   0.46145   0.99262   0.00000  Uiso   1.00
H798   H     0.07101   0.52913   0.92158   0.00000  Uiso   1.00
H799   H     0.08777   0.49008   0.53995   0.00000  Uiso   1.00
H800   H     0.22370   0.52138   0.89139   0.00000  Uiso   1.00
N801   N     0.13415   0.52072   0.58869   0.00000  Uiso   1.00
N802   N     0.03032   0.51218   0.50475   0.00000  Uiso   1.00
O803   O     0.16667   0.50000   0.75000   0.00000  Uiso   1.00
O804   O     0.15451   0.45970   0.65459   0.00000  Uiso   1.00
O805   O     0.12940   0.53724   0.84968   0.00000  Uiso   1.00
O806   O     0.20824   0.51092   0.64606   0.00000  Uiso   1.00
O807   O     0.17451   0.49213   0.84968   0.00000  Uiso   1.00
O808   O     0.17930   0.41352   0.78214   0.00000  Uiso   1.00
O809   O     0.14632   0.59418   0.77014   0.00000  Uiso   1.00
O810   O     0.07412   0.46625   0.73413   0.00000  Uiso   1.00
O811   O     0.26693   0.52605   0.71361   0.00000  Uiso   1.00
O812   O     0.07071   0.52211   0.78213   0.00000  Uiso   1.00
O813   O     0.25491   0.48559   0.77014   0.00000  Uiso   1.00
O814   O     0.13760   0.40277   0.73413   0.00000  Uiso   1.00
O815   O     0.20345   0.58953   0.71361   0.00000  Uiso   1.00
Zn816  Zn    0.19338   0.47327   0.78734   0.00000  Uiso   1.00
Zn817  Zn    0.13379   0.45791   0.71876   0.00000  Uiso   1.00
Zn818  Zn    0.21056   0.53109   0.70657   0.00000  Uiso   1.00
Zn819  Zn    0.12893   0.53773   0.78734   0.00000  Uiso   1.00
C820   C     0.38611   0.49315   0.75992   0.00000  Uiso   1.00
C821   C     0.49786   0.49460   0.56152   0.00000  Uiso   1.00
C822   C     0.56346   0.46383   0.55622   0.00000  Uiso   1.00
C823   C     0.61415   0.50715   0.73989   0.00000  Uiso   1.00
C824   C     0.46954   0.52102   0.91966   0.00000  Uiso   1.00
C825   C     0.66016   0.50966   0.73549   0.00000  Uiso   1.00
C826   C     0.34077   0.49097   0.76394   0.00000  Uiso   1.00
C827   C     0.51378   0.65584   0.73632   0.00000  Uiso   1.00
C828   C     0.48526   0.34512   0.76385   0.00000  Uiso   1.00
C829   C     0.48953   0.38925   0.76013   0.00000  Uiso   1.00
C830   C     0.50992   0.61127   0.74012   0.00000  Uiso   1.00
C831   C     0.40888   0.51435   0.98507   0.00000  Uiso   1.00
C832   C     0.51829   0.48212   0.62951   0.00000  Uiso   1.00
C833   C     0.48220   0.51833   0.87071   0.00000  Uiso   1.00
C834   C     0.57714   0.46928   0.51107   0.00000  Uiso   1.00
C835   C     0.52491   0.47754   0.58159   0.00000  Uiso   1.00
C836   C     0.42600   0.52379   0.94082   0.00000  Uiso   1.00
C837   C     0.43011   0.50189   0.62053   0.00000  Uiso   1.00
C838   C     0.34493   0.55021   0.50631   0.00000  Uiso   1.00
C839   C     0.43598   0.50265   0.50832   0.00000  Uiso   1.00
C840   C     0.48089   0.50465   0.98996   0.00000  Uiso   1.00
C841   C     0.49768   0.51304   0.94452   0.00000  Uiso   1.00
C842   C     0.50904   0.49476   0.51426   0.00000  Uiso   1.00
C843   C     0.55100   0.48592   0.99024   0.00000  Uiso   1.00
C844   C     0.56734   0.49564   0.94610   0.00000  Uiso   1.00
C845   C     0.54186   0.51155   0.92449   0.00000  Uiso   1.00
H846   H     0.58469   0.45206   0.57214   0.00000  Uiso   1.00
H847   H     0.34941   0.52669   0.70907   0.00000  Uiso   1.00
H848   H     0.46325   0.54688   0.57524   0.00000  Uiso   1.00
H849   H     0.40026   0.51128   0.61567   0.00000  Uiso   1.00
H850   H     0.43213   0.51324   0.65482   0.00000  Uiso   1.00
H851   H     0.42758   0.46728   0.61678   0.00000  Uiso   1.00
H852   H     0.35311   0.49807   0.53443   0.00000  Uiso   1.00
H853   H     0.64321   0.54503   0.52247   0.00000  Uiso   1.00
H854   H     0.34893   0.55968   0.97225   0.00000  Uiso   1.00
H855   H     0.36013   0.57566   0.52599   0.00000  Uiso   1.00
H856   H     0.65216   0.47422   0.79093   0.00000  Uiso   1.00
H857   H     0.54010   0.33704   0.71093   0.00000  Uiso   1.00
H858   H     0.45865   0.66470   0.78944   0.00000  Uiso   1.00
H859   H     0.60039   0.49196   0.92855   0.00000  Uiso   1.00
H860   H     0.60868   0.46145   0.99262   0.00000  Uiso   1.00
H861   H     0.40434   0.52913   0.92158   0.00000  Uiso   1.00
H862   H     0.42110   0.49008   0.53995   0.00000  Uiso   1.00
H863   H     0.55704   0.52138   0.89139   0.00000  Uiso   1.00
N864   N     0.46748   0.52072   0.58869   0.00000  Uiso   1.00
N865   N     0.36365   0.51218   0.50475   0.00000  Uiso   1.00
O866   O     0.50000   0.50000   0.75000   0.00000  Uiso   1.00
O867   O     0.48784   0.45970   0.65459   0.00000  Uiso   1.00
O868   O     0.46274   0.53724   0.84968   0.00000  Uiso   1.00
O869   O     0.54157   0.51092   0.64606   0.00000  Uiso   1.00
O870   O     0.50785   0.49213   0.84968   0.00000  Uiso   1.00
O871   O     0.51264   0.41352   0.78214   0.00000  Uiso   1.00
O872   O     0.47965   0.59418   0.77014   0.00000  Uiso   1.00
O873   O     0.40745   0.46625   0.73413   0.00000  Uiso   1.00
O874   O     0.60026   0.52605   0.71361   0.00000  Uiso   1.00
O875   O     0.40405   0.52211   0.78213   0.00000  Uiso   1.00
O876   O     0.58824   0.48559   0.77014   0.00000  Uiso   1.00
O877   O     0.47093   0.40277   0.73413   0.00000  Uiso   1.00
O878   O     0.53678   0.58953   0.71361   0.00000  Uiso   1.00
Zn879  Zn    0.52672   0.47327   0.78734   0.00000  Uiso   1.00
Zn880  Zn    0.46713   0.45791   0.71876   0.00000  Uiso   1.00
Zn881  Zn    0.54389   0.53109   0.70657   0.00000  Uiso   1.00
Zn882  Zn    0.46226   0.53773   0.78734   0.00000  Uiso   1.00
C883   C     0.71944   0.49315   0.75992   0.00000  Uiso   1.00
C884   C     0.83119   0.49460   0.56152   0.00000  Uiso   1.00
C885   C     0.89679   0.46383   0.55622   0.00000  Uiso   1.00
C886   C     0.94748   0.50715   0.73989   0.00000  Uiso   1.00
C887   C     0.80287   0.52102   0.91966   0.00000  Uiso   1.00
C888   C     0.99349   0.50966   0.73549   0.00000  Uiso   1.00
C889   C     0.67410   0.49097   0.76394   0.00000  Uiso   1.00
C890   C     0.84711   0.65584   0.73632   0.00000  Uiso   1.00
C891   C     0.81859   0.34512   0.76385   0.00000  Uiso   1.00
C892   C     0.82286   0.38925   0.76013   0.00000  Uiso   1.00
C893   C     0.84325   0.61127   0.74012   0.00000  Uiso   1.00
C894   C     0.74221   0.51435   0.98507   0.00000  Uiso   1.00
C895   C     0.85162   0.48212   0.62951   0.00000  Uiso   1.00
C896   C     0.81554   0.51833   0.87071   0.00000  Uiso   1.00
C897   C     0.91047   0.46928   0.51107   0.00000  Uiso   1.00
C898   C     0.85825   0.47754   0.58159   0.00000  Uiso   1.00
C899   C     0.75933   0.52379   0.94082   0.00000  Uiso   1.00
C900   C     0.76344   0.50189   0.62053   0.00000  Uiso   1.00
C901   C     0.67826   0.55021   0.50631   0.00000  Uiso   1.00
C902   C     0.76932   0.50265   0.50832   0.00000  Uiso   1.00
C903   C     0.81422   0.50465   0.98996   0.00000  Uiso   1.00
C904   C     0.83101   0.51304   0.94452   0.00000  Uiso   1.00
C905   C     0.84237   0.49476   0.51426   0.00000  Uiso   1.00
C906   C     0.88434   0.48592   0.99024   0.00000  Uiso   1.00
C907   C     0.90068   0.49564   0.94610   0.00000  Uiso   1.00
C908   C     0.87519   0.51155   0.92449   0.00000  Uiso   1.00
H909   H     0.91803   0.45206   0.57214   0.00000  Uiso   1.00
H910   H     0.68275   0.52669   0.70907   0.00000  Uiso   1.00
H911   H     0.79659   0.54688   0.57524   0.00000  Uiso   1.00
H912   H     0.73359   0.51128   0.61567   0.00000  Uiso   1.00
H913   H     0.76547   0.51324   0.65482   0.00000  Uiso   1.00
H914   H     0.76091   0.46728   0.61678   0.00000  Uiso   1.00
H915   H     0.68644   0.49807   0.53443   0.00000  Uiso   1.00
H916   H     0.97654   0.54503   0.52247   0.00000  Uiso   1.00
H917   H     0.68226   0.55968   0.97225   0.00000  Uiso   1.00
H918   H     0.69346   0.57566   0.52599   0.00000  Uiso   1.00
H919   H     0.98550   0.47422   0.79093   0.00000  Uiso   1.00
H920   H     0.87343   0.33704   0.71093   0.00000  Uiso   1.00
H921   H     0.79199   0.66470   0.78944   0.00000  Uiso   1.00
H922   H     0.93373   0.49196   0.92855   0.00000  Uiso   1.00
H923   H     0.94202   0.46145   0.99262   0.00000  Uiso   1.00
H924   H     0.73767   0.52913   0.92158   0.00000  Uiso   1.00
H925   H     0.75444   0.49008   0.53995   0.00000  Uiso   1.00
H926   H     0.89037   0.52138   0.89139   0.00000  Uiso   1.00
N927   N     0.80081   0.52072   0.58869   0.00000  Uiso   1.00
N928   N     0.69699   0.51218   0.50475   0.00000  Uiso   1.00
O929   O     0.83333   0.50000   0.75000   0.00000  Uiso   1.00
O930   O     0.82118   0.45970   0.65459   0.00000  Uiso   1.00
O931   O     0.79607   0.53724   0.84968   0.00000  Uiso   1.00
O932   O     0.87491   0.51092   0.64606   0.00000  Uiso   1.00
O933   O     0.84118   0.49213   0.84968   0.00000  Uiso   1.00
O934   O     0.84597   0.41352   0.78214   0.00000  Uiso   1.00
O935   O     0.81298   0.59418   0.77014   0.00000  Uiso   1.00
O936   O     0.74078   0.46625   0.73413   0.00000  Uiso   1.00
O937   O     0.93360   0.52605   0.71361   0.00000  Uiso   1.00
O938   O     0.73738   0.52211   0.78213   0.00000  Uiso   1.00
O939   O     0.92158   0.48559   0.77014   0.00000  Uiso   1.00
O940   O     0.80426   0.40277   0.73413   0.00000  Uiso   1.00
O941   O     0.87012   0.58953   0.71361   0.00000  Uiso   1.00
Zn942  Zn    0.86005   0.47327   0.78734   0.00000  Uiso   1.00
Zn943  Zn    0.80046   0.45791   0.71876   0.00000  Uiso   1.00
Zn944  Zn    0.87723   0.53109   0.70657   0.00000  Uiso   1.00
Zn945  Zn    0.79560   0.53773   0.78734   0.00000  Uiso   1.00
C946   C     0.05278   0.82649   0.75992   0.00000  Uiso   1.00
C947   C     0.16453   0.82793   0.56152   0.00000  Uiso   1.00
C948   C     0.23012   0.79716   0.55622   0.00000  Uiso   1.00
C949   C     0.28082   0.84049   0.73989   0.00000  Uiso   1.00
C950   C     0.13621   0.85435   0.91966   0.00000  Uiso   1.00
C951   C     0.32683   0.84299   0.73549   0.00000  Uiso   1.00
C952   C     0.00743   0.82431   0.76394   0.00000  Uiso   1.00
C953   C     0.18044   0.98917   0.73632   0.00000  Uiso   1.00
C954   C     0.15192   0.67845   0.76385   0.00000  Uiso   1.00
C955   C     0.15620   0.72258   0.76013   0.00000  Uiso   1.00
C956   C     0.17659   0.94460   0.74012   0.00000  Uiso   1.00
C957   C     0.07554   0.84768   0.98507   0.00000  Uiso   1.00
C958   C     0.18495   0.81545   0.62951   0.00000  Uiso   1.00
C959   C     0.14887   0.85167   0.87071   0.00000  Uiso   1.00
C960   C     0.24380   0.80261   0.51107   0.00000  Uiso   1.00
C961   C     0.19158   0.81088   0.58159   0.00000  Uiso   1.00
C962   C     0.09267   0.85712   0.94082   0.00000  Uiso   1.00
C963   C     0.09677   0.83523   0.62053   0.00000  Uiso   1.00
C964   C     0.01159   0.88354   0.50631   0.00000  Uiso   1.00
C965   C     0.10265   0.83599   0.50832   0.00000  Uiso   1.00
C966   C     0.14755   0.83798   0.98996   0.00000  Uiso   1.00
C967   C     0.16434   0.84637   0.94452   0.00000  Uiso   1.00
C968   C     0.17570   0.82809   0.51426   0.00000  Uiso   1.00
C969   C     0.21767   0.81926   0.99024   0.00000  Uiso   1.00
C970   C     0.23401   0.82898   0.94610   0.00000  Uiso   1.00
C971   C     0.20852   0.84488   0.92449   0.00000  Uiso   1.00
H972   H     0.25136   0.78539   0.57214   0.00000  Uiso   1.00
H973   H     0.01608   0.86002   0.70907   0.00000  Uiso   1.00
H974   H     0.12992   0.88021   0.57524   0.00000  Uiso   1.00
H975   H     0.06693   0.84462   0.61567   0.00000  Uiso   1.00
H976   H     0.09880   0.84658   0.65482   0.00000  Uiso   1.00
H977   H     0.09424   0.80061   0.61678   0.00000  Uiso   1.00
H978   H     0.01977   0.83141   0.53443   0.00000  Uiso   1.00
H979   H     0.30988   0.87836   0.52247   0.00000  Uiso   1.00
H980   H     0.01560   0.89301   0.97225   0.00000  Uiso   1.00
H981   H     0.02679   0.90900   0.52599   0.00000  Uiso   1.00
H982   H     0.31883   0.80756   0.79093   0.00000  Uiso   1.00
H983   H     0.20676   0.67037   0.71093   0.00000  Uiso   1.00
H984   H     0.12532   0.99803   0.78944   0.00000  Uiso   1.00
H985   H     0.26706   0.82529   0.92855   0.00000  Uiso   1.00
H986   H     0.27535   0.79478   0.99262   0.00000  Uiso   1.00
H987   H     0.07101   0.86247   0.92158   0.00000  Uiso   1.00
H988   H     0.08777   0.82341   0.53995   0.00000  Uiso   1.00
H989   H     0.22370   0.85471   0.89139   0.00000  Uiso   1.00
N990   N     0.13415   0.85406   0.58869   0.00000  Uiso   1.00
N991   N     0.03032   0.84551   0.50475   0.00000  Uiso   1.00
O992   O     0.16667   0.83333   0.75000   0.00000  Uiso   1.00
O993   O     0.15451   0.79304   0.65459   0.00000  Uiso   1.00
O994   O     0.12940   0.87058   0.84968   0.00000  Uiso   1.00
O995   O     0.20824   0.84425   0.64606   0.00000  Uiso   1.00
O996   O     0.17451   0.82546   0.84968   0.00000  Uiso   1.00
O997   O     0.17930   0.74686   0.78214   0.00000  Uiso   1.00
O998   O     0.14632   0.92751   0.77014   0.00000  Uiso   1.00
O999   O     0.07412   0.79958   0.73413   0.00000  Uiso   1.00
O1000  O     0.26693   0.85939   0.71361   0.00000  Uiso   1.00
O1001  O     0.07071   0.85544   0.78213   0.00000  Uiso   1.00
O1002  O     0.25491   0.81892   0.77014   0.00000  Uiso   1.00
O1003  O     0.13760   0.73610   0.73413   0.00000  Uiso   1.00
O1004  O     0.20345   0.92286   0.71361   0.00000  Uiso   1.00
Zn1005 Zn    0.19338   0.80661   0.78734   0.00000  Uiso   1.00
Zn1006 Zn    0.13379   0.79124   0.71876   0.00000  Uiso   1.00
Zn1007 Zn    0.21056   0.86442   0.70657   0.00000  Uiso   1.00
Zn1008 Zn    0.12893   0.87106   0.78734   0.00000  Uiso   1.00
C1009  C     0.38611   0.82649   0.75992   0.00000  Uiso   1.00
C1010  C     0.49786   0.82793   0.56152   0.00000  Uiso   1.00
C1011  C     0.56346   0.79716   0.55622   0.00000  Uiso   1.00
C1012  C     0.61415   0.84049   0.73989   0.00000  Uiso   1.00
C1013  C     0.46954   0.85435   0.91966   0.00000  Uiso   1.00
C1014  C     0.66016   0.84299   0.73549   0.00000  Uiso   1.00
C1015  C     0.34077   0.82431   0.76394   0.00000  Uiso   1.00
C1016  C     0.51378   0.98917   0.73632   0.00000  Uiso   1.00
C1017  C     0.48526   0.67845   0.76385   0.00000  Uiso   1.00
C1018  C     0.48953   0.72258   0.76013   0.00000  Uiso   1.00
C1019  C     0.50992   0.94460   0.74012   0.00000  Uiso   1.00
C1020  C     0.40888   0.84768   0.98507   0.00000  Uiso   1.00
C1021  C     0.51829   0.81545   0.62951   0.00000  Uiso   1.00
C1022  C     0.48220   0.85167   0.87071   0.00000  Uiso   1.00
C1023  C     0.57714   0.80261   0.51107   0.00000  Uiso   1.00
C1024  C     0.52491   0.81088   0.58159   0.00000  Uiso   1.00
C1025  C     0.42600   0.85712   0.94082   0.00000  Uiso   1.00
C1026  C     0.43011   0.83523   0.62053   0.00000  Uiso   1.00
C1027  C     0.34493   0.88354   0.50631   0.00000  Uiso   1.00
C1028  C     0.43598   0.83599   0.50832   0.00000  Uiso   1.00
C1029  C     0.48089   0.83798   0.98996   0.00000  Uiso   1.00
C1030  C     0.49768   0.84637   0.94452   0.00000  Uiso   1.00
C1031  C     0.50904   0.82809   0.51426   0.00000  Uiso   1.00
C1032  C     0.55100   0.81926   0.99024   0.00000  Uiso   1.00
C1033  C     0.56734   0.82898   0.94610   0.00000  Uiso   1.00
C1034  C     0.54186   0.84488   0.92449   0.00000  Uiso   1.00
H1035  H     0.58469   0.78539   0.57214   0.00000  Uiso   1.00
H1036  H     0.34941   0.86002   0.70907   0.00000  Uiso   1.00
H1037  H     0.46325   0.88021   0.57524   0.00000  Uiso   1.00
H1038  H     0.40026   0.84462   0.61567   0.00000  Uiso   1.00
H1039  H     0.43213   0.84658   0.65482   0.00000  Uiso   1.00
H1040  H     0.42758   0.80061   0.61678   0.00000  Uiso   1.00
H1041  H     0.35311   0.83141   0.53443   0.00000  Uiso   1.00
H1042  H     0.64321   0.87836   0.52247   0.00000  Uiso   1.00
H1043  H     0.34893   0.89301   0.97225   0.00000  Uiso   1.00
H1044  H     0.36013   0.90900   0.52599   0.00000  Uiso   1.00
H1045  H     0.65216   0.80756   0.79093   0.00000  Uiso   1.00
H1046  H     0.54010   0.67037   0.71093   0.00000  Uiso   1.00
H1047  H     0.45865   0.99803   0.78944   0.00000  Uiso   1.00
H1048  H     0.60039   0.82529   0.92855   0.00000  Uiso   1.00
H1049  H     0.60868   0.79478   0.99262   0.00000  Uiso   1.00
H1050  H     0.40434   0.86247   0.92158   0.00000  Uiso   1.00
H1051  H     0.42110   0.82341   0.53995   0.00000  Uiso   1.00
H1052  H     0.55704   0.85471   0.89139   0.00000  Uiso   1.00
N1053  N     0.46748   0.85406   0.58869   0.00000  Uiso   1.00
N1054  N     0.36365   0.84551   0.50475   0.00000  Uiso   1.00
O1055  O     0.50000   0.83333   0.75000   0.00000  Uiso   1.00
O1056  O     0.48784   0.79304   0.65459   0.00000  Uiso   1.00
O1057  O     0.46274   0.87058   0.84968   0.00000  Uiso   1.00
O1058  O     0.54157   0.84425   0.64606   0.00000  Uiso   1.00
O1059  O     0.50785   0.82546   0.84968   0.00000  Uiso   1.00
O1060  O     0.51264   0.74686   0.78214   0.00000  Uiso   1.00
O1061  O     0.47965   0.92751   0.77014   0.00000  Uiso   1.00
O1062  O     0.40745   0.79958   0.73413   0.00000  Uiso   1.00
O1063  O     0.60026   0.85939   0.71361   0.00000  Uiso   1.00
O1064  O     0.40405   0.85544   0.78213   0.00000  Uiso   1.00
O1065  O     0.58824   0.81892   0.77014   0.00000  Uiso   1.00
O1066  O     0.47093   0.73610   0.73413   0.00000  Uiso   1.00
O1067  O     0.53678   0.92286   0.71361   0.00000  Uiso   1.00
Zn1068 Zn    0.52672   0.80661   0.78734   0.00000  Uiso   1.00
Zn1069 Zn    0.46713   0.79124   0.71876   0.00000  Uiso   1.00
Zn1070 Zn    0.54389   0.86442   0.70657   0.00000  Uiso   1.00
Zn1071 Zn    0.46226   0.87106   0.78734   0.00000  Uiso   1.00
C1072  C     0.71944   0.82649   0.75992   0.00000  Uiso   1.00
C1073  C     0.83119   0.82793   0.56152   0.00000  Uiso   1.00
C1074  C     0.89679   0.79716   0.55622   0.00000  Uiso   1.00
C1075  C     0.94748   0.84049   0.73989   0.00000  Uiso   1.00
C1076  C     0.80287   0.85435   0.91966   0.00000  Uiso   1.00
C1077  C     0.99349   0.84299   0.73549   0.00000  Uiso   1.00
C1078  C     0.67410   0.82431   0.76394   0.00000  Uiso   1.00
C1079  C     0.84711   0.98917   0.73632   0.00000  Uiso   1.00
C1080  C     0.81859   0.67845   0.76385   0.00000  Uiso   1.00
C1081  C     0.82286   0.72258   0.76013   0.00000  Uiso   1.00
C1082  C     0.84325   0.94460   0.74012   0.00000  Uiso   1.00
C1083  C     0.74221   0.84768   0.98507   0.00000  Uiso   1.00
C1084  C     0.85162   0.81545   0.62951   0.00000  Uiso   1.00
C1085  C     0.81554   0.85167   0.87071   0.00000  Uiso   1.00
C1086  C     0.91047   0.80261   0.51107   0.00000  Uiso   1.00
C1087  C     0.85825   0.81088   0.58159   0.00000  Uiso   1.00
C1088  C     0.75933   0.85712   0.94082   0.00000  Uiso   1.00
C1089  C     0.76344   0.83523   0.62053   0.00000  Uiso   1.00
C1090  C     0.67826   0.88354   0.50631   0.00000  Uiso   1.00
C1091  C     0.76932   0.83599   0.50832   0.00000  Uiso   1.00
C1092  C     0.81422   0.83798   0.98996   0.00000  Uiso   1.00
C1093  C     0.83101   0.84637   0.94452   0.00000  Uiso   1.00
C1094  C     0.84237   0.82809   0.51426   0.00000  Uiso   1.00
C1095  C     0.88434   0.81926   0.99024   0.00000  Uiso   1.00
C1096  C     0.90068   0.82898   0.94610   0.00000  Uiso   1.00
C1097  C     0.87519   0.84488   0.92449   0.00000  Uiso   1.00
H1098  H     0.91803   0.78539   0.57214   0.00000  Uiso   1.00
H1099  H     0.68275   0.86002   0.70907   0.00000  Uiso   1.00
H1100  H     0.79659   0.88021   0.57524   0.00000  Uiso   1.00
H1101  H     0.73359   0.84462   0.61567   0.00000  Uiso   1.00
H1102  H     0.76547   0.84658   0.65482   0.00000  Uiso   1.00
H1103  H     0.76091   0.80061   0.61678   0.00000  Uiso   1.00
H1104  H     0.68644   0.83141   0.53443   0.00000  Uiso   1.00
H1105  H     0.97654   0.87836   0.52247   0.00000  Uiso   1.00
H1106  H     0.68226   0.89301   0.97225   0.00000  Uiso   1.00
H1107  H     0.69346   0.90900   0.52599   0.00000  Uiso   1.00
H1108  H     0.98550   0.80756   0.79093   0.00000  Uiso   1.00
H1109  H     0.87343   0.67037   0.71093   0.00000  Uiso   1.00
H1110  H     0.79199   0.99803   0.78944   0.00000  Uiso   1.00
H1111  H     0.93373   0.82529   0.92855   0.00000  Uiso   1.00
H1112  H     0.94202   0.79478   0.99262   0.00000  Uiso   1.00
H1113  H     0.73767   0.86247   0.92158   0.00000  Uiso   1.00
H1114  H     0.75444   0.82341   0.53995   0.00000  Uiso   1.00
H1115  H     0.89037   0.85471   0.89139   0.00000  Uiso   1.00
N1116  N     0.80081   0.85406   0.58869   0.00000  Uiso   1.00
N1117  N     0.69699   0.84551   0.50475   0.00000  Uiso   1.00
O1118  O     0.83333   0.83333   0.75000   0.00000  Uiso   1.00
O1119  O     0.82118   0.79304   0.65459   0.00000  Uiso   1.00
O1120  O     0.79607   0.87058   0.84968   0.00000  Uiso   1.00
O1121  O     0.87491   0.84425   0.64606   0.00000  Uiso   1.00
O1122  O     0.84118   0.82546   0.84968   0.00000  Uiso   1.00
O1123  O     0.84597   0.74686   0.78214   0.00000  Uiso   1.00
O1124  O     0.81298   0.92751   0.77014   0.00000  Uiso   1.00
O1125  O     0.74078   0.79958   0.73413   0.00000  Uiso   1.00
O1126  O     0.93360   0.85939   0.71361   0.00000  Uiso   1.00
O1127  O     0.73738   0.85544   0.78213   0.00000  Uiso   1.00
O1128  O     0.92158   0.81892   0.77014   0.00000  Uiso   1.00
O1129  O     0.80426   0.73610   0.73413   0.00000  Uiso   1.00
O1130  O     0.87012   0.92286   0.71361   0.00000  Uiso   1.00
Zn1131 Zn    0.86005   0.80661   0.78734   0.00000  Uiso   1.00
Zn1132 Zn    0.80046   0.79124   0.71876   0.00000  Uiso   1.00
Zn1133 Zn    0.87723   0.86442   0.70657   0.00000  Uiso   1.00
Zn1134 Zn    0.79560   0.87106   0.78734   0.00000  Uiso   1.00
loop_
_geom_bond_atom_site_label_1
_geom_bond_atom_site_label_2
_geom_bond_distance
_geom_bond_site_symmetry_2
_ccdc_geom_bond_type
C1     O54     1.272   .     A
C1     O56     1.271   .     A
C1     C7      1.436   .     S
C2     C16     1.411   .     A
C2     N45     1.434   .     S
C2     C23     1.423   .     A
C3     H27     1.084   .     S
C3     C16     1.396   .     A
C3     C15     1.384   .     A
C4     O57     1.280   .     A
C4     O55     1.284   .     A
C4     C6      1.455   .     S
C5     C14     1.470   .     S
C5     C17     1.403   .     A
C5     C22     1.415   .     A
C6     C70     1.335   .     S
C6     H91     1.088   .     S
C7     C132    1.335   1_455 S
C7     H163    1.086   1_455 S
C8     C11     1.451   .     S
C8     C198    1.332   .     S
C8     H227    1.088   .     S
C9     C10     1.436   .     S
C9     C386    1.332   1_545 S
C9     H417    1.086   1_545 S
C10    O52     1.281   .     A
C10    O58     1.281   .     A
C11    O53     1.270   .     A
C11    O59     1.270   .     A
C12    C17     1.395   .     A
C12    C587    1.397   .     S
C12    N613    1.427   .     S
C13    O48     1.273   .     A
C13    O50     1.268   .     A
C13    C16     1.448   .     S
C14    O51     1.282   .     A
C14    O49     1.280   .     A
C15    C591    1.396   1_554 S
C15    H608    1.084   1_554 S
C17    H42     1.083   .     S
C18    H30     1.111   .     S
C18    N45     1.451   .     S
C18    H32     1.112   .     S
C18    H31     1.110   .     S
C19    N46     1.448   .     S
C19    H36     1.111   .     S
C19    H160    1.111   1_455 S
C19    H602    1.110   1_554 S
C20    H43     1.073   .     S
C20    C579    1.397   1_554 S
C20    C588    1.412   1_554 S
C21    C22     1.419   .     A
C21    C587    1.412   .     S
C21    C590    1.425   .     S
C22    C26     1.409   .     A
C23    C588    1.425   1_554 S
C23    C591    1.423   1_554 S
C24    C25     1.392   .     A
C24    C582    1.396   .     S
C24    C590    1.423   .     S
C25    C26     1.384   .     A
C25    H40     1.084   .     S
C26    H44     1.081   .     S
H28    C132    1.088   1_455 S
H29    N45     1.031   .     S
H33    N46     1.032   .     S
H34    C82     1.111   .     S
H35    C586    1.110   .     S
H37    C70     1.086   .     S
H38    C386    1.088   1_545 S
H39    C198    1.086   .     S
H41    C582    1.084   .     S
N46    C579    1.427   1_554 S
O47    Zn61    1.948   .     S
O47    Zn62    1.933   .     S
O47    Zn63    1.931   .     S
O47    Zn60    1.965   .     S
O48    Zn61    1.941   .     S
O49    Zn63    1.954   .     S
O50    Zn62    1.948   .     S
O51    Zn60    1.937   .     S
O52    Zn60    1.928   .     S
O53    Zn63    1.930   .     S
O54    Zn61    1.921   .     S
O55    Zn62    1.935   .     S
O56    Zn63    1.930   .     S
O57    Zn60    1.918   .     S
O58    Zn61    1.936   .     S
O59    Zn62    1.929   .     S
C64    O117    1.272   .     A
C64    O119    1.271   .     A
C64    C70     1.436   .     S
C65    C79     1.411   .     A
C65    N108    1.434   .     S
C65    C86     1.423   .     A
C66    H90     1.084   .     S
C66    C79     1.396   .     A
C66    C78     1.384   .     A
C67    O120    1.280   .     A
C67    O118    1.284   .     A
C67    C69     1.455   .     S
C68    C77     1.470   .     S
C68    C80     1.403   .     A
C68    C85     1.415   .     A
C69    C133    1.335   .     S
C69    H154    1.088   .     S
C71    C74     1.451   .     S
C71    C261    1.332   .     S
C71    H290    1.088   .     S
C72    C73     1.436   .     S
C72    C449    1.332   1_545 S
C72    H480    1.086   1_545 S
C73    O115    1.281   .     A
C73    O121    1.281   .     A
C74    O116    1.270   .     A
C74    O122    1.270   .     A
C75    C80     1.395   .     A
C75    C650    1.397   .     S
C75    N676    1.427   .     S
C76    O111    1.273   .     A
C76    O113    1.268   .     A
C76    C79     1.448   .     S
C77    O114    1.282   .     A
C77    O112    1.280   .     A
C78    C654    1.396   1_554 S
C78    H671    1.084   1_554 S
C80    H105    1.083   .     S
C81    H93     1.111   .     S
C81    N108    1.451   .     S
C81    H95     1.112   .     S
C81    H94     1.110   .     S
C82    N109    1.448   .     S
C82    H99     1.111   .     S
C82    H665    1.110   1_554 S
C83    H106    1.073   .     S
C83    C642    1.397   1_554 S
C83    C651    1.412   1_554 S
C84    C85     1.419   .     A
C84    C650    1.412   .     S
C84    C653    1.425   .     S
C85    C89     1.409   .     A
C86    C651    1.425   1_554 S
C86    C654    1.423   1_554 S
C87    C88     1.392   .     A
C87    C645    1.396   .     S
C87    C653    1.423   .     S
C88    C89     1.384   .     A
C88    H103    1.084   .     S
C89    H107    1.081   .     S
H92    N108    1.031   .     S
H96    N109    1.032   .     S
H97    C145    1.111   .     S
H98    C649    1.110   .     S
H100   C133    1.086   .     S
H101   C449    1.088   1_545 S
H102   C261    1.086   .     S
H104   C645    1.084   .     S
N109   C642    1.427   1_554 S
O110   Zn124   1.948   .     S
O110   Zn125   1.933   .     S
O110   Zn126   1.931   .     S
O110   Zn123   1.965   .     S
O111   Zn124   1.941   .     S
O112   Zn126   1.954   .     S
O113   Zn125   1.948   .     S
O114   Zn123   1.937   .     S
O115   Zn123   1.928   .     S
O116   Zn126   1.930   .     S
O117   Zn124   1.921   .     S
O118   Zn125   1.935   .     S
O119   Zn126   1.930   .     S
O120   Zn123   1.918   .     S
O121   Zn124   1.936   .     S
O122   Zn125   1.929   .     S
C127   O180    1.272   .     A
C127   O182    1.271   .     A
C127   C133    1.436   .     S
C128   C142    1.411   .     A
C128   N171    1.434   .     S
C128   C149    1.423   .     A
C129   H153    1.084   .     S
C129   C142    1.396   .     A
C129   C141    1.384   .     A
C130   O183    1.280   .     A
C130   O181    1.284   .     A
C130   C132    1.455   .     S
C131   C140    1.470   .     S
C131   C143    1.403   .     A
C131   C148    1.415   .     A
C132   C7      1.335   1_655 S
C132   H28     1.088   1_655 S
C134   C137    1.451   .     S
C134   C324    1.332   .     S
C134   H353    1.088   .     S
C135   C136    1.436   .     S
C135   C512    1.332   1_545 S
C135   H543    1.086   1_545 S
C136   O178    1.281   .     A
C136   O184    1.281   .     A
C137   O179    1.270   .     A
C137   O185    1.270   .     A
C138   C143    1.395   .     A
C138   C713    1.397   .     S
C138   N739    1.427   .     S
C139   O174    1.273   .     A
C139   O176    1.268   .     A
C139   C142    1.448   .     S
C140   O177    1.282   .     A
C140   O175    1.280   .     A
C141   C717    1.396   1_554 S
C141   H734    1.084   1_554 S
C143   H168    1.083   .     S
C144   H156    1.111   .     S
C144   N171    1.451   .     S
C144   H158    1.112   .     S
C144   H157    1.110   .     S
C145   N172    1.448   .     S
C145   H162    1.111   .     S
C145   H728    1.110   1_554 S
C146   H169    1.073   .     S
C146   C705    1.397   1_554 S
C146   C714    1.412   1_554 S
C147   C148    1.419   .     A
C147   C713    1.412   .     S
C147   C716    1.425   .     S
C148   C152    1.409   .     A
C149   C714    1.425   1_554 S
C149   C717    1.423   1_554 S
C150   C151    1.392   .     A
C150   C708    1.396   .     S
C150   C716    1.423   .     S
C151   C152    1.384   .     A
C151   H166    1.084   .     S
C152   H170    1.081   .     S
H155   N171    1.031   .     S
H159   N172    1.032   .     S
H160   C19     1.111   1_655 S
H161   C712    1.110   .     S
H163   C7      1.086   1_655 S
H164   C512    1.088   1_545 S
H165   C324    1.086   .     S
H167   C708    1.084   .     S
N172   C705    1.427   1_554 S
O173   Zn187   1.948   .     S
O173   Zn188   1.933   .     S
O173   Zn189   1.931   .     S
O173   Zn186   1.965   .     S
O174   Zn187   1.941   .     S
O175   Zn189   1.954   .     S
O176   Zn188   1.948   .     S
O177   Zn186   1.937   .     S
O178   Zn186   1.928   .     S
O179   Zn189   1.930   .     S
O180   Zn187   1.921   .     S
O181   Zn188   1.935   .     S
O182   Zn189   1.930   .     S
O183   Zn186   1.918   .     S
O184   Zn187   1.936   .     S
O185   Zn188   1.929   .     S
C190   O243    1.272   .     A
C190   O245    1.271   .     A
C190   C196    1.436   .     S
C191   C205    1.411   .     A
C191   N234    1.434   .     S
C191   C212    1.423   .     A
C192   H216    1.084   .     S
C192   C205    1.396   .     A
C192   C204    1.384   .     A
C193   O246    1.280   .     A
C193   O244    1.284   .     A
C193   C195    1.455   .     S
C194   C203    1.470   .     S
C194   C206    1.403   .     A
C194   C211    1.415   .     A
C195   C259    1.335   .     S
C195   H280    1.088   .     S
C196   C321    1.335   1_455 S
C196   H352    1.086   1_455 S
C197   C200    1.451   .     S
C197   C387    1.332   .     S
C197   H416    1.088   .     S
C198   C199    1.436   .     S
C199   O241    1.281   .     A
C199   O247    1.281   .     A
C200   O242    1.270   .     A
C200   O248    1.270   .     A
C201   C206    1.395   .     A
C201   C776    1.397   .     S
C201   N802    1.427   .     S
C202   O237    1.273   .     A
C202   O239    1.268   .     A
C202   C205    1.448   .     S
C203   O240    1.282   .     A
C203   O238    1.280   .     A
C204   C780    1.396   1_554 S
C204   H797    1.084   1_554 S
C206   H231    1.083   .     S
C207   H219    1.111   .     S
C207   N234    1.451   .     S
C207   H221    1.112   .     S
C207   H220    1.110   .     S
C208   N235    1.448   .     S
C208   H225    1.111   .     S
C208   H349    1.111   1_455 S
C208   H791    1.110   1_554 S
C209   H232    1.073   .     S
C209   C768    1.397   1_554 S
C209   C777    1.412   1_554 S
C210   C211    1.419   .     A
C210   C776    1.412   .     S
C210   C779    1.425   .     S
C211   C215    1.409   .     A
C212   C777    1.425   1_554 S
C212   C780    1.423   1_554 S
C213   C214    1.392   .     A
C213   C771    1.396   .     S
C213   C779    1.423   .     S
C214   C215    1.384   .     A
C214   H229    1.084   .     S
C215   H233    1.081   .     S
H217   C321    1.088   1_455 S
H218   N234    1.031   .     S
H222   N235    1.032   .     S
H223   C271    1.111   .     S
H224   C775    1.110   .     S
H226   C259    1.086   .     S
H228   C387    1.086   .     S
H230   C771    1.084   .     S
N235   C768    1.427   1_554 S
O236   Zn250   1.948   .     S
O236   Zn251   1.933   .     S
O236   Zn252   1.931   .     S
O236   Zn249   1.965   .     S
O237   Zn250   1.941   .     S
O238   Zn252   1.954   .     S
O239   Zn251   1.948   .     S
O240   Zn249   1.937   .     S
O241   Zn249   1.928   .     S
O242   Zn252   1.930   .     S
O243   Zn250   1.921   .     S
O244   Zn251   1.935   .     S
O245   Zn252   1.930   .     S
O246   Zn249   1.918   .     S
O247   Zn250   1.936   .     S
O248   Zn251   1.929   .     S
C253   O306    1.272   .     A
C253   O308    1.271   .     A
C253   C259    1.436   .     S
C254   C268    1.411   .     A
C254   N297    1.434   .     S
C254   C275    1.423   .     A
C255   H279    1.084   .     S
C255   C268    1.396   .     A
C255   C267    1.384   .     A
C256   O309    1.280   .     A
C256   O307    1.284   .     A
C256   C258    1.455   .     S
C257   C266    1.470   .     S
C257   C269    1.403   .     A
C257   C274    1.415   .     A
C258   C322    1.335   .     S
C258   H343    1.088   .     S
C260   C263    1.451   .     S
C260   C450    1.332   .     S
C260   H479    1.088   .     S
C261   C262    1.436   .     S
C262   O304    1.281   .     A
C262   O310    1.281   .     A
C263   O305    1.270   .     A
C263   O311    1.270   .     A
C264   C269    1.395   .     A
C264   C839    1.397   .     S
C264   N865    1.427   .     S
C265   O300    1.273   .     A
C265   O302    1.268   .     A
C265   C268    1.448   .     S
C266   O303    1.282   .     A
C266   O301    1.280   .     A
C267   C843    1.396   1_554 S
C267   H860    1.084   1_554 S
C269   H294    1.083   .     S
C270   H282    1.111   .     S
C270   N297    1.451   .     S
C270   H284    1.112   .     S
C270   H283    1.110   .     S
C271   N298    1.448   .     S
C271   H288    1.111   .     S
C271   H854    1.110   1_554 S
C272   H295    1.073   .     S
C272   C831    1.397   1_554 S
C272   C840    1.412   1_554 S
C273   C274    1.419   .     A
C273   C839    1.412   .     S
C273   C842    1.425   .     S
C274   C278    1.409   .     A
C275   C840    1.425   1_554 S
C275   C843    1.423   1_554 S
C276   C277    1.392   .     A
C276   C834    1.396   .     S
C276   C842    1.423   .     S
C277   C278    1.384   .     A
C277   H292    1.084   .     S
C278   H296    1.081   .     S
H281   N297    1.031   .     S
H285   N298    1.032   .     S
H286   C334    1.111   .     S
H287   C838    1.110   .     S
H289   C322    1.086   .     S
H291   C450    1.086   .     S
H293   C834    1.084   .     S
N298   C831    1.427   1_554 S
O299   Zn313   1.948   .     S
O299   Zn314   1.933   .     S
O299   Zn315   1.931   .     S
O299   Zn312   1.965   .     S
O300   Zn313   1.941   .     S
O301   Zn315   1.954   .     S
O302   Zn314   1.948   .     S
O303   Zn312   1.937   .     S
O304   Zn312   1.928   .     S
O305   Zn315   1.930   .     S
O306   Zn313   1.921   .     S
O307   Zn314   1.935   .     S
O308   Zn315   1.930   .     S
O309   Zn312   1.918   .     S
O310   Zn313   1.936   .     S
O311   Zn314   1.929   .     S
C316   O369    1.272   .     A
C316   O371    1.271   .     A
C316   C322    1.436   .     S
C317   C331    1.411   .     A
C317   N360    1.434   .     S
C317   C338    1.423   .     A
C318   H342    1.084   .     S
C318   C331    1.396   .     A
C318   C330    1.384   .     A
C319   O372    1.280   .     A
C319   O370    1.284   .     A
C319   C321    1.455   .     S
C320   C329    1.470   .     S
C320   C332    1.403   .     A
C320   C337    1.415   .     A
C321   C196    1.335   1_655 S
C321   H217    1.088   1_655 S
C323   C326    1.451   .     S
C323   C513    1.332   .     S
C323   H542    1.088   .     S
C324   C325    1.436   .     S
C325   O367    1.281   .     A
C325   O373    1.281   .     A
C326   O368    1.270   .     A
C326   O374    1.270   .     A
C327   C332    1.395   .     A
C327   C902    1.397   .     S
C327   N928    1.427   .     S
C328   O363    1.273   .     A
C328   O365    1.268   .     A
C328   C331    1.448   .     S
C329   O366    1.282   .     A
C329   O364    1.280   .     A
C330   C906    1.396   1_554 S
C330   H923    1.084   1_554 S
C332   H357    1.083   .     S
C333   H345    1.111   .     S
C333   N360    1.451   .     S
C333   H347    1.112   .     S
C333   H346    1.110   .     S
C334   N361    1.448   .     S
C334   H351    1.111   .     S
C334   H917    1.110   1_554 S
C335   H358    1.073   .     S
C335   C894    1.397   1_554 S
C335   C903    1.412   1_554 S
C336   C337    1.419   .     A
C336   C902    1.412   .     S
C336   C905    1.425   .     S
C337   C341    1.409   .     A
C338   C903    1.425   1_554 S
C338   C906    1.423   1_554 S
C339   C340    1.392   .     A
C339   C897    1.396   .     S
C339   C905    1.423   .     S
C340   C341    1.384   .     A
C340   H355    1.084   .     S
C341   H359    1.081   .     S
H344   N360    1.031   .     S
H348   N361    1.032   .     S
H349   C208    1.111   1_655 S
H350   C901    1.110   .     S
H352   C196    1.086   1_655 S
H354   C513    1.086   .     S
H356   C897    1.084   .     S
N361   C894    1.427   1_554 S
O362   Zn376   1.948   .     S
O362   Zn377   1.933   .     S
O362   Zn378   1.931   .     S
O362   Zn375   1.965   .     S
O363   Zn376   1.941   .     S
O364   Zn378   1.954   .     S
O365   Zn377   1.948   .     S
O366   Zn375   1.937   .     S
O367   Zn375   1.928   .     S
O368   Zn378   1.930   .     S
O369   Zn376   1.921   .     S
O370   Zn377   1.935   .     S
O371   Zn378   1.930   .     S
O372   Zn375   1.918   .     S
O373   Zn376   1.936   .     S
O374   Zn377   1.929   .     S
C379   O432    1.272   .     A
C379   O434    1.271   .     A
C379   C385    1.436   .     S
C380   C394    1.411   .     A
C380   N423    1.434   .     S
C380   C401    1.423   .     A
C381   H405    1.084   .     S
C381   C394    1.396   .     A
C381   C393    1.384   .     A
C382   O435    1.280   .     A
C382   O433    1.284   .     A
C382   C384    1.455   .     S
C383   C392    1.470   .     S
C383   C395    1.403   .     A
C383   C400    1.415   .     A
C384   C448    1.335   .     S
C384   H469    1.088   .     S
C385   C510    1.335   1_455 S
C385   H541    1.086   1_455 S
C386   C389    1.451   .     S
C386   C9      1.332   1_565 S
C386   H38     1.088   1_565 S
C387   C388    1.436   .     S
C388   O430    1.281   .     A
C388   O436    1.281   .     A
C389   O431    1.270   .     A
C389   O437    1.270   .     A
C390   C395    1.395   .     A
C390   C965    1.397   .     S
C390   N991    1.427   .     S
C391   O426    1.273   .     A
C391   O428    1.268   .     A
C391   C394    1.448   .     S
C392   O429    1.282   .     A
C392   O427    1.280   .     A
C393   C969    1.396   1_554 S
C393   H986    1.084   1_554 S
C395   H420    1.083   .     S
C396   H408    1.111   .     S
C396   N423    1.451   .     S
C396   H410    1.112   .     S
C396   H409    1.110   .     S
C397   N424    1.448   .     S
C397   H414    1.111   .     S
C397   H538    1.111   1_455 S
C397   H980    1.110   1_554 S
C398   H421    1.073   .     S
C398   C957    1.397   1_554 S
C398   C966    1.412   1_554 S
C399   C400    1.419   .     A
C399   C965    1.412   .     S
C399   C968    1.425   .     S
C400   C404    1.409   .     A
C401   C966    1.425   1_554 S
C401   C969    1.423   1_554 S
C402   C403    1.392   .     A
C402   C960    1.396   .     S
C402   C968    1.423   .     S
C403   C404    1.384   .     A
C403   H418    1.084   .     S
C404   H422    1.081   .     S
H406   C510    1.088   1_455 S
H407   N423    1.031   .     S
H411   N424    1.032   .     S
H412   C460    1.111   .     S
H413   C964    1.110   .     S
H415   C448    1.086   .     S
H417   C9      1.086   1_565 S
H419   C960    1.084   .     S
N424   C957    1.427   1_554 S
O425   Zn439   1.948   .     S
O425   Zn440   1.933   .     S
O425   Zn441   1.931   .     S
O425   Zn438   1.965   .     S
O426   Zn439   1.941   .     S
O427   Zn441   1.954   .     S
O428   Zn440   1.948   .     S
O429   Zn438   1.937   .     S
O430   Zn438   1.928   .     S
O431   Zn441   1.930   .     S
O432   Zn439   1.921   .     S
O433   Zn440   1.935   .     S
O434   Zn441   1.930   .     S
O435   Zn438   1.918   .     S
O436   Zn439   1.936   .     S
O437   Zn440   1.929   .     S
C442   O495    1.272   .     A
C442   O497    1.271   .     A
C442   C448    1.436   .     S
C443   C457    1.411   .     A
C443   N486    1.434   .     S
C443   C464    1.423   .     A
C444   H468    1.084   .     S
C444   C457    1.396   .     A
C444   C456    1.384   .     A
C445   O498    1.280   .     A
C445   O496    1.284   .     A
C445   C447    1.455   .     S
C446   C455    1.470   .     S
C446   C458    1.403   .     A
C446   C463    1.415   .     A
C447   C511    1.335   .     S
C447   H532    1.088   .     S
C449   C452    1.451   .     S
C449   C72     1.332   1_565 S
C449   H101    1.088   1_565 S
C450   C451    1.436   .     S
C451   O493    1.281   .     A
C451   O499    1.281   .     A
C452   O494    1.270   .     A
C452   O500    1.270   .     A
C453   C458    1.395   .     A
C453   C1028   1.397   .     S
C453   N1054   1.427   .     S
C454   O489    1.273   .     A
C454   O491    1.268   .     A
C454   C457    1.448   .     S
C455   O492    1.282   .     A
C455   O490    1.280   .     A
C456   C1032   1.396   1_554 S
C456   H1049   1.084   1_554 S
C458   H483    1.083   .     S
C459   H471    1.111   .     S
C459   N486    1.451   .     S
C459   H473    1.112   .     S
C459   H472    1.110   .     S
C460   N487    1.448   .     S
C460   H477    1.111   .     S
C460   H1043   1.110   1_554 S
C461   H484    1.073   .     S
C461   C1020   1.397   1_554 S
C461   C1029   1.412   1_554 S
C462   C463    1.419   .     A
C462   C1028   1.412   .     S
C462   C1031   1.425   .     S
C463   C467    1.409   .     A
C464   C1029   1.425   1_554 S
C464   C1032   1.423   1_554 S
C465   C466    1.392   .     A
C465   C1023   1.396   .     S
C465   C1031   1.423   .     S
C466   C467    1.384   .     A
C466   H481    1.084   .     S
C467   H485    1.081   .     S
H470   N486    1.031   .     S
H474   N487    1.032   .     S
H475   C523    1.111   .     S
H476   C1027   1.110   .     S
H478   C511    1.086   .     S
H480   C72     1.086   1_565 S
H482   C1023   1.084   .     S
N487   C1020   1.427   1_554 S
O488   Zn502   1.948   .     S
O488   Zn503   1.933   .     S
O488   Zn504   1.931   .     S
O488   Zn501   1.965   .     S
O489   Zn502   1.941   .     S
O490   Zn504   1.954   .     S
O491   Zn503   1.948   .     S
O492   Zn501   1.937   .     S
O493   Zn501   1.928   .     S
O494   Zn504   1.930   .     S
O495   Zn502   1.921   .     S
O496   Zn503   1.935   .     S
O497   Zn504   1.930   .     S
O498   Zn501   1.918   .     S
O499   Zn502   1.936   .     S
O500   Zn503   1.929   .     S
C505   O558    1.272   .     A
C505   O560    1.271   .     A
C505   C511    1.436   .     S
C506   C520    1.411   .     A
C506   N549    1.434   .     S
C506   C527    1.423   .     A
C507   H531    1.084   .     S
C507   C520    1.396   .     A
C507   C519    1.384   .     A
C508   O561    1.280   .     A
C508   O559    1.284   .     A
C508   C510    1.455   .     S
C509   C518    1.470   .     S
C509   C521    1.403   .     A
C509   C526    1.415   .     A
C510   C385    1.335   1_655 S
C510   H406    1.088   1_655 S
C512   C515    1.451   .     S
C512   C135    1.332   1_565 S
C512   H164    1.088   1_565 S
C513   C514    1.436   .     S
C514   O556    1.281   .     A
C514   O562    1.281   .     A
C515   O557    1.270   .     A
C515   O563    1.270   .     A
C516   C521    1.395   .     A
C516   C1091   1.397   .     S
C516   N1117   1.427   .     S
C517   O552    1.273   .     A
C517   O554    1.268   .     A
C517   C520    1.448   .     S
C518   O555    1.282   .     A
C518   O553    1.280   .     A
C519   C1095   1.396   1_554 S
C519   H1112   1.084   1_554 S
C521   H546    1.083   .     S
C522   H534    1.111   .     S
C522   N549    1.451   .     S
C522   H536    1.112   .     S
C522   H535    1.110   .     S
C523   N550    1.448   .     S
C523   H540    1.111   .     S
C523   H1106   1.110   1_554 S
C524   H547    1.073   .     S
C524   C1083   1.397   1_554 S
C524   C1092   1.412   1_554 S
C525   C526    1.419   .     A
C525   C1091   1.412   .     S
C525   C1094   1.425   .     S
C526   C530    1.409   .     A
C527   C1092   1.425   1_554 S
C527   C1095   1.423   1_554 S
C528   C529    1.392   .     A
C528   C1086   1.396   .     S
C528   C1094   1.423   .     S
C529   C530    1.384   .     A
C529   H544    1.084   .     S
C530   H548    1.081   .     S
H533   N549    1.031   .     S
H537   N550    1.032   .     S
H538   C397    1.111   1_655 S
H539   C1090   1.110   .     S
H541   C385    1.086   1_655 S
H543   C135    1.086   1_565 S
H545   C1086   1.084   .     S
N550   C1083   1.427   1_554 S
O551   Zn565   1.948   .     S
O551   Zn566   1.933   .     S
O551   Zn567   1.931   .     S
O551   Zn564   1.965   .     S
O552   Zn565   1.941   .     S
O553   Zn567   1.954   .     S
O554   Zn566   1.948   .     S
O555   Zn564   1.937   .     S
O556   Zn564   1.928   .     S
O557   Zn567   1.930   .     S
O558   Zn565   1.921   .     S
O559   Zn566   1.935   .     S
O560   Zn567   1.930   .     S
O561   Zn564   1.918   .     S
O562   Zn565   1.936   .     S
O563   Zn566   1.929   .     S
C568   O621    1.272   .     A
C568   O623    1.271   .     A
C568   C574    1.436   .     S
C569   C583    1.411   .     A
C569   N612    1.434   .     S
C569   C590    1.423   .     A
C570   H594    1.084   .     S
C570   C583    1.396   .     A
C570   C582    1.384   .     A
C571   O624    1.280   .     A
C571   O622    1.284   .     A
C571   C573    1.455   .     S
C572   C581    1.470   .     S
C572   C584    1.403   .     A
C572   C589    1.415   .     A
C573   C637    1.335   .     S
C573   H658    1.088   .     S
C574   C699    1.335   1_455 S
C574   H730    1.086   1_455 S
C575   C578    1.451   .     S
C575   C765    1.332   .     S
C575   H794    1.088   .     S
C576   C577    1.436   .     S
C576   C953    1.332   1_545 S
C576   H984    1.086   1_545 S
C577   O619    1.281   .     A
C577   O625    1.281   .     A
C578   O620    1.270   .     A
C578   O626    1.270   .     A
C579   C584    1.395   .     A
C579   C20     1.397   1_556 S
C579   N46     1.427   1_556 S
C580   O615    1.273   .     A
C580   O617    1.268   .     A
C580   C583    1.448   .     S
C581   O618    1.282   .     A
C581   O616    1.280   .     A
C584   H609    1.083   .     S
C585   H597    1.111   .     S
C585   N612    1.451   .     S
C585   H599    1.112   .     S
C585   H598    1.110   .     S
C586   N613    1.448   .     S
C586   H603    1.111   .     S
C586   H727    1.111   1_455 S
C587   H610    1.073   .     S
C588   C589    1.419   .     A
C588   C20     1.412   1_556 S
C588   C23     1.425   1_556 S
C589   C593    1.409   .     A
C591   C592    1.392   .     A
C591   C15     1.396   1_556 S
C591   C23     1.423   1_556 S
C592   C593    1.384   .     A
C592   H607    1.084   .     S
C593   H611    1.081   .     S
H595   C699    1.088   1_455 S
H596   N612    1.031   .     S
H600   N613    1.032   .     S
H601   C649    1.111   .     S
H602   C19     1.110   1_556 S
H604   C637    1.086   .     S
H605   C953    1.088   1_545 S
H606   C765    1.086   .     S
H608   C15     1.084   1_556 S
O614   Zn628   1.948   .     S
O614   Zn629   1.933   .     S
O614   Zn630   1.931   .     S
O614   Zn627   1.965   .     S
O615   Zn628   1.941   .     S
O616   Zn630   1.954   .     S
O617   Zn629   1.948   .     S
O618   Zn627   1.937   .     S
O619   Zn627   1.928   .     S
O620   Zn630   1.930   .     S
O621   Zn628   1.921   .     S
O622   Zn629   1.935   .     S
O623   Zn630   1.930   .     S
O624   Zn627   1.918   .     S
O625   Zn628   1.936   .     S
O626   Zn629   1.929   .     S
C631   O684    1.272   .     A
C631   O686    1.271   .     A
C631   C637    1.436   .     S
C632   C646    1.411   .     A
C632   N675    1.434   .     S
C632   C653    1.423   .     A
C633   H657    1.084   .     S
C633   C646    1.396   .     A
C633   C645    1.384   .     A
C634   O687    1.280   .     A
C634   O685    1.284   .     A
C634   C636    1.455   .     S
C635   C644    1.470   .     S
C635   C647    1.403   .     A
C635   C652    1.415   .     A
C636   C700    1.335   .     S
C636   H721    1.088   .     S
C638   C641    1.451   .     S
C638   C828    1.332   .     S
C638   H857    1.088   .     S
C639   C640    1.436   .     S
C639   C1016   1.332   1_545 S
C639   H1047   1.086   1_545 S
C640   O682    1.281   .     A
C640   O688    1.281   .     A
C641   O683    1.270   .     A
C641   O689    1.270   .     A
C642   C647    1.395   .     A
C642   C83     1.397   1_556 S
C642   N109    1.427   1_556 S
C643   O678    1.273   .     A
C643   O680    1.268   .     A
C643   C646    1.448   .     S
C644   O681    1.282   .     A
C644   O679    1.280   .     A
C647   H672    1.083   .     S
C648   H660    1.111   .     S
C648   N675    1.451   .     S
C648   H662    1.112   .     S
C648   H661    1.110   .     S
C649   N676    1.448   .     S
C649   H666    1.111   .     S
C650   H673    1.073   .     S
C651   C652    1.419   .     A
C651   C83     1.412   1_556 S
C651   C86     1.425   1_556 S
C652   C656    1.409   .     A
C654   C655    1.392   .     A
C654   C78     1.396   1_556 S
C654   C86     1.423   1_556 S
C655   C656    1.384   .     A
C655   H670    1.084   .     S
C656   H674    1.081   .     S
H659   N675    1.031   .     S
H663   N676    1.032   .     S
H664   C712    1.111   .     S
H665   C82     1.110   1_556 S
H667   C700    1.086   .     S
H668   C1016   1.088   1_545 S
H669   C828    1.086   .     S
H671   C78     1.084   1_556 S
O677   Zn691   1.948   .     S
O677   Zn692   1.933   .     S
O677   Zn693   1.931   .     S
O677   Zn690   1.965   .     S
O678   Zn691   1.941   .     S
O679   Zn693   1.954   .     S
O680   Zn692   1.948   .     S
O681   Zn690   1.937   .     S
O682   Zn690   1.928   .     S
O683   Zn693   1.930   .     S
O684   Zn691   1.921   .     S
O685   Zn692   1.935   .     S
O686   Zn693   1.930   .     S
O687   Zn690   1.918   .     S
O688   Zn691   1.936   .     S
O689   Zn692   1.929   .     S
C694   O747    1.272   .     A
C694   O749    1.271   .     A
C694   C700    1.436   .     S
C695   C709    1.411   .     A
C695   N738    1.434   .     S
C695   C716    1.423   .     A
C696   H720    1.084   .     S
C696   C709    1.396   .     A
C696   C708    1.384   .     A
C697   O750    1.280   .     A
C697   O748    1.284   .     A
C697   C699    1.455   .     S
C698   C707    1.470   .     S
C698   C710    1.403   .     A
C698   C715    1.415   .     A
C699   C574    1.335   1_655 S
C699   H595    1.088   1_655 S
C701   C704    1.451   .     S
C701   C891    1.332   .     S
C701   H920    1.088   .     S
C702   C703    1.436   .     S
C702   C1079   1.332   1_545 S
C702   H1110   1.086   1_545 S
C703   O745    1.281   .     A
C703   O751    1.281   .     A
C704   O746    1.270   .     A
C704   O752    1.270   .     A
C705   C710    1.395   .     A
C705   C146    1.397   1_556 S
C705   N172    1.427   1_556 S
C706   O741    1.273   .     A
C706   O743    1.268   .     A
C706   C709    1.448   .     S
C707   O744    1.282   .     A
C707   O742    1.280   .     A
C710   H735    1.083   .     S
C711   H723    1.111   .     S
C711   N738    1.451   .     S
C711   H725    1.112   .     S
C711   H724    1.110   .     S
C712   N739    1.448   .     S
C712   H729    1.111   .     S
C713   H736    1.073   .     S
C714   C715    1.419   .     A
C714   C146    1.412   1_556 S
C714   C149    1.425   1_556 S
C715   C719    1.409   .     A
C717   C718    1.392   .     A
C717   C141    1.396   1_556 S
C717   C149    1.423   1_556 S
C718   C719    1.384   .     A
C718   H733    1.084   .     S
C719   H737    1.081   .     S
H722   N738    1.031   .     S
H726   N739    1.032   .     S
H727   C586    1.111   1_655 S
H728   C145    1.110   1_556 S
H730   C574    1.086   1_655 S
H731   C1079   1.088   1_545 S
H732   C891    1.086   .     S
H734   C141    1.084   1_556 S
O740   Zn754   1.948   .     S
O740   Zn755   1.933   .     S
O740   Zn756   1.931   .     S
O740   Zn753   1.965   .     S
O741   Zn754   1.941   .     S
O742   Zn756   1.954   .     S
O743   Zn755   1.948   .     S
O744   Zn753   1.937   .     S
O745   Zn753   1.928   .     S
O746   Zn756   1.930   .     S
O747   Zn754   1.921   .     S
O748   Zn755   1.935   .     S
O749   Zn756   1.930   .     S
O750   Zn753   1.918   .     S
O751   Zn754   1.936   .     S
O752   Zn755   1.929   .     S
C757   O810    1.272   .     A
C757   O812    1.271   .     A
C757   C763    1.436   .     S
C758   C772    1.411   .     A
C758   N801    1.434   .     S
C758   C779    1.423   .     A
C759   H783    1.084   .     S
C759   C772    1.396   .     A
C759   C771    1.384   .     A
C760   O813    1.280   .     A
C760   O811    1.284   .     A
C760   C762    1.455   .     S
C761   C770    1.470   .     S
C761   C773    1.403   .     A
C761   C778    1.415   .     A
C762   C826    1.335   .     S
C762   H847    1.088   .     S
C763   C888    1.335   1_455 S
C763   H919    1.086   1_455 S
C764   C767    1.451   .     S
C764   C954    1.332   .     S
C764   H983    1.088   .     S
C765   C766    1.436   .     S
C766   O808    1.281   .     A
C766   O814    1.281   .     A
C767   O809    1.270   .     A
C767   O815    1.270   .     A
C768   C773    1.395   .     A
C768   C209    1.397   1_556 S
C768   N235    1.427   1_556 S
C769   O804    1.273   .     A
C769   O806    1.268   .     A
C769   C772    1.448   .     S
C770   O807    1.282   .     A
C770   O805    1.280   .     A
C773   H798    1.083   .     S
C774   H786    1.111   .     S
C774   N801    1.451   .     S
C774   H788    1.112   .     S
C774   H787    1.110   .     S
C775   N802    1.448   .     S
C775   H792    1.111   .     S
C775   H916    1.111   1_455 S
C776   H799    1.073   .     S
C777   C778    1.419   .     A
C777   C209    1.412   1_556 S
C777   C212    1.425   1_556 S
C778   C782    1.409   .     A
C780   C781    1.392   .     A
C780   C204    1.396   1_556 S
C780   C212    1.423   1_556 S
C781   C782    1.384   .     A
C781   H796    1.084   .     S
C782   H800    1.081   .     S
H784   C888    1.088   1_455 S
H785   N801    1.031   .     S
H789   N802    1.032   .     S
H790   C838    1.111   .     S
H791   C208    1.110   1_556 S
H793   C826    1.086   .     S
H795   C954    1.086   .     S
H797   C204    1.084   1_556 S
O803   Zn817   1.948   .     S
O803   Zn818   1.933   .     S
O803   Zn819   1.931   .     S
O803   Zn816   1.965   .     S
O804   Zn817   1.941   .     S
O805   Zn819   1.954   .     S
O806   Zn818   1.948   .     S
O807   Zn816   1.937   .     S
O808   Zn816   1.928   .     S
O809   Zn819   1.930   .     S
O810   Zn817   1.921   .     S
O811   Zn818   1.935   .     S
O812   Zn819   1.930   .     S
O813   Zn816   1.918   .     S
O814   Zn817   1.936   .     S
O815   Zn818   1.929   .     S
C820   O873    1.272   .     A
C820   O875    1.271   .     A
C820   C826    1.436   .     S
C821   C835    1.411   .     A
C821   N864    1.434   .     S
C821   C842    1.423   .     A
C822   H846    1.084   .     S
C822   C835    1.396   .     A
C822   C834    1.384   .     A
C823   O876    1.280   .     A
C823   O874    1.284   .     A
C823   C825    1.455   .     S
C824   C833    1.470   .     S
C824   C836    1.403   .     A
C824   C841    1.415   .     A
C825   C889    1.335   .     S
C825   H910    1.088   .     S
C827   C830    1.451   .     S
C827   C1017   1.332   .     S
C827   H1046   1.088   .     S
C828   C829    1.436   .     S
C829   O871    1.281   .     A
C829   O877    1.281   .     A
C830   O872    1.270   .     A
C830   O878    1.270   .     A
C831   C836    1.395   .     A
C831   C272    1.397   1_556 S
C831   N298    1.427   1_556 S
C832   O867    1.273   .     A
C832   O869    1.268   .     A
C832   C835    1.448   .     S
C833   O870    1.282   .     A
C833   O868    1.280   .     A
C836   H861    1.083   .     S
C837   H849    1.111   .     S
C837   N864    1.451   .     S
C837   H851    1.112   .     S
C837   H850    1.110   .     S
C838   N865    1.448   .     S
C838   H855    1.111   .     S
C839   H862    1.073   .     S
C840   C841    1.419   .     A
C840   C272    1.412   1_556 S
C840   C275    1.425   1_556 S
C841   C845    1.409   .     A
C843   C844    1.392   .     A
C843   C267    1.396   1_556 S
C843   C275    1.423   1_556 S
C844   C845    1.384   .     A
C844   H859    1.084   .     S
C845   H863    1.081   .     S
H848   N864    1.031   .     S
H852   N865    1.032   .     S
H853   C901    1.111   .     S
H854   C271    1.110   1_556 S
H856   C889    1.086   .     S
H858   C1017   1.086   .     S
H860   C267    1.084   1_556 S
O866   Zn880   1.948   .     S
O866   Zn881   1.933   .     S
O866   Zn882   1.931   .     S
O866   Zn879   1.965   .     S
O867   Zn880   1.941   .     S
O868   Zn882   1.954   .     S
O869   Zn881   1.948   .     S
O870   Zn879   1.937   .     S
O871   Zn879   1.928   .     S
O872   Zn882   1.930   .     S
O873   Zn880   1.921   .     S
O874   Zn881   1.935   .     S
O875   Zn882   1.930   .     S
O876   Zn879   1.918   .     S
O877   Zn880   1.936   .     S
O878   Zn881   1.929   .     S
C883   O936    1.272   .     A
C883   O938    1.271   .     A
C883   C889    1.436   .     S
C884   C898    1.411   .     A
C884   N927    1.434   .     S
C884   C905    1.423   .     A
C885   H909    1.084   .     S
C885   C898    1.396   .     A
C885   C897    1.384   .     A
C886   O939    1.280   .     A
C886   O937    1.284   .     A
C886   C888    1.455   .     S
C887   C896    1.470   .     S
C887   C899    1.403   .     A
C887   C904    1.415   .     A
C888   C763    1.335   1_655 S
C888   H784    1.088   1_655 S
C890   C893    1.451   .     S
C890   C1080   1.332   .     S
C890   H1109   1.088   .     S
C891   C892    1.436   .     S
C892   O934    1.281   .     A
C892   O940    1.281   .     A
C893   O935    1.270   .     A
C893   O941    1.270   .     A
C894   C899    1.395   .     A
C894   C335    1.397   1_556 S
C894   N361    1.427   1_556 S
C895   O930    1.273   .     A
C895   O932    1.268   .     A
C895   C898    1.448   .     S
C896   O933    1.282   .     A
C896   O931    1.280   .     A
C899   H924    1.083   .     S
C900   H912    1.111   .     S
C900   N927    1.451   .     S
C900   H914    1.112   .     S
C900   H913    1.110   .     S
C901   N928    1.448   .     S
C901   H918    1.111   .     S
C902   H925    1.073   .     S
C903   C904    1.419   .     A
C903   C335    1.412   1_556 S
C903   C338    1.425   1_556 S
C904   C908    1.409   .     A
C906   C907    1.392   .     A
C906   C330    1.396   1_556 S
C906   C338    1.423   1_556 S
C907   C908    1.384   .     A
C907   H922    1.084   .     S
C908   H926    1.081   .     S
H911   N927    1.031   .     S
H915   N928    1.032   .     S
H916   C775    1.111   1_655 S
H917   C334    1.110   1_556 S
H919   C763    1.086   1_655 S
H921   C1080   1.086   .     S
H923   C330    1.084   1_556 S
O929   Zn943   1.948   .     S
O929   Zn944   1.933   .     S
O929   Zn945   1.931   .     S
O929   Zn942   1.965   .     S
O930   Zn943   1.941   .     S
O931   Zn945   1.954   .     S
O932   Zn944   1.948   .     S
O933   Zn942   1.937   .     S
O934   Zn942   1.928   .     S
O935   Zn945   1.930   .     S
O936   Zn943   1.921   .     S
O937   Zn944   1.935   .     S
O938   Zn945   1.930   .     S
O939   Zn942   1.918   .     S
O940   Zn943   1.936   .     S
O941   Zn944   1.929   .     S
C946   O999    1.272   .     A
C946   O1001   1.271   .     A
C946   C952    1.436   .     S
C947   C961    1.411   .     A
C947   N990    1.434   .     S
C947   C968    1.423   .     A
C948   H972    1.084   .     S
C948   C961    1.396   .     A
C948   C960    1.384   .     A
C949   O1002   1.280   .     A
C949   O1000   1.284   .     A
C949   C951    1.455   .     S
C950   C959    1.470   .     S
C950   C962    1.403   .     A
C950   C967    1.415   .     A
C951   C1015   1.335   .     S
C951   H1036   1.088   .     S
C952   C1077   1.335   1_455 S
C952   H1108   1.086   1_455 S
C953   C956    1.451   .     S
C953   C576    1.332   1_565 S
C953   H605    1.088   1_565 S
C954   C955    1.436   .     S
C955   O997    1.281   .     A
C955   O1003   1.281   .     A
C956   O998    1.270   .     A
C956   O1004   1.270   .     A
C957   C962    1.395   .     A
C957   C398    1.397   1_556 S
C957   N424    1.427   1_556 S
C958   O993    1.273   .     A
C958   O995    1.268   .     A
C958   C961    1.448   .     S
C959   O996    1.282   .     A
C959   O994    1.280   .     A
C962   H987    1.083   .     S
C963   H975    1.111   .     S
C963   N990    1.451   .     S
C963   H977    1.112   .     S
C963   H976    1.110   .     S
C964   N991    1.448   .     S
C964   H981    1.111   .     S
C964   H1105   1.111   1_455 S
C965   H988    1.073   .     S
C966   C967    1.419   .     A
C966   C398    1.412   1_556 S
C966   C401    1.425   1_556 S
C967   C971    1.409   .     A
C969   C970    1.392   .     A
C969   C393    1.396   1_556 S
C969   C401    1.423   1_556 S
C970   C971    1.384   .     A
C970   H985    1.084   .     S
C971   H989    1.081   .     S
H973   C1077   1.088   1_455 S
H974   N990    1.031   .     S
H978   N991    1.032   .     S
H979   C1027   1.111   .     S
H980   C397    1.110   1_556 S
H982   C1015   1.086   .     S
H984   C576    1.086   1_565 S
H986   C393    1.084   1_556 S
O992   Zn1006  1.948   .     S
O992   Zn1007  1.933   .     S
O992   Zn1008  1.931   .     S
O992   Zn1005  1.965   .     S
O993   Zn1006  1.941   .     S
O994   Zn1008  1.954   .     S
O995   Zn1007  1.948   .     S
O996   Zn1005  1.937   .     S
O997   Zn1005  1.928   .     S
O998   Zn1008  1.930   .     S
O999   Zn1006  1.921   .     S
O1000  Zn1007  1.935   .     S
O1001  Zn1008  1.930   .     S
O1002  Zn1005  1.918   .     S
O1003  Zn1006  1.936   .     S
O1004  Zn1007  1.929   .     S
C1009  O1062   1.272   .     A
C1009  O1064   1.271   .     A
C1009  C1015   1.436   .     S
C1010  C1024   1.411   .     A
C1010  N1053   1.434   .     S
C1010  C1031   1.423   .     A
C1011  H1035   1.084   .     S
C1011  C1024   1.396   .     A
C1011  C1023   1.384   .     A
C1012  O1065   1.280   .     A
C1012  O1063   1.284   .     A
C1012  C1014   1.455   .     S
C1013  C1022   1.470   .     S
C1013  C1025   1.403   .     A
C1013  C1030   1.415   .     A
C1014  C1078   1.335   .     S
C1014  H1099   1.088   .     S
C1016  C1019   1.451   .     S
C1016  C639    1.332   1_565 S
C1016  H668    1.088   1_565 S
C1017  C1018   1.436   .     S
C1018  O1060   1.281   .     A
C1018  O1066   1.281   .     A
C1019  O1061   1.270   .     A
C1019  O1067   1.270   .     A
C1020  C1025   1.395   .     A
C1020  C461    1.397   1_556 S
C1020  N487    1.427   1_556 S
C1021  O1056   1.273   .     A
C1021  O1058   1.268   .     A
C1021  C1024   1.448   .     S
C1022  O1059   1.282   .     A
C1022  O1057   1.280   .     A
C1025  H1050   1.083   .     S
C1026  H1038   1.111   .     S
C1026  N1053   1.451   .     S
C1026  H1040   1.112   .     S
C1026  H1039   1.110   .     S
C1027  N1054   1.448   .     S
C1027  H1044   1.111   .     S
C1028  H1051   1.073   .     S
C1029  C1030   1.419   .     A
C1029  C461    1.412   1_556 S
C1029  C464    1.425   1_556 S
C1030  C1034   1.409   .     A
C1032  C1033   1.392   .     A
C1032  C456    1.396   1_556 S
C1032  C464    1.423   1_556 S
C1033  C1034   1.384   .     A
C1033  H1048   1.084   .     S
C1034  H1052   1.081   .     S
H1037  N1053   1.031   .     S
H1041  N1054   1.032   .     S
H1042  C1090   1.111   .     S
H1043  C460    1.110   1_556 S
H1045  C1078   1.086   .     S
H1047  C639    1.086   1_565 S
H1049  C456    1.084   1_556 S
O1055  Zn1069  1.948   .     S
O1055  Zn1070  1.933   .     S
O1055  Zn1071  1.931   .     S
O1055  Zn1068  1.965   .     S
O1056  Zn1069  1.941   .     S
O1057  Zn1071  1.954   .     S
O1058  Zn1070  1.948   .     S
O1059  Zn1068  1.937   .     S
O1060  Zn1068  1.928   .     S
O1061  Zn1071  1.930   .     S
O1062  Zn1069  1.921   .     S
O1063  Zn1070  1.935   .     S
O1064  Zn1071  1.930   .     S
O1065  Zn1068  1.918   .     S
O1066  Zn1069  1.936   .     S
O1067  Zn1070  1.929   .     S
C1072  O1125   1.272   .     A
C1072  O1127   1.271   .     A
C1072  C1078   1.436   .     S
C1073  C1087   1.411   .     A
C1073  N1116   1.434   .     S
C1073  C1094   1.423   .     A
C1074  H1098   1.084   .     S
C1074  C1087   1.396   .     A
C1074  C1086   1.384   .     A
C1075  O1128   1.280   .     A
C1075  O1126   1.284   .     A
C1075  C1077   1.455   .     S
C1076  C1085   1.470   .     S
C1076  C1088   1.403   .     A
C1076  C1093   1.415   .     A
C1077  C952    1.335   1_655 S
C1077  H973    1.088   1_655 S
C1079  C1082   1.451   .     S
C1079  C702    1.332   1_565 S
C1079  H731    1.088   1_565 S
C1080  C1081   1.436   .     S
C1081  O1123   1.281   .     A
C1081  O1129   1.281   .     A
C1082  O1124   1.270   .     A
C1082  O1130   1.270   .     A
C1083  C1088   1.395   .     A
C1083  C524    1.397   1_556 S
C1083  N550    1.427   1_556 S
C1084  O1119   1.273   .     A
C1084  O1121   1.268   .     A
C1084  C1087   1.448   .     S
C1085  O1122   1.282   .     A
C1085  O1120   1.280   .     A
C1088  H1113   1.083   .     S
C1089  H1101   1.111   .     S
C1089  N1116   1.451   .     S
C1089  H1103   1.112   .     S
C1089  H1102   1.110   .     S
C1090  N1117   1.448   .     S
C1090  H1107   1.111   .     S
C1091  H1114   1.073   .     S
C1092  C1093   1.419   .     A
C1092  C524    1.412   1_556 S
C1092  C527    1.425   1_556 S
C1093  C1097   1.409   .     A
C1095  C1096   1.392   .     A
C1095  C519    1.396   1_556 S
C1095  C527    1.423   1_556 S
C1096  C1097   1.384   .     A
C1096  H1111   1.084   .     S
C1097  H1115   1.081   .     S
H1100  N1116   1.031   .     S
H1104  N1117   1.032   .     S
H1105  C964    1.111   1_655 S
H1106  C523    1.110   1_556 S
H1108  C952    1.086   1_655 S
H1110  C702    1.086   1_565 S
H1112  C519    1.084   1_556 S
O1118  Zn1132  1.948   .     S
O1118  Zn1133  1.933   .     S
O1118  Zn1134  1.931   .     S
O1118  Zn1131  1.965   .     S
O1119  Zn1132  1.941   .     S
O1120  Zn1134  1.954   .     S
O1121  Zn1133  1.948   .     S
O1122  Zn1131  1.937   .     S
O1123  Zn1131  1.928   .     S
O1124  Zn1134  1.930   .     S
O1125  Zn1132  1.921   .     S
O1126  Zn1133  1.935   .     S
O1127  Zn1134  1.930   .     S
O1128  Zn1131  1.918   .     S
O1129  Zn1132  1.936   .     S
O1130  Zn1133  1.929   .     S
