data_str_m1_o10_o18_pcu_sym.196
_audit_creation_date              2020-01-03
_audit_creation_method            'Materials Studio'
_symmetry_space_group_name_H-M    'P1'
_symmetry_Int_Tables_number       1
_symmetry_cell_setting            triclinic
loop_
_symmetry_equiv_pos_as_xyz
  x,y,z
_cell_length_a                    32.5860
_cell_length_b                    32.7599
_cell_length_c                    35.6227
_cell_angle_alpha                 98.4166
_cell_angle_beta                  72.5206
_cell_angle_gamma                 99.0930
loop_
_atom_site_label
_atom_site_type_symbol
_atom_site_fract_x
_atom_site_fract_y
_atom_site_fract_z
_atom_site_U_iso_or_equiv
_atom_site_adp_type
_atom_site_occupancy
C1     C     0.05240   0.15961   0.25911   0.00000  Uiso   1.00
C2     C     0.17943   0.11872   0.46436   0.00000  Uiso   1.00
C3     C     0.20334   0.09912   0.48227   0.00000  Uiso   1.00
C4     C     0.28125   0.17368   0.24084   0.00000  Uiso   1.00
C5     C     0.20679   0.11521   0.02028   0.00000  Uiso   1.00
C6     C     0.18711   0.15130   0.03967   0.00000  Uiso   1.00
C7     C     0.22553   0.09346   0.04122   0.00000  Uiso   1.00
C8     C     0.22109   0.10453   0.08129   0.00000  Uiso   1.00
C9     C     0.18011   0.15955   0.08084   0.00000  Uiso   1.00
C10    C     0.32787   0.17647   0.23581   0.00000  Uiso   1.00
C11    C     0.00741   0.15824   0.26115   0.00000  Uiso   1.00
C12    C     0.10509   0.22180   0.42181   0.00000  Uiso   1.00
C13    C     0.18353   0.32335   0.24018   0.00000  Uiso   1.00
C14    C     0.15034   0.01236   0.26061   0.00000  Uiso   1.00
C15    C     0.15549   0.05640   0.25893   0.00000  Uiso   1.00
C16    C     0.17747   0.27798   0.24159   0.00000  Uiso   1.00
C17    C     0.18814   0.14549   0.14393   0.00000  Uiso   1.00
C18    C     0.14558   0.18794   0.35618   0.00000  Uiso   1.00
C19    C     0.13679   0.19679   0.39944   0.00000  Uiso   1.00
C20    C     0.19727   0.13679   0.10126   0.00000  Uiso   1.00
C21    C     0.09852   0.23106   0.46275   0.00000  Uiso   1.00
C22    C     0.12151   0.27697   0.03339   0.00000  Uiso   1.00
C23    C     0.15916   0.17821   0.41879   0.00000  Uiso   1.00
C24    C     0.02616   0.19919   0.20219   0.00000  Uiso   1.00
C25    C     0.02331   0.24615   0.20972   0.00000  Uiso   1.00
C26    C     0.06001   0.26992   0.18028   0.00000  Uiso   1.00
C27    C     0.22699   0.01335   0.21775   0.00000  Uiso   1.00
C28    C     0.26502   0.32141   0.19698   0.00000  Uiso   1.00
C29    C     0.30615   0.01641   0.17901   0.00000  Uiso   1.00
C30    C     0.10495   0.32860   0.27951   0.00000  Uiso   1.00
C31    C     0.22091   0.05945   0.46354   0.00000  Uiso   1.00
C32    C     0.06056   0.25297   0.48496   0.00000  Uiso   1.00
C33    C     0.18906   0.24656   0.05631   0.00000  Uiso   1.00
C34    C     0.14993   0.18338   0.46016   0.00000  Uiso   1.00
C35    C     0.16371   0.26445   0.09792   0.00000  Uiso   1.00
C36    C     0.19161   0.27278   0.12647   0.00000  Uiso   1.00
C37    C     0.16283   0.09489   0.43184   0.00000  Uiso   1.00
C38    C     0.12564   0.21589   0.48118   0.00000  Uiso   1.00
C39    C     0.16708   0.15915   0.48055   0.00000  Uiso   1.00
C40    C     0.17143   0.17594   0.01844   0.00000  Uiso   1.00
C41    C     0.16128   0.21743   0.03309   0.00000  Uiso   1.00
C42    C     0.13389   0.23497   0.01702   0.00000  Uiso   1.00
H43    H     0.24199   0.06655   0.02752   0.00000  Uiso   1.00
H44    H     0.05728   0.30374   0.18683   0.00000  Uiso   1.00
H45    H     0.32540   0.25285   0.20700   0.00000  Uiso   1.00
H46    H     0.02476   0.25754   0.24025   0.00000  Uiso   1.00
H47    H     0.06012   0.19372   0.19787   0.00000  Uiso   1.00
H48    H     0.01844   0.18674   0.17402   0.00000  Uiso   1.00
H49    H     0.30066   0.03452   0.15728   0.00000  Uiso   1.00
H50    H     0.31620   0.03818   0.20253   0.00000  Uiso   1.00
H51    H     0.33275   0.33061   0.16347   0.00000  Uiso   1.00
H52    H     0.27174   0.30413   0.21868   0.00000  Uiso   1.00
H53    H     0.25723   0.29937   0.17257   0.00000  Uiso   1.00
H54    H     0.31754   0.14239   0.28495   0.00000  Uiso   1.00
H55    H     0.22087   0.02977   0.19510   0.00000  Uiso   1.00
H56    H     0.23819   0.03722   0.23929   0.00000  Uiso   1.00
H57    H     0.08743   0.00972   0.30801   0.00000  Uiso   1.00
H58    H     0.25509   0.05713   0.45818   0.00000  Uiso   1.00
H59    H     0.04856   0.27332   0.47027   0.00000  Uiso   1.00
H60    H     0.20157   0.24337   0.13079   0.00000  Uiso   1.00
H61    H     0.22099   0.29464   0.11476   0.00000  Uiso   1.00
H62    H     0.17286   0.28692   0.15560   0.00000  Uiso   1.00
H63    H     0.15349   0.29468   0.09614   0.00000  Uiso   1.00
H64    H     0.13407   0.24331   0.11037   0.00000  Uiso   1.00
H65    H     0.15934   0.18219   0.09783   0.00000  Uiso   1.00
H66    H     0.21634   0.23113   0.05801   0.00000  Uiso   1.00
H67    H     0.20547   0.27301   0.03881   0.00000  Uiso   1.00
H68    H     0.12950   0.09569   0.43232   0.00000  Uiso   1.00
H69    H     0.23449   0.08669   0.09711   0.00000  Uiso   1.00
H70    H     0.08526   0.23392   0.40747   0.00000  Uiso   1.00
H71    H     0.18503   0.16058   0.40119   0.00000  Uiso   1.00
H72    H     0.10219   0.28233   0.06387   0.00000  Uiso   1.00
H73    H     0.09188   0.26452   0.18269   0.00000  Uiso   1.00
H74    H     0.05815   0.25982   0.14962   0.00000  Uiso   1.00
O75    O     0.16667   0.16667   0.25000   0.00000  Uiso   1.00
O76    O     0.15693   0.12393   0.16625   0.00000  Uiso   1.00
O77    O     0.12687   0.20646   0.33749   0.00000  Uiso   1.00
O78    O     0.21088   0.17493   0.15877   0.00000  Uiso   1.00
O79    O     0.17198   0.16135   0.33749   0.00000  Uiso   1.00
O80    O     0.13276   0.30572   0.01281   0.00000  Uiso   1.00
O81    O     0.08580   0.30087   0.26213   0.00000  Uiso   1.00
O82    O     0.19709   0.02875   0.45580   0.00000  Uiso   1.00
O83    O     0.04080   0.24667   0.01902   0.00000  Uiso   1.00
O84    O     0.18656   0.07626   0.40346   0.00000  Uiso   1.00
O85    O     0.17849   0.08101   0.27821   0.00000  Uiso   1.00
O86    O     0.14581   0.26136   0.26767   0.00000  Uiso   1.00
O87    O     0.07452   0.13251   0.23607   0.00000  Uiso   1.00
O88    O     0.26785   0.19179   0.21806   0.00000  Uiso   1.00
O89    O     0.06990   0.18960   0.27820   0.00000  Uiso   1.00
O90    O     0.25440   0.15277   0.26768   0.00000  Uiso   1.00
O91    O     0.13800   0.06903   0.23607   0.00000  Uiso   1.00
O92    O     0.20437   0.25527   0.21806   0.00000  Uiso   1.00
Zn93   Zn    0.19244   0.14090   0.28278   0.00000  Uiso   1.00
Zn94   Zn    0.13459   0.12378   0.22258   0.00000  Uiso   1.00
Zn95   Zn    0.21166   0.19664   0.21188   0.00000  Uiso   1.00
Zn96   Zn    0.12798   0.20535   0.28277   0.00000  Uiso   1.00
C97    C     0.38574   0.15961   0.25911   0.00000  Uiso   1.00
C98    C     0.51276   0.11872   0.46436   0.00000  Uiso   1.00
C99    C     0.53667   0.09912   0.48227   0.00000  Uiso   1.00
C100   C     0.61458   0.17368   0.24084   0.00000  Uiso   1.00
C101   C     0.54012   0.11521   0.02028   0.00000  Uiso   1.00
C102   C     0.52044   0.15130   0.03967   0.00000  Uiso   1.00
C103   C     0.55886   0.09346   0.04122   0.00000  Uiso   1.00
C104   C     0.55442   0.10453   0.08129   0.00000  Uiso   1.00
C105   C     0.51344   0.15955   0.08084   0.00000  Uiso   1.00
C106   C     0.66121   0.17647   0.23581   0.00000  Uiso   1.00
C107   C     0.34074   0.15824   0.26115   0.00000  Uiso   1.00
C108   C     0.43842   0.22180   0.42181   0.00000  Uiso   1.00
C109   C     0.51686   0.32335   0.24018   0.00000  Uiso   1.00
C110   C     0.48367   0.01236   0.26061   0.00000  Uiso   1.00
C111   C     0.48882   0.05640   0.25893   0.00000  Uiso   1.00
C112   C     0.51081   0.27798   0.24159   0.00000  Uiso   1.00
C113   C     0.52147   0.14549   0.14393   0.00000  Uiso   1.00
C114   C     0.47892   0.18794   0.35618   0.00000  Uiso   1.00
C115   C     0.47012   0.19679   0.39944   0.00000  Uiso   1.00
C116   C     0.53060   0.13679   0.10126   0.00000  Uiso   1.00
C117   C     0.43185   0.23106   0.46275   0.00000  Uiso   1.00
C118   C     0.45484   0.27697   0.03339   0.00000  Uiso   1.00
C119   C     0.49249   0.17821   0.41879   0.00000  Uiso   1.00
C120   C     0.35949   0.19919   0.20219   0.00000  Uiso   1.00
C121   C     0.35664   0.24615   0.20972   0.00000  Uiso   1.00
C122   C     0.39334   0.26992   0.18028   0.00000  Uiso   1.00
C123   C     0.56032   0.01335   0.21775   0.00000  Uiso   1.00
C124   C     0.59836   0.32141   0.19698   0.00000  Uiso   1.00
C125   C     0.63948   0.01641   0.17901   0.00000  Uiso   1.00
C126   C     0.43829   0.32860   0.27951   0.00000  Uiso   1.00
C127   C     0.55424   0.05945   0.46354   0.00000  Uiso   1.00
C128   C     0.39389   0.25297   0.48496   0.00000  Uiso   1.00
C129   C     0.52239   0.24656   0.05631   0.00000  Uiso   1.00
C130   C     0.48327   0.18338   0.46016   0.00000  Uiso   1.00
C131   C     0.49705   0.26445   0.09792   0.00000  Uiso   1.00
C132   C     0.52494   0.27278   0.12647   0.00000  Uiso   1.00
C133   C     0.49617   0.09489   0.43184   0.00000  Uiso   1.00
C134   C     0.45897   0.21589   0.48118   0.00000  Uiso   1.00
C135   C     0.50041   0.15915   0.48055   0.00000  Uiso   1.00
C136   C     0.50476   0.17594   0.01844   0.00000  Uiso   1.00
C137   C     0.49461   0.21743   0.03309   0.00000  Uiso   1.00
C138   C     0.46723   0.23497   0.01702   0.00000  Uiso   1.00
H139   H     0.57533   0.06655   0.02752   0.00000  Uiso   1.00
H140   H     0.39062   0.30374   0.18683   0.00000  Uiso   1.00
H141   H     0.65873   0.25285   0.20700   0.00000  Uiso   1.00
H142   H     0.35810   0.25754   0.24025   0.00000  Uiso   1.00
H143   H     0.39345   0.19372   0.19787   0.00000  Uiso   1.00
H144   H     0.35177   0.18674   0.17402   0.00000  Uiso   1.00
H145   H     0.63399   0.03452   0.15728   0.00000  Uiso   1.00
H146   H     0.64953   0.03818   0.20253   0.00000  Uiso   1.00
H147   H     0.66608   0.33061   0.16347   0.00000  Uiso   1.00
H148   H     0.60507   0.30413   0.21868   0.00000  Uiso   1.00
H149   H     0.59056   0.29937   0.17257   0.00000  Uiso   1.00
H150   H     0.65088   0.14239   0.28495   0.00000  Uiso   1.00
H151   H     0.55421   0.02977   0.19510   0.00000  Uiso   1.00
H152   H     0.57152   0.03722   0.23929   0.00000  Uiso   1.00
H153   H     0.42076   0.00972   0.30801   0.00000  Uiso   1.00
H154   H     0.58842   0.05713   0.45818   0.00000  Uiso   1.00
H155   H     0.38189   0.27332   0.47027   0.00000  Uiso   1.00
H156   H     0.53491   0.24337   0.13079   0.00000  Uiso   1.00
H157   H     0.55432   0.29464   0.11476   0.00000  Uiso   1.00
H158   H     0.50619   0.28692   0.15560   0.00000  Uiso   1.00
H159   H     0.48683   0.29468   0.09614   0.00000  Uiso   1.00
H160   H     0.46740   0.24331   0.11037   0.00000  Uiso   1.00
H161   H     0.49268   0.18219   0.09783   0.00000  Uiso   1.00
H162   H     0.54967   0.23113   0.05801   0.00000  Uiso   1.00
H163   H     0.53880   0.27301   0.03881   0.00000  Uiso   1.00
H164   H     0.46284   0.09569   0.43232   0.00000  Uiso   1.00
H165   H     0.56783   0.08669   0.09711   0.00000  Uiso   1.00
H166   H     0.41859   0.23392   0.40747   0.00000  Uiso   1.00
H167   H     0.51836   0.16058   0.40119   0.00000  Uiso   1.00
H168   H     0.43552   0.28233   0.06387   0.00000  Uiso   1.00
H169   H     0.42521   0.26452   0.18269   0.00000  Uiso   1.00
H170   H     0.39148   0.25982   0.14962   0.00000  Uiso   1.00
O171   O     0.50000   0.16667   0.25000   0.00000  Uiso   1.00
O172   O     0.49027   0.12393   0.16625   0.00000  Uiso   1.00
O173   O     0.46020   0.20646   0.33749   0.00000  Uiso   1.00
O174   O     0.54421   0.17493   0.15877   0.00000  Uiso   1.00
O175   O     0.50532   0.16135   0.33749   0.00000  Uiso   1.00
O176   O     0.46609   0.30572   0.01281   0.00000  Uiso   1.00
O177   O     0.41914   0.30087   0.26213   0.00000  Uiso   1.00
O178   O     0.53043   0.02875   0.45580   0.00000  Uiso   1.00
O179   O     0.37413   0.24667   0.01902   0.00000  Uiso   1.00
O180   O     0.51989   0.07626   0.40346   0.00000  Uiso   1.00
O181   O     0.51182   0.08101   0.27821   0.00000  Uiso   1.00
O182   O     0.47914   0.26136   0.26767   0.00000  Uiso   1.00
O183   O     0.40785   0.13251   0.23607   0.00000  Uiso   1.00
O184   O     0.60119   0.19179   0.21806   0.00000  Uiso   1.00
O185   O     0.40323   0.18960   0.27820   0.00000  Uiso   1.00
O186   O     0.58773   0.15277   0.26768   0.00000  Uiso   1.00
O187   O     0.47133   0.06903   0.23607   0.00000  Uiso   1.00
O188   O     0.53771   0.25527   0.21806   0.00000  Uiso   1.00
Zn189  Zn    0.52577   0.14090   0.28278   0.00000  Uiso   1.00
Zn190  Zn    0.46792   0.12378   0.22258   0.00000  Uiso   1.00
Zn191  Zn    0.54500   0.19664   0.21188   0.00000  Uiso   1.00
Zn192  Zn    0.46131   0.20535   0.28277   0.00000  Uiso   1.00
C193   C     0.71907   0.15961   0.25911   0.00000  Uiso   1.00
C194   C     0.84610   0.11872   0.46436   0.00000  Uiso   1.00
C195   C     0.87001   0.09912   0.48227   0.00000  Uiso   1.00
C196   C     0.94791   0.17368   0.24084   0.00000  Uiso   1.00
C197   C     0.87346   0.11521   0.02028   0.00000  Uiso   1.00
C198   C     0.85377   0.15130   0.03967   0.00000  Uiso   1.00
C199   C     0.89220   0.09346   0.04122   0.00000  Uiso   1.00
C200   C     0.88775   0.10453   0.08129   0.00000  Uiso   1.00
C201   C     0.84678   0.15955   0.08084   0.00000  Uiso   1.00
C202   C     0.99454   0.17647   0.23581   0.00000  Uiso   1.00
C203   C     0.67408   0.15824   0.26115   0.00000  Uiso   1.00
C204   C     0.77176   0.22180   0.42181   0.00000  Uiso   1.00
C205   C     0.85019   0.32335   0.24018   0.00000  Uiso   1.00
C206   C     0.81700   0.01236   0.26061   0.00000  Uiso   1.00
C207   C     0.82216   0.05640   0.25893   0.00000  Uiso   1.00
C208   C     0.84414   0.27798   0.24159   0.00000  Uiso   1.00
C209   C     0.85481   0.14549   0.14393   0.00000  Uiso   1.00
C210   C     0.81225   0.18794   0.35618   0.00000  Uiso   1.00
C211   C     0.80346   0.19679   0.39944   0.00000  Uiso   1.00
C212   C     0.86393   0.13679   0.10126   0.00000  Uiso   1.00
C213   C     0.76519   0.23106   0.46275   0.00000  Uiso   1.00
C214   C     0.78817   0.27697   0.03339   0.00000  Uiso   1.00
C215   C     0.82583   0.17821   0.41879   0.00000  Uiso   1.00
C216   C     0.69283   0.19919   0.20219   0.00000  Uiso   1.00
C217   C     0.68998   0.24615   0.20972   0.00000  Uiso   1.00
C218   C     0.72668   0.26992   0.18028   0.00000  Uiso   1.00
C219   C     0.89366   0.01335   0.21775   0.00000  Uiso   1.00
C220   C     0.93169   0.32141   0.19698   0.00000  Uiso   1.00
C221   C     0.97281   0.01641   0.17901   0.00000  Uiso   1.00
C222   C     0.77162   0.32860   0.27951   0.00000  Uiso   1.00
C223   C     0.88758   0.05945   0.46354   0.00000  Uiso   1.00
C224   C     0.72723   0.25297   0.48496   0.00000  Uiso   1.00
C225   C     0.85573   0.24656   0.05631   0.00000  Uiso   1.00
C226   C     0.81660   0.18338   0.46016   0.00000  Uiso   1.00
C227   C     0.83038   0.26445   0.09792   0.00000  Uiso   1.00
C228   C     0.85828   0.27278   0.12647   0.00000  Uiso   1.00
C229   C     0.82950   0.09489   0.43184   0.00000  Uiso   1.00
C230   C     0.79231   0.21589   0.48118   0.00000  Uiso   1.00
C231   C     0.83374   0.15915   0.48055   0.00000  Uiso   1.00
C232   C     0.83810   0.17594   0.01844   0.00000  Uiso   1.00
C233   C     0.82794   0.21743   0.03309   0.00000  Uiso   1.00
C234   C     0.80056   0.23497   0.01702   0.00000  Uiso   1.00
H235   H     0.90866   0.06655   0.02752   0.00000  Uiso   1.00
H236   H     0.72395   0.30374   0.18683   0.00000  Uiso   1.00
H237   H     0.99206   0.25285   0.20700   0.00000  Uiso   1.00
H238   H     0.69143   0.25754   0.24025   0.00000  Uiso   1.00
H239   H     0.72678   0.19372   0.19787   0.00000  Uiso   1.00
H240   H     0.68511   0.18674   0.17402   0.00000  Uiso   1.00
H241   H     0.96732   0.03452   0.15728   0.00000  Uiso   1.00
H242   H     0.98286   0.03818   0.20253   0.00000  Uiso   1.00
H243   H     0.99941   0.33061   0.16347   0.00000  Uiso   1.00
H244   H     0.93840   0.30413   0.21868   0.00000  Uiso   1.00
H245   H     0.92390   0.29937   0.17257   0.00000  Uiso   1.00
H246   H     0.98421   0.14239   0.28495   0.00000  Uiso   1.00
H247   H     0.88754   0.02977   0.19510   0.00000  Uiso   1.00
H248   H     0.90485   0.03722   0.23929   0.00000  Uiso   1.00
H249   H     0.75409   0.00972   0.30801   0.00000  Uiso   1.00
H250   H     0.92175   0.05713   0.45818   0.00000  Uiso   1.00
H251   H     0.71523   0.27332   0.47027   0.00000  Uiso   1.00
H252   H     0.86824   0.24337   0.13079   0.00000  Uiso   1.00
H253   H     0.88765   0.29464   0.11476   0.00000  Uiso   1.00
H254   H     0.83952   0.28692   0.15560   0.00000  Uiso   1.00
H255   H     0.82016   0.29468   0.09614   0.00000  Uiso   1.00
H256   H     0.80074   0.24331   0.11037   0.00000  Uiso   1.00
H257   H     0.82601   0.18219   0.09783   0.00000  Uiso   1.00
H258   H     0.88300   0.23113   0.05801   0.00000  Uiso   1.00
H259   H     0.87213   0.27301   0.03881   0.00000  Uiso   1.00
H260   H     0.79617   0.09569   0.43232   0.00000  Uiso   1.00
H261   H     0.90116   0.08669   0.09711   0.00000  Uiso   1.00
H262   H     0.75192   0.23392   0.40747   0.00000  Uiso   1.00
H263   H     0.85170   0.16058   0.40119   0.00000  Uiso   1.00
H264   H     0.76885   0.28233   0.06387   0.00000  Uiso   1.00
H265   H     0.75855   0.26452   0.18269   0.00000  Uiso   1.00
H266   H     0.72482   0.25982   0.14962   0.00000  Uiso   1.00
O267   O     0.83333   0.16667   0.25000   0.00000  Uiso   1.00
O268   O     0.82360   0.12393   0.16625   0.00000  Uiso   1.00
O269   O     0.79354   0.20646   0.33749   0.00000  Uiso   1.00
O270   O     0.87755   0.17493   0.15877   0.00000  Uiso   1.00
O271   O     0.83865   0.16135   0.33749   0.00000  Uiso   1.00
O272   O     0.79942   0.30572   0.01281   0.00000  Uiso   1.00
O273   O     0.75247   0.30087   0.26213   0.00000  Uiso   1.00
O274   O     0.86376   0.02875   0.45580   0.00000  Uiso   1.00
O275   O     0.70746   0.24667   0.01902   0.00000  Uiso   1.00
O276   O     0.85323   0.07626   0.40346   0.00000  Uiso   1.00
O277   O     0.84515   0.08101   0.27821   0.00000  Uiso   1.00
O278   O     0.81247   0.26136   0.26767   0.00000  Uiso   1.00
O279   O     0.74119   0.13251   0.23607   0.00000  Uiso   1.00
O280   O     0.93452   0.19179   0.21806   0.00000  Uiso   1.00
O281   O     0.73656   0.18960   0.27820   0.00000  Uiso   1.00
O282   O     0.92106   0.15277   0.26768   0.00000  Uiso   1.00
O283   O     0.80467   0.06903   0.23607   0.00000  Uiso   1.00
O284   O     0.87104   0.25527   0.21806   0.00000  Uiso   1.00
Zn285  Zn    0.85910   0.14090   0.28278   0.00000  Uiso   1.00
Zn286  Zn    0.80125   0.12378   0.22258   0.00000  Uiso   1.00
Zn287  Zn    0.87833   0.19664   0.21188   0.00000  Uiso   1.00
Zn288  Zn    0.79465   0.20535   0.28277   0.00000  Uiso   1.00
C289   C     0.05240   0.49294   0.25911   0.00000  Uiso   1.00
C290   C     0.17943   0.45205   0.46436   0.00000  Uiso   1.00
C291   C     0.20334   0.43246   0.48227   0.00000  Uiso   1.00
C292   C     0.28125   0.50701   0.24084   0.00000  Uiso   1.00
C293   C     0.20679   0.44855   0.02028   0.00000  Uiso   1.00
C294   C     0.18711   0.48463   0.03967   0.00000  Uiso   1.00
C295   C     0.22553   0.42679   0.04122   0.00000  Uiso   1.00
C296   C     0.22109   0.43786   0.08129   0.00000  Uiso   1.00
C297   C     0.18011   0.49288   0.08084   0.00000  Uiso   1.00
C298   C     0.32787   0.50981   0.23581   0.00000  Uiso   1.00
C299   C     0.00741   0.49158   0.26115   0.00000  Uiso   1.00
C300   C     0.10509   0.55514   0.42181   0.00000  Uiso   1.00
C301   C     0.18353   0.65668   0.24018   0.00000  Uiso   1.00
C302   C     0.15034   0.34570   0.26061   0.00000  Uiso   1.00
C303   C     0.15549   0.38973   0.25893   0.00000  Uiso   1.00
C304   C     0.17747   0.61131   0.24159   0.00000  Uiso   1.00
C305   C     0.18814   0.47882   0.14393   0.00000  Uiso   1.00
C306   C     0.14558   0.52127   0.35618   0.00000  Uiso   1.00
C307   C     0.13679   0.53013   0.39944   0.00000  Uiso   1.00
C308   C     0.19727   0.47012   0.10126   0.00000  Uiso   1.00
C309   C     0.09852   0.56439   0.46275   0.00000  Uiso   1.00
C310   C     0.12151   0.61030   0.03339   0.00000  Uiso   1.00
C311   C     0.15916   0.51154   0.41879   0.00000  Uiso   1.00
C312   C     0.02616   0.53252   0.20219   0.00000  Uiso   1.00
C313   C     0.02331   0.57948   0.20972   0.00000  Uiso   1.00
C314   C     0.06001   0.60325   0.18028   0.00000  Uiso   1.00
C315   C     0.22699   0.34668   0.21775   0.00000  Uiso   1.00
C316   C     0.26502   0.65475   0.19698   0.00000  Uiso   1.00
C317   C     0.30615   0.34974   0.17901   0.00000  Uiso   1.00
C318   C     0.10495   0.66193   0.27951   0.00000  Uiso   1.00
C319   C     0.22091   0.39278   0.46354   0.00000  Uiso   1.00
C320   C     0.06056   0.58631   0.48496   0.00000  Uiso   1.00
C321   C     0.18906   0.57989   0.05631   0.00000  Uiso   1.00
C322   C     0.14993   0.51672   0.46016   0.00000  Uiso   1.00
C323   C     0.16371   0.59779   0.09792   0.00000  Uiso   1.00
C324   C     0.19161   0.60611   0.12647   0.00000  Uiso   1.00
C325   C     0.16283   0.42822   0.43184   0.00000  Uiso   1.00
C326   C     0.12564   0.54922   0.48118   0.00000  Uiso   1.00
C327   C     0.16708   0.49249   0.48055   0.00000  Uiso   1.00
C328   C     0.17143   0.50927   0.01844   0.00000  Uiso   1.00
C329   C     0.16128   0.55076   0.03309   0.00000  Uiso   1.00
C330   C     0.13389   0.56830   0.01702   0.00000  Uiso   1.00
H331   H     0.24199   0.39988   0.02752   0.00000  Uiso   1.00
H332   H     0.05728   0.63707   0.18683   0.00000  Uiso   1.00
H333   H     0.32540   0.58618   0.20700   0.00000  Uiso   1.00
H334   H     0.02476   0.59087   0.24025   0.00000  Uiso   1.00
H335   H     0.06012   0.52706   0.19787   0.00000  Uiso   1.00
H336   H     0.01844   0.52007   0.17402   0.00000  Uiso   1.00
H337   H     0.30066   0.36785   0.15728   0.00000  Uiso   1.00
H338   H     0.31620   0.37151   0.20253   0.00000  Uiso   1.00
H339   H     0.33275   0.66394   0.16347   0.00000  Uiso   1.00
H340   H     0.27174   0.63746   0.21868   0.00000  Uiso   1.00
H341   H     0.25723   0.63270   0.17257   0.00000  Uiso   1.00
H342   H     0.31754   0.47572   0.28495   0.00000  Uiso   1.00
H343   H     0.22087   0.36311   0.19510   0.00000  Uiso   1.00
H344   H     0.23819   0.37055   0.23929   0.00000  Uiso   1.00
H345   H     0.08743   0.34306   0.30801   0.00000  Uiso   1.00
H346   H     0.25509   0.39046   0.45818   0.00000  Uiso   1.00
H347   H     0.04856   0.60666   0.47027   0.00000  Uiso   1.00
H348   H     0.20157   0.57670   0.13079   0.00000  Uiso   1.00
H349   H     0.22099   0.62797   0.11476   0.00000  Uiso   1.00
H350   H     0.17286   0.62025   0.15560   0.00000  Uiso   1.00
H351   H     0.15349   0.62801   0.09614   0.00000  Uiso   1.00
H352   H     0.13407   0.57664   0.11037   0.00000  Uiso   1.00
H353   H     0.15934   0.51552   0.09783   0.00000  Uiso   1.00
H354   H     0.21634   0.56446   0.05801   0.00000  Uiso   1.00
H355   H     0.20547   0.60635   0.03881   0.00000  Uiso   1.00
H356   H     0.12950   0.42902   0.43232   0.00000  Uiso   1.00
H357   H     0.23449   0.42002   0.09711   0.00000  Uiso   1.00
H358   H     0.08526   0.56725   0.40747   0.00000  Uiso   1.00
H359   H     0.18503   0.49391   0.40119   0.00000  Uiso   1.00
H360   H     0.10219   0.61566   0.06387   0.00000  Uiso   1.00
H361   H     0.09188   0.59786   0.18269   0.00000  Uiso   1.00
H362   H     0.05815   0.59316   0.14962   0.00000  Uiso   1.00
O363   O     0.16667   0.50000   0.25000   0.00000  Uiso   1.00
O364   O     0.15693   0.45726   0.16625   0.00000  Uiso   1.00
O365   O     0.12687   0.53979   0.33749   0.00000  Uiso   1.00
O366   O     0.21088   0.50826   0.15877   0.00000  Uiso   1.00
O367   O     0.17198   0.49468   0.33749   0.00000  Uiso   1.00
O368   O     0.13276   0.63905   0.01281   0.00000  Uiso   1.00
O369   O     0.08580   0.63420   0.26213   0.00000  Uiso   1.00
O370   O     0.19709   0.36209   0.45580   0.00000  Uiso   1.00
O371   O     0.04080   0.58000   0.01902   0.00000  Uiso   1.00
O372   O     0.18656   0.40959   0.40346   0.00000  Uiso   1.00
O373   O     0.17849   0.41434   0.27821   0.00000  Uiso   1.00
O374   O     0.14581   0.59469   0.26767   0.00000  Uiso   1.00
O375   O     0.07452   0.46584   0.23607   0.00000  Uiso   1.00
O376   O     0.26785   0.52512   0.21806   0.00000  Uiso   1.00
O377   O     0.06990   0.52293   0.27820   0.00000  Uiso   1.00
O378   O     0.25440   0.48610   0.26768   0.00000  Uiso   1.00
O379   O     0.13800   0.40236   0.23607   0.00000  Uiso   1.00
O380   O     0.20437   0.58860   0.21806   0.00000  Uiso   1.00
Zn381  Zn    0.19244   0.47423   0.28278   0.00000  Uiso   1.00
Zn382  Zn    0.13459   0.45711   0.22258   0.00000  Uiso   1.00
Zn383  Zn    0.21166   0.52997   0.21188   0.00000  Uiso   1.00
Zn384  Zn    0.12798   0.53868   0.28277   0.00000  Uiso   1.00
C385   C     0.38574   0.49294   0.25911   0.00000  Uiso   1.00
C386   C     0.51276   0.45205   0.46436   0.00000  Uiso   1.00
C387   C     0.53667   0.43246   0.48227   0.00000  Uiso   1.00
C388   C     0.61458   0.50701   0.24084   0.00000  Uiso   1.00
C389   C     0.54012   0.44855   0.02028   0.00000  Uiso   1.00
C390   C     0.52044   0.48463   0.03967   0.00000  Uiso   1.00
C391   C     0.55886   0.42679   0.04122   0.00000  Uiso   1.00
C392   C     0.55442   0.43786   0.08129   0.00000  Uiso   1.00
C393   C     0.51344   0.49288   0.08084   0.00000  Uiso   1.00
C394   C     0.66121   0.50981   0.23581   0.00000  Uiso   1.00
C395   C     0.34074   0.49158   0.26115   0.00000  Uiso   1.00
C396   C     0.43842   0.55514   0.42181   0.00000  Uiso   1.00
C397   C     0.51686   0.65668   0.24018   0.00000  Uiso   1.00
C398   C     0.48367   0.34570   0.26061   0.00000  Uiso   1.00
C399   C     0.48882   0.38973   0.25893   0.00000  Uiso   1.00
C400   C     0.51081   0.61131   0.24159   0.00000  Uiso   1.00
C401   C     0.52147   0.47882   0.14393   0.00000  Uiso   1.00
C402   C     0.47892   0.52127   0.35618   0.00000  Uiso   1.00
C403   C     0.47012   0.53013   0.39944   0.00000  Uiso   1.00
C404   C     0.53060   0.47012   0.10126   0.00000  Uiso   1.00
C405   C     0.43185   0.56439   0.46275   0.00000  Uiso   1.00
C406   C     0.45484   0.61030   0.03339   0.00000  Uiso   1.00
C407   C     0.49249   0.51154   0.41879   0.00000  Uiso   1.00
C408   C     0.35949   0.53252   0.20219   0.00000  Uiso   1.00
C409   C     0.35664   0.57948   0.20972   0.00000  Uiso   1.00
C410   C     0.39334   0.60325   0.18028   0.00000  Uiso   1.00
C411   C     0.56032   0.34668   0.21775   0.00000  Uiso   1.00
C412   C     0.59836   0.65475   0.19698   0.00000  Uiso   1.00
C413   C     0.63948   0.34974   0.17901   0.00000  Uiso   1.00
C414   C     0.43829   0.66193   0.27951   0.00000  Uiso   1.00
C415   C     0.55424   0.39278   0.46354   0.00000  Uiso   1.00
C416   C     0.39389   0.58631   0.48496   0.00000  Uiso   1.00
C417   C     0.52239   0.57989   0.05631   0.00000  Uiso   1.00
C418   C     0.48327   0.51672   0.46016   0.00000  Uiso   1.00
C419   C     0.49705   0.59779   0.09792   0.00000  Uiso   1.00
C420   C     0.52494   0.60611   0.12647   0.00000  Uiso   1.00
C421   C     0.49617   0.42822   0.43184   0.00000  Uiso   1.00
C422   C     0.45897   0.54922   0.48118   0.00000  Uiso   1.00
C423   C     0.50041   0.49249   0.48055   0.00000  Uiso   1.00
C424   C     0.50476   0.50927   0.01844   0.00000  Uiso   1.00
C425   C     0.49461   0.55076   0.03309   0.00000  Uiso   1.00
C426   C     0.46723   0.56830   0.01702   0.00000  Uiso   1.00
H427   H     0.57533   0.39988   0.02752   0.00000  Uiso   1.00
H428   H     0.39062   0.63707   0.18683   0.00000  Uiso   1.00
H429   H     0.65873   0.58618   0.20700   0.00000  Uiso   1.00
H430   H     0.35810   0.59087   0.24025   0.00000  Uiso   1.00
H431   H     0.39345   0.52706   0.19787   0.00000  Uiso   1.00
H432   H     0.35177   0.52007   0.17402   0.00000  Uiso   1.00
H433   H     0.63399   0.36785   0.15728   0.00000  Uiso   1.00
H434   H     0.64953   0.37151   0.20253   0.00000  Uiso   1.00
H435   H     0.66608   0.66394   0.16347   0.00000  Uiso   1.00
H436   H     0.60507   0.63746   0.21868   0.00000  Uiso   1.00
H437   H     0.59056   0.63270   0.17257   0.00000  Uiso   1.00
H438   H     0.65088   0.47572   0.28495   0.00000  Uiso   1.00
H439   H     0.55421   0.36311   0.19510   0.00000  Uiso   1.00
H440   H     0.57152   0.37055   0.23929   0.00000  Uiso   1.00
H441   H     0.42076   0.34306   0.30801   0.00000  Uiso   1.00
H442   H     0.58842   0.39046   0.45818   0.00000  Uiso   1.00
H443   H     0.38189   0.60666   0.47027   0.00000  Uiso   1.00
H444   H     0.53491   0.57670   0.13079   0.00000  Uiso   1.00
H445   H     0.55432   0.62797   0.11476   0.00000  Uiso   1.00
H446   H     0.50619   0.62025   0.15560   0.00000  Uiso   1.00
H447   H     0.48683   0.62801   0.09614   0.00000  Uiso   1.00
H448   H     0.46740   0.57664   0.11037   0.00000  Uiso   1.00
H449   H     0.49268   0.51552   0.09783   0.00000  Uiso   1.00
H450   H     0.54967   0.56446   0.05801   0.00000  Uiso   1.00
H451   H     0.53880   0.60635   0.03881   0.00000  Uiso   1.00
H452   H     0.46284   0.42902   0.43232   0.00000  Uiso   1.00
H453   H     0.56783   0.42002   0.09711   0.00000  Uiso   1.00
H454   H     0.41859   0.56725   0.40747   0.00000  Uiso   1.00
H455   H     0.51836   0.49391   0.40119   0.00000  Uiso   1.00
H456   H     0.43552   0.61566   0.06387   0.00000  Uiso   1.00
H457   H     0.42521   0.59786   0.18269   0.00000  Uiso   1.00
H458   H     0.39148   0.59316   0.14962   0.00000  Uiso   1.00
O459   O     0.50000   0.50000   0.25000   0.00000  Uiso   1.00
O460   O     0.49027   0.45726   0.16625   0.00000  Uiso   1.00
O461   O     0.46020   0.53979   0.33749   0.00000  Uiso   1.00
O462   O     0.54421   0.50826   0.15877   0.00000  Uiso   1.00
O463   O     0.50532   0.49468   0.33749   0.00000  Uiso   1.00
O464   O     0.46609   0.63905   0.01281   0.00000  Uiso   1.00
O465   O     0.41914   0.63420   0.26213   0.00000  Uiso   1.00
O466   O     0.53043   0.36209   0.45580   0.00000  Uiso   1.00
O467   O     0.37413   0.58000   0.01902   0.00000  Uiso   1.00
O468   O     0.51989   0.40959   0.40346   0.00000  Uiso   1.00
O469   O     0.51182   0.41434   0.27821   0.00000  Uiso   1.00
O470   O     0.47914   0.59469   0.26767   0.00000  Uiso   1.00
O471   O     0.40785   0.46584   0.23607   0.00000  Uiso   1.00
O472   O     0.60119   0.52512   0.21806   0.00000  Uiso   1.00
O473   O     0.40323   0.52293   0.27820   0.00000  Uiso   1.00
O474   O     0.58773   0.48610   0.26768   0.00000  Uiso   1.00
O475   O     0.47133   0.40236   0.23607   0.00000  Uiso   1.00
O476   O     0.53771   0.58860   0.21806   0.00000  Uiso   1.00
Zn477  Zn    0.52577   0.47423   0.28278   0.00000  Uiso   1.00
Zn478  Zn    0.46792   0.45711   0.22258   0.00000  Uiso   1.00
Zn479  Zn    0.54500   0.52997   0.21188   0.00000  Uiso   1.00
Zn480  Zn    0.46131   0.53868   0.28277   0.00000  Uiso   1.00
C481   C     0.71907   0.49294   0.25911   0.00000  Uiso   1.00
C482   C     0.84610   0.45205   0.46436   0.00000  Uiso   1.00
C483   C     0.87001   0.43246   0.48227   0.00000  Uiso   1.00
C484   C     0.94791   0.50701   0.24084   0.00000  Uiso   1.00
C485   C     0.87346   0.44855   0.02028   0.00000  Uiso   1.00
C486   C     0.85377   0.48463   0.03967   0.00000  Uiso   1.00
C487   C     0.89220   0.42679   0.04122   0.00000  Uiso   1.00
C488   C     0.88775   0.43786   0.08129   0.00000  Uiso   1.00
C489   C     0.84678   0.49288   0.08084   0.00000  Uiso   1.00
C490   C     0.99454   0.50981   0.23581   0.00000  Uiso   1.00
C491   C     0.67408   0.49158   0.26115   0.00000  Uiso   1.00
C492   C     0.77176   0.55514   0.42181   0.00000  Uiso   1.00
C493   C     0.85019   0.65668   0.24018   0.00000  Uiso   1.00
C494   C     0.81700   0.34570   0.26061   0.00000  Uiso   1.00
C495   C     0.82216   0.38973   0.25893   0.00000  Uiso   1.00
C496   C     0.84414   0.61131   0.24159   0.00000  Uiso   1.00
C497   C     0.85481   0.47882   0.14393   0.00000  Uiso   1.00
C498   C     0.81225   0.52127   0.35618   0.00000  Uiso   1.00
C499   C     0.80346   0.53013   0.39944   0.00000  Uiso   1.00
C500   C     0.86393   0.47012   0.10126   0.00000  Uiso   1.00
C501   C     0.76519   0.56439   0.46275   0.00000  Uiso   1.00
C502   C     0.78817   0.61030   0.03339   0.00000  Uiso   1.00
C503   C     0.82583   0.51154   0.41879   0.00000  Uiso   1.00
C504   C     0.69283   0.53252   0.20219   0.00000  Uiso   1.00
C505   C     0.68998   0.57948   0.20972   0.00000  Uiso   1.00
C506   C     0.72668   0.60325   0.18028   0.00000  Uiso   1.00
C507   C     0.89366   0.34668   0.21775   0.00000  Uiso   1.00
C508   C     0.93169   0.65475   0.19698   0.00000  Uiso   1.00
C509   C     0.97281   0.34974   0.17901   0.00000  Uiso   1.00
C510   C     0.77162   0.66193   0.27951   0.00000  Uiso   1.00
C511   C     0.88758   0.39278   0.46354   0.00000  Uiso   1.00
C512   C     0.72723   0.58631   0.48496   0.00000  Uiso   1.00
C513   C     0.85573   0.57989   0.05631   0.00000  Uiso   1.00
C514   C     0.81660   0.51672   0.46016   0.00000  Uiso   1.00
C515   C     0.83038   0.59779   0.09792   0.00000  Uiso   1.00
C516   C     0.85828   0.60611   0.12647   0.00000  Uiso   1.00
C517   C     0.82950   0.42822   0.43184   0.00000  Uiso   1.00
C518   C     0.79231   0.54922   0.48118   0.00000  Uiso   1.00
C519   C     0.83374   0.49249   0.48055   0.00000  Uiso   1.00
C520   C     0.83810   0.50927   0.01844   0.00000  Uiso   1.00
C521   C     0.82794   0.55076   0.03309   0.00000  Uiso   1.00
C522   C     0.80056   0.56830   0.01702   0.00000  Uiso   1.00
H523   H     0.90866   0.39988   0.02752   0.00000  Uiso   1.00
H524   H     0.72395   0.63707   0.18683   0.00000  Uiso   1.00
H525   H     0.99206   0.58618   0.20700   0.00000  Uiso   1.00
H526   H     0.69143   0.59087   0.24025   0.00000  Uiso   1.00
H527   H     0.72678   0.52706   0.19787   0.00000  Uiso   1.00
H528   H     0.68511   0.52007   0.17402   0.00000  Uiso   1.00
H529   H     0.96732   0.36785   0.15728   0.00000  Uiso   1.00
H530   H     0.98286   0.37151   0.20253   0.00000  Uiso   1.00
H531   H     0.99941   0.66394   0.16347   0.00000  Uiso   1.00
H532   H     0.93840   0.63746   0.21868   0.00000  Uiso   1.00
H533   H     0.92390   0.63270   0.17257   0.00000  Uiso   1.00
H534   H     0.98421   0.47572   0.28495   0.00000  Uiso   1.00
H535   H     0.88754   0.36311   0.19510   0.00000  Uiso   1.00
H536   H     0.90485   0.37055   0.23929   0.00000  Uiso   1.00
H537   H     0.75409   0.34306   0.30801   0.00000  Uiso   1.00
H538   H     0.92175   0.39046   0.45818   0.00000  Uiso   1.00
H539   H     0.71523   0.60666   0.47027   0.00000  Uiso   1.00
H540   H     0.86824   0.57670   0.13079   0.00000  Uiso   1.00
H541   H     0.88765   0.62797   0.11476   0.00000  Uiso   1.00
H542   H     0.83952   0.62025   0.15560   0.00000  Uiso   1.00
H543   H     0.82016   0.62801   0.09614   0.00000  Uiso   1.00
H544   H     0.80074   0.57664   0.11037   0.00000  Uiso   1.00
H545   H     0.82601   0.51552   0.09783   0.00000  Uiso   1.00
H546   H     0.88300   0.56446   0.05801   0.00000  Uiso   1.00
H547   H     0.87213   0.60635   0.03881   0.00000  Uiso   1.00
H548   H     0.79617   0.42902   0.43232   0.00000  Uiso   1.00
H549   H     0.90116   0.42002   0.09711   0.00000  Uiso   1.00
H550   H     0.75192   0.56725   0.40747   0.00000  Uiso   1.00
H551   H     0.85170   0.49391   0.40119   0.00000  Uiso   1.00
H552   H     0.76885   0.61566   0.06387   0.00000  Uiso   1.00
H553   H     0.75855   0.59786   0.18269   0.00000  Uiso   1.00
H554   H     0.72482   0.59316   0.14962   0.00000  Uiso   1.00
O555   O     0.83333   0.50000   0.25000   0.00000  Uiso   1.00
O556   O     0.82360   0.45726   0.16625   0.00000  Uiso   1.00
O557   O     0.79354   0.53979   0.33749   0.00000  Uiso   1.00
O558   O     0.87755   0.50826   0.15877   0.00000  Uiso   1.00
O559   O     0.83865   0.49468   0.33749   0.00000  Uiso   1.00
O560   O     0.79942   0.63905   0.01281   0.00000  Uiso   1.00
O561   O     0.75247   0.63420   0.26213   0.00000  Uiso   1.00
O562   O     0.86376   0.36209   0.45580   0.00000  Uiso   1.00
O563   O     0.70746   0.58000   0.01902   0.00000  Uiso   1.00
O564   O     0.85323   0.40959   0.40346   0.00000  Uiso   1.00
O565   O     0.84515   0.41434   0.27821   0.00000  Uiso   1.00
O566   O     0.81247   0.59469   0.26767   0.00000  Uiso   1.00
O567   O     0.74119   0.46584   0.23607   0.00000  Uiso   1.00
O568   O     0.93452   0.52512   0.21806   0.00000  Uiso   1.00
O569   O     0.73656   0.52293   0.27820   0.00000  Uiso   1.00
O570   O     0.92106   0.48610   0.26768   0.00000  Uiso   1.00
O571   O     0.80467   0.40236   0.23607   0.00000  Uiso   1.00
O572   O     0.87104   0.58860   0.21806   0.00000  Uiso   1.00
Zn573  Zn    0.85910   0.47423   0.28278   0.00000  Uiso   1.00
Zn574  Zn    0.80125   0.45711   0.22258   0.00000  Uiso   1.00
Zn575  Zn    0.87833   0.52997   0.21188   0.00000  Uiso   1.00
Zn576  Zn    0.79465   0.53868   0.28277   0.00000  Uiso   1.00
C577   C     0.05240   0.82627   0.25911   0.00000  Uiso   1.00
C578   C     0.17943   0.78539   0.46436   0.00000  Uiso   1.00
C579   C     0.20334   0.76579   0.48227   0.00000  Uiso   1.00
C580   C     0.28125   0.84034   0.24084   0.00000  Uiso   1.00
C581   C     0.20679   0.78188   0.02028   0.00000  Uiso   1.00
C582   C     0.18711   0.81796   0.03967   0.00000  Uiso   1.00
C583   C     0.22553   0.76012   0.04122   0.00000  Uiso   1.00
C584   C     0.22109   0.77119   0.08129   0.00000  Uiso   1.00
C585   C     0.18011   0.82621   0.08084   0.00000  Uiso   1.00
C586   C     0.32787   0.84314   0.23581   0.00000  Uiso   1.00
C587   C     0.00741   0.82491   0.26115   0.00000  Uiso   1.00
C588   C     0.10509   0.88847   0.42181   0.00000  Uiso   1.00
C589   C     0.18353   0.99001   0.24018   0.00000  Uiso   1.00
C590   C     0.15034   0.67903   0.26061   0.00000  Uiso   1.00
C591   C     0.15549   0.72306   0.25893   0.00000  Uiso   1.00
C592   C     0.17747   0.94465   0.24159   0.00000  Uiso   1.00
C593   C     0.18814   0.81216   0.14393   0.00000  Uiso   1.00
C594   C     0.14558   0.85460   0.35618   0.00000  Uiso   1.00
C595   C     0.13679   0.86346   0.39944   0.00000  Uiso   1.00
C596   C     0.19727   0.80346   0.10126   0.00000  Uiso   1.00
C597   C     0.09852   0.89772   0.46275   0.00000  Uiso   1.00
C598   C     0.12151   0.94364   0.03339   0.00000  Uiso   1.00
C599   C     0.15916   0.84487   0.41879   0.00000  Uiso   1.00
C600   C     0.02616   0.86586   0.20219   0.00000  Uiso   1.00
C601   C     0.02331   0.91281   0.20972   0.00000  Uiso   1.00
C602   C     0.06001   0.93659   0.18028   0.00000  Uiso   1.00
C603   C     0.22699   0.68002   0.21775   0.00000  Uiso   1.00
C604   C     0.26502   0.98808   0.19698   0.00000  Uiso   1.00
C605   C     0.30615   0.68308   0.17901   0.00000  Uiso   1.00
C606   C     0.10495   0.99527   0.27951   0.00000  Uiso   1.00
C607   C     0.22091   0.72612   0.46354   0.00000  Uiso   1.00
C608   C     0.06056   0.91964   0.48496   0.00000  Uiso   1.00
C609   C     0.18906   0.91322   0.05631   0.00000  Uiso   1.00
C610   C     0.14993   0.85005   0.46016   0.00000  Uiso   1.00
C611   C     0.16371   0.93112   0.09792   0.00000  Uiso   1.00
C612   C     0.19161   0.93945   0.12647   0.00000  Uiso   1.00
C613   C     0.16283   0.76155   0.43184   0.00000  Uiso   1.00
C614   C     0.12564   0.88256   0.48118   0.00000  Uiso   1.00
C615   C     0.16708   0.82582   0.48055   0.00000  Uiso   1.00
C616   C     0.17143   0.84261   0.01844   0.00000  Uiso   1.00
C617   C     0.16128   0.88410   0.03309   0.00000  Uiso   1.00
C618   C     0.13389   0.90164   0.01702   0.00000  Uiso   1.00
H619   H     0.24199   0.73321   0.02752   0.00000  Uiso   1.00
H620   H     0.05728   0.97040   0.18683   0.00000  Uiso   1.00
H621   H     0.32540   0.91952   0.20700   0.00000  Uiso   1.00
H622   H     0.02476   0.92420   0.24025   0.00000  Uiso   1.00
H623   H     0.06012   0.86039   0.19787   0.00000  Uiso   1.00
H624   H     0.01844   0.85340   0.17402   0.00000  Uiso   1.00
H625   H     0.30066   0.70118   0.15728   0.00000  Uiso   1.00
H626   H     0.31620   0.70485   0.20253   0.00000  Uiso   1.00
H627   H     0.33275   0.99727   0.16347   0.00000  Uiso   1.00
H628   H     0.27174   0.97079   0.21868   0.00000  Uiso   1.00
H629   H     0.25723   0.96603   0.17257   0.00000  Uiso   1.00
H630   H     0.31754   0.80905   0.28495   0.00000  Uiso   1.00
H631   H     0.22087   0.69644   0.19510   0.00000  Uiso   1.00
H632   H     0.23819   0.70389   0.23929   0.00000  Uiso   1.00
H633   H     0.08743   0.67639   0.30801   0.00000  Uiso   1.00
H634   H     0.25509   0.72380   0.45818   0.00000  Uiso   1.00
H635   H     0.04856   0.93999   0.47027   0.00000  Uiso   1.00
H636   H     0.20157   0.91004   0.13079   0.00000  Uiso   1.00
H637   H     0.22099   0.96131   0.11476   0.00000  Uiso   1.00
H638   H     0.17286   0.95359   0.15560   0.00000  Uiso   1.00
H639   H     0.15349   0.96135   0.09614   0.00000  Uiso   1.00
H640   H     0.13407   0.90997   0.11037   0.00000  Uiso   1.00
H641   H     0.15934   0.84885   0.09783   0.00000  Uiso   1.00
H642   H     0.21634   0.89779   0.05801   0.00000  Uiso   1.00
H643   H     0.20547   0.93968   0.03881   0.00000  Uiso   1.00
H644   H     0.12950   0.76236   0.43232   0.00000  Uiso   1.00
H645   H     0.23449   0.75335   0.09711   0.00000  Uiso   1.00
H646   H     0.08526   0.90059   0.40747   0.00000  Uiso   1.00
H647   H     0.18503   0.82724   0.40119   0.00000  Uiso   1.00
H648   H     0.10219   0.94899   0.06387   0.00000  Uiso   1.00
H649   H     0.09188   0.93119   0.18269   0.00000  Uiso   1.00
H650   H     0.05815   0.92649   0.14962   0.00000  Uiso   1.00
O651   O     0.16667   0.83333   0.25000   0.00000  Uiso   1.00
O652   O     0.15693   0.79060   0.16625   0.00000  Uiso   1.00
O653   O     0.12687   0.87313   0.33749   0.00000  Uiso   1.00
O654   O     0.21088   0.84159   0.15877   0.00000  Uiso   1.00
O655   O     0.17198   0.82802   0.33749   0.00000  Uiso   1.00
O656   O     0.13276   0.97239   0.01281   0.00000  Uiso   1.00
O657   O     0.08580   0.96753   0.26213   0.00000  Uiso   1.00
O658   O     0.19709   0.69542   0.45580   0.00000  Uiso   1.00
O659   O     0.04080   0.91334   0.01902   0.00000  Uiso   1.00
O660   O     0.18656   0.74292   0.40346   0.00000  Uiso   1.00
O661   O     0.17849   0.74768   0.27821   0.00000  Uiso   1.00
O662   O     0.14581   0.92803   0.26767   0.00000  Uiso   1.00
O663   O     0.07452   0.79917   0.23607   0.00000  Uiso   1.00
O664   O     0.26785   0.85845   0.21806   0.00000  Uiso   1.00
O665   O     0.06990   0.85627   0.27820   0.00000  Uiso   1.00
O666   O     0.25440   0.81944   0.26768   0.00000  Uiso   1.00
O667   O     0.13800   0.73570   0.23607   0.00000  Uiso   1.00
O668   O     0.20437   0.92193   0.21806   0.00000  Uiso   1.00
Zn669  Zn    0.19244   0.80756   0.28278   0.00000  Uiso   1.00
Zn670  Zn    0.13459   0.79044   0.22258   0.00000  Uiso   1.00
Zn671  Zn    0.21166   0.86331   0.21188   0.00000  Uiso   1.00
Zn672  Zn    0.12798   0.87202   0.28277   0.00000  Uiso   1.00
C673   C     0.38574   0.82627   0.25911   0.00000  Uiso   1.00
C674   C     0.51276   0.78539   0.46436   0.00000  Uiso   1.00
C675   C     0.53667   0.76579   0.48227   0.00000  Uiso   1.00
C676   C     0.61458   0.84034   0.24084   0.00000  Uiso   1.00
C677   C     0.54012   0.78188   0.02028   0.00000  Uiso   1.00
C678   C     0.52044   0.81796   0.03967   0.00000  Uiso   1.00
C679   C     0.55886   0.76012   0.04122   0.00000  Uiso   1.00
C680   C     0.55442   0.77119   0.08129   0.00000  Uiso   1.00
C681   C     0.51344   0.82621   0.08084   0.00000  Uiso   1.00
C682   C     0.66121   0.84314   0.23581   0.00000  Uiso   1.00
C683   C     0.34074   0.82491   0.26115   0.00000  Uiso   1.00
C684   C     0.43842   0.88847   0.42181   0.00000  Uiso   1.00
C685   C     0.51686   0.99001   0.24018   0.00000  Uiso   1.00
C686   C     0.48367   0.67903   0.26061   0.00000  Uiso   1.00
C687   C     0.48882   0.72306   0.25893   0.00000  Uiso   1.00
C688   C     0.51081   0.94465   0.24159   0.00000  Uiso   1.00
C689   C     0.52147   0.81216   0.14393   0.00000  Uiso   1.00
C690   C     0.47892   0.85460   0.35618   0.00000  Uiso   1.00
C691   C     0.47012   0.86346   0.39944   0.00000  Uiso   1.00
C692   C     0.53060   0.80346   0.10126   0.00000  Uiso   1.00
C693   C     0.43185   0.89772   0.46275   0.00000  Uiso   1.00
C694   C     0.45484   0.94364   0.03339   0.00000  Uiso   1.00
C695   C     0.49249   0.84487   0.41879   0.00000  Uiso   1.00
C696   C     0.35949   0.86586   0.20219   0.00000  Uiso   1.00
C697   C     0.35664   0.91281   0.20972   0.00000  Uiso   1.00
C698   C     0.39334   0.93659   0.18028   0.00000  Uiso   1.00
C699   C     0.56032   0.68002   0.21775   0.00000  Uiso   1.00
C700   C     0.59836   0.98808   0.19698   0.00000  Uiso   1.00
C701   C     0.63948   0.68308   0.17901   0.00000  Uiso   1.00
C702   C     0.43829   0.99527   0.27951   0.00000  Uiso   1.00
C703   C     0.55424   0.72612   0.46354   0.00000  Uiso   1.00
C704   C     0.39389   0.91964   0.48496   0.00000  Uiso   1.00
C705   C     0.52239   0.91322   0.05631   0.00000  Uiso   1.00
C706   C     0.48327   0.85005   0.46016   0.00000  Uiso   1.00
C707   C     0.49705   0.93112   0.09792   0.00000  Uiso   1.00
C708   C     0.52494   0.93945   0.12647   0.00000  Uiso   1.00
C709   C     0.49617   0.76155   0.43184   0.00000  Uiso   1.00
C710   C     0.45897   0.88256   0.48118   0.00000  Uiso   1.00
C711   C     0.50041   0.82582   0.48055   0.00000  Uiso   1.00
C712   C     0.50476   0.84261   0.01844   0.00000  Uiso   1.00
C713   C     0.49461   0.88410   0.03309   0.00000  Uiso   1.00
C714   C     0.46723   0.90164   0.01702   0.00000  Uiso   1.00
H715   H     0.57533   0.73321   0.02752   0.00000  Uiso   1.00
H716   H     0.39062   0.97040   0.18683   0.00000  Uiso   1.00
H717   H     0.65873   0.91952   0.20700   0.00000  Uiso   1.00
H718   H     0.35810   0.92420   0.24025   0.00000  Uiso   1.00
H719   H     0.39345   0.86039   0.19787   0.00000  Uiso   1.00
H720   H     0.35177   0.85340   0.17402   0.00000  Uiso   1.00
H721   H     0.63399   0.70118   0.15728   0.00000  Uiso   1.00
H722   H     0.64953   0.70485   0.20253   0.00000  Uiso   1.00
H723   H     0.66608   0.99727   0.16347   0.00000  Uiso   1.00
H724   H     0.60507   0.97079   0.21868   0.00000  Uiso   1.00
H725   H     0.59056   0.96603   0.17257   0.00000  Uiso   1.00
H726   H     0.65088   0.80905   0.28495   0.00000  Uiso   1.00
H727   H     0.55421   0.69644   0.19510   0.00000  Uiso   1.00
H728   H     0.57152   0.70389   0.23929   0.00000  Uiso   1.00
H729   H     0.42076   0.67639   0.30801   0.00000  Uiso   1.00
H730   H     0.58842   0.72380   0.45818   0.00000  Uiso   1.00
H731   H     0.38189   0.93999   0.47027   0.00000  Uiso   1.00
H732   H     0.53491   0.91004   0.13079   0.00000  Uiso   1.00
H733   H     0.55432   0.96131   0.11476   0.00000  Uiso   1.00
H734   H     0.50619   0.95359   0.15560   0.00000  Uiso   1.00
H735   H     0.48683   0.96135   0.09614   0.00000  Uiso   1.00
H736   H     0.46740   0.90997   0.11037   0.00000  Uiso   1.00
H737   H     0.49268   0.84885   0.09783   0.00000  Uiso   1.00
H738   H     0.54967   0.89779   0.05801   0.00000  Uiso   1.00
H739   H     0.53880   0.93968   0.03881   0.00000  Uiso   1.00
H740   H     0.46284   0.76236   0.43232   0.00000  Uiso   1.00
H741   H     0.56783   0.75335   0.09711   0.00000  Uiso   1.00
H742   H     0.41859   0.90059   0.40747   0.00000  Uiso   1.00
H743   H     0.51836   0.82724   0.40119   0.00000  Uiso   1.00
H744   H     0.43552   0.94899   0.06387   0.00000  Uiso   1.00
H745   H     0.42521   0.93119   0.18269   0.00000  Uiso   1.00
H746   H     0.39148   0.92649   0.14962   0.00000  Uiso   1.00
O747   O     0.50000   0.83333   0.25000   0.00000  Uiso   1.00
O748   O     0.49027   0.79060   0.16625   0.00000  Uiso   1.00
O749   O     0.46020   0.87313   0.33749   0.00000  Uiso   1.00
O750   O     0.54421   0.84159   0.15877   0.00000  Uiso   1.00
O751   O     0.50532   0.82802   0.33749   0.00000  Uiso   1.00
O752   O     0.46609   0.97239   0.01281   0.00000  Uiso   1.00
O753   O     0.41914   0.96753   0.26213   0.00000  Uiso   1.00
O754   O     0.53043   0.69542   0.45580   0.00000  Uiso   1.00
O755   O     0.37413   0.91334   0.01902   0.00000  Uiso   1.00
O756   O     0.51989   0.74292   0.40346   0.00000  Uiso   1.00
O757   O     0.51182   0.74768   0.27821   0.00000  Uiso   1.00
O758   O     0.47914   0.92803   0.26767   0.00000  Uiso   1.00
O759   O     0.40785   0.79917   0.23607   0.00000  Uiso   1.00
O760   O     0.60119   0.85845   0.21806   0.00000  Uiso   1.00
O761   O     0.40323   0.85627   0.27820   0.00000  Uiso   1.00
O762   O     0.58773   0.81944   0.26768   0.00000  Uiso   1.00
O763   O     0.47133   0.73570   0.23607   0.00000  Uiso   1.00
O764   O     0.53771   0.92193   0.21806   0.00000  Uiso   1.00
Zn765  Zn    0.52577   0.80756   0.28278   0.00000  Uiso   1.00
Zn766  Zn    0.46792   0.79044   0.22258   0.00000  Uiso   1.00
Zn767  Zn    0.54500   0.86331   0.21188   0.00000  Uiso   1.00
Zn768  Zn    0.46131   0.87202   0.28277   0.00000  Uiso   1.00
C769   C     0.71907   0.82627   0.25911   0.00000  Uiso   1.00
C770   C     0.84610   0.78539   0.46436   0.00000  Uiso   1.00
C771   C     0.87001   0.76579   0.48227   0.00000  Uiso   1.00
C772   C     0.94791   0.84034   0.24084   0.00000  Uiso   1.00
C773   C     0.87346   0.78188   0.02028   0.00000  Uiso   1.00
C774   C     0.85377   0.81796   0.03967   0.00000  Uiso   1.00
C775   C     0.89220   0.76012   0.04122   0.00000  Uiso   1.00
C776   C     0.88775   0.77119   0.08129   0.00000  Uiso   1.00
C777   C     0.84678   0.82621   0.08084   0.00000  Uiso   1.00
C778   C     0.99454   0.84314   0.23581   0.00000  Uiso   1.00
C779   C     0.67408   0.82491   0.26115   0.00000  Uiso   1.00
C780   C     0.77176   0.88847   0.42181   0.00000  Uiso   1.00
C781   C     0.85019   0.99001   0.24018   0.00000  Uiso   1.00
C782   C     0.81700   0.67903   0.26061   0.00000  Uiso   1.00
C783   C     0.82216   0.72306   0.25893   0.00000  Uiso   1.00
C784   C     0.84414   0.94465   0.24159   0.00000  Uiso   1.00
C785   C     0.85481   0.81216   0.14393   0.00000  Uiso   1.00
C786   C     0.81225   0.85460   0.35618   0.00000  Uiso   1.00
C787   C     0.80346   0.86346   0.39944   0.00000  Uiso   1.00
C788   C     0.86393   0.80346   0.10126   0.00000  Uiso   1.00
C789   C     0.76519   0.89772   0.46275   0.00000  Uiso   1.00
C790   C     0.78817   0.94364   0.03339   0.00000  Uiso   1.00
C791   C     0.82583   0.84487   0.41879   0.00000  Uiso   1.00
C792   C     0.69283   0.86586   0.20219   0.00000  Uiso   1.00
C793   C     0.68998   0.91281   0.20972   0.00000  Uiso   1.00
C794   C     0.72668   0.93659   0.18028   0.00000  Uiso   1.00
C795   C     0.89366   0.68002   0.21775   0.00000  Uiso   1.00
C796   C     0.93169   0.98808   0.19698   0.00000  Uiso   1.00
C797   C     0.97281   0.68308   0.17901   0.00000  Uiso   1.00
C798   C     0.77162   0.99527   0.27951   0.00000  Uiso   1.00
C799   C     0.88758   0.72612   0.46354   0.00000  Uiso   1.00
C800   C     0.72723   0.91964   0.48496   0.00000  Uiso   1.00
C801   C     0.85573   0.91322   0.05631   0.00000  Uiso   1.00
C802   C     0.81660   0.85005   0.46016   0.00000  Uiso   1.00
C803   C     0.83038   0.93112   0.09792   0.00000  Uiso   1.00
C804   C     0.85828   0.93945   0.12647   0.00000  Uiso   1.00
C805   C     0.82950   0.76155   0.43184   0.00000  Uiso   1.00
C806   C     0.79231   0.88256   0.48118   0.00000  Uiso   1.00
C807   C     0.83374   0.82582   0.48055   0.00000  Uiso   1.00
C808   C     0.83810   0.84261   0.01844   0.00000  Uiso   1.00
C809   C     0.82794   0.88410   0.03309   0.00000  Uiso   1.00
C810   C     0.80056   0.90164   0.01702   0.00000  Uiso   1.00
H811   H     0.90866   0.73321   0.02752   0.00000  Uiso   1.00
H812   H     0.72395   0.97040   0.18683   0.00000  Uiso   1.00
H813   H     0.99206   0.91952   0.20700   0.00000  Uiso   1.00
H814   H     0.69143   0.92420   0.24025   0.00000  Uiso   1.00
H815   H     0.72678   0.86039   0.19787   0.00000  Uiso   1.00
H816   H     0.68511   0.85340   0.17402   0.00000  Uiso   1.00
H817   H     0.96732   0.70118   0.15728   0.00000  Uiso   1.00
H818   H     0.98286   0.70485   0.20253   0.00000  Uiso   1.00
H819   H     0.99941   0.99727   0.16347   0.00000  Uiso   1.00
H820   H     0.93840   0.97079   0.21868   0.00000  Uiso   1.00
H821   H     0.92390   0.96603   0.17257   0.00000  Uiso   1.00
H822   H     0.98421   0.80905   0.28495   0.00000  Uiso   1.00
H823   H     0.88754   0.69644   0.19510   0.00000  Uiso   1.00
H824   H     0.90485   0.70389   0.23929   0.00000  Uiso   1.00
H825   H     0.75409   0.67639   0.30801   0.00000  Uiso   1.00
H826   H     0.92175   0.72380   0.45818   0.00000  Uiso   1.00
H827   H     0.71523   0.93999   0.47027   0.00000  Uiso   1.00
H828   H     0.86824   0.91004   0.13079   0.00000  Uiso   1.00
H829   H     0.88765   0.96131   0.11476   0.00000  Uiso   1.00
H830   H     0.83952   0.95359   0.15560   0.00000  Uiso   1.00
H831   H     0.82016   0.96135   0.09614   0.00000  Uiso   1.00
H832   H     0.80074   0.90997   0.11037   0.00000  Uiso   1.00
H833   H     0.82601   0.84885   0.09783   0.00000  Uiso   1.00
H834   H     0.88300   0.89779   0.05801   0.00000  Uiso   1.00
H835   H     0.87213   0.93968   0.03881   0.00000  Uiso   1.00
H836   H     0.79617   0.76236   0.43232   0.00000  Uiso   1.00
H837   H     0.90116   0.75335   0.09711   0.00000  Uiso   1.00
H838   H     0.75192   0.90059   0.40747   0.00000  Uiso   1.00
H839   H     0.85170   0.82724   0.40119   0.00000  Uiso   1.00
H840   H     0.76885   0.94899   0.06387   0.00000  Uiso   1.00
H841   H     0.75855   0.93119   0.18269   0.00000  Uiso   1.00
H842   H     0.72482   0.92649   0.14962   0.00000  Uiso   1.00
O843   O     0.83333   0.83333   0.25000   0.00000  Uiso   1.00
O844   O     0.82360   0.79060   0.16625   0.00000  Uiso   1.00
O845   O     0.79354   0.87313   0.33749   0.00000  Uiso   1.00
O846   O     0.87755   0.84159   0.15877   0.00000  Uiso   1.00
O847   O     0.83865   0.82802   0.33749   0.00000  Uiso   1.00
O848   O     0.79942   0.97239   0.01281   0.00000  Uiso   1.00
O849   O     0.75247   0.96753   0.26213   0.00000  Uiso   1.00
O850   O     0.86376   0.69542   0.45580   0.00000  Uiso   1.00
O851   O     0.70746   0.91334   0.01902   0.00000  Uiso   1.00
O852   O     0.85323   0.74292   0.40346   0.00000  Uiso   1.00
O853   O     0.84515   0.74768   0.27821   0.00000  Uiso   1.00
O854   O     0.81247   0.92803   0.26767   0.00000  Uiso   1.00
O855   O     0.74119   0.79917   0.23607   0.00000  Uiso   1.00
O856   O     0.93452   0.85845   0.21806   0.00000  Uiso   1.00
O857   O     0.73656   0.85627   0.27820   0.00000  Uiso   1.00
O858   O     0.92106   0.81944   0.26768   0.00000  Uiso   1.00
O859   O     0.80467   0.73570   0.23607   0.00000  Uiso   1.00
O860   O     0.87104   0.92193   0.21806   0.00000  Uiso   1.00
Zn861  Zn    0.85910   0.80756   0.28278   0.00000  Uiso   1.00
Zn862  Zn    0.80125   0.79044   0.22258   0.00000  Uiso   1.00
Zn863  Zn    0.87833   0.86331   0.21188   0.00000  Uiso   1.00
Zn864  Zn    0.79465   0.87202   0.28277   0.00000  Uiso   1.00
C865   C     0.05240   0.15961   0.75911   0.00000  Uiso   1.00
C866   C     0.17943   0.11872   0.96436   0.00000  Uiso   1.00
C867   C     0.20334   0.09912   0.98227   0.00000  Uiso   1.00
C868   C     0.28125   0.17368   0.74084   0.00000  Uiso   1.00
C869   C     0.20679   0.11521   0.52028   0.00000  Uiso   1.00
C870   C     0.18711   0.15130   0.53967   0.00000  Uiso   1.00
C871   C     0.22553   0.09346   0.54122   0.00000  Uiso   1.00
C872   C     0.22109   0.10453   0.58129   0.00000  Uiso   1.00
C873   C     0.18011   0.15955   0.58084   0.00000  Uiso   1.00
C874   C     0.32787   0.17647   0.73581   0.00000  Uiso   1.00
C875   C     0.00741   0.15824   0.76115   0.00000  Uiso   1.00
C876   C     0.10509   0.22180   0.92181   0.00000  Uiso   1.00
C877   C     0.18353   0.32335   0.74018   0.00000  Uiso   1.00
C878   C     0.15034   0.01236   0.76061   0.00000  Uiso   1.00
C879   C     0.15549   0.05640   0.75893   0.00000  Uiso   1.00
C880   C     0.17747   0.27798   0.74159   0.00000  Uiso   1.00
C881   C     0.18814   0.14549   0.64393   0.00000  Uiso   1.00
C882   C     0.14558   0.18794   0.85618   0.00000  Uiso   1.00
C883   C     0.13679   0.19679   0.89944   0.00000  Uiso   1.00
C884   C     0.19727   0.13679   0.60126   0.00000  Uiso   1.00
C885   C     0.09852   0.23106   0.96275   0.00000  Uiso   1.00
C886   C     0.12151   0.27697   0.53339   0.00000  Uiso   1.00
C887   C     0.15916   0.17821   0.91879   0.00000  Uiso   1.00
C888   C     0.02616   0.19919   0.70219   0.00000  Uiso   1.00
C889   C     0.02331   0.24615   0.70972   0.00000  Uiso   1.00
C890   C     0.06001   0.26992   0.68028   0.00000  Uiso   1.00
C891   C     0.22699   0.01335   0.71775   0.00000  Uiso   1.00
C892   C     0.26502   0.32141   0.69698   0.00000  Uiso   1.00
C893   C     0.30615   0.01641   0.67901   0.00000  Uiso   1.00
C894   C     0.10495   0.32860   0.77951   0.00000  Uiso   1.00
C895   C     0.22091   0.05945   0.96354   0.00000  Uiso   1.00
C896   C     0.06056   0.25297   0.98496   0.00000  Uiso   1.00
C897   C     0.18906   0.24656   0.55631   0.00000  Uiso   1.00
C898   C     0.14993   0.18338   0.96016   0.00000  Uiso   1.00
C899   C     0.16371   0.26445   0.59792   0.00000  Uiso   1.00
C900   C     0.19161   0.27278   0.62647   0.00000  Uiso   1.00
C901   C     0.16283   0.09489   0.93184   0.00000  Uiso   1.00
C902   C     0.12564   0.21589   0.98118   0.00000  Uiso   1.00
C903   C     0.16708   0.15915   0.98055   0.00000  Uiso   1.00
C904   C     0.17143   0.17594   0.51844   0.00000  Uiso   1.00
C905   C     0.16128   0.21743   0.53309   0.00000  Uiso   1.00
C906   C     0.13389   0.23497   0.51702   0.00000  Uiso   1.00
H907   H     0.24199   0.06655   0.52752   0.00000  Uiso   1.00
H908   H     0.05728   0.30374   0.68683   0.00000  Uiso   1.00
H909   H     0.32540   0.25285   0.70700   0.00000  Uiso   1.00
H910   H     0.02476   0.25754   0.74025   0.00000  Uiso   1.00
H911   H     0.06012   0.19372   0.69787   0.00000  Uiso   1.00
H912   H     0.01844   0.18674   0.67402   0.00000  Uiso   1.00
H913   H     0.30066   0.03452   0.65728   0.00000  Uiso   1.00
H914   H     0.31620   0.03818   0.70253   0.00000  Uiso   1.00
H915   H     0.33275   0.33061   0.66347   0.00000  Uiso   1.00
H916   H     0.27174   0.30413   0.71868   0.00000  Uiso   1.00
H917   H     0.25723   0.29937   0.67257   0.00000  Uiso   1.00
H918   H     0.31754   0.14239   0.78495   0.00000  Uiso   1.00
H919   H     0.22087   0.02977   0.69510   0.00000  Uiso   1.00
H920   H     0.23819   0.03722   0.73929   0.00000  Uiso   1.00
H921   H     0.08743   0.00972   0.80801   0.00000  Uiso   1.00
H922   H     0.25509   0.05713   0.95818   0.00000  Uiso   1.00
H923   H     0.04856   0.27332   0.97027   0.00000  Uiso   1.00
H924   H     0.20157   0.24337   0.63079   0.00000  Uiso   1.00
H925   H     0.22099   0.29464   0.61476   0.00000  Uiso   1.00
H926   H     0.17286   0.28692   0.65560   0.00000  Uiso   1.00
H927   H     0.15349   0.29468   0.59614   0.00000  Uiso   1.00
H928   H     0.13407   0.24331   0.61037   0.00000  Uiso   1.00
H929   H     0.15934   0.18219   0.59783   0.00000  Uiso   1.00
H930   H     0.21634   0.23113   0.55801   0.00000  Uiso   1.00
H931   H     0.20547   0.27301   0.53881   0.00000  Uiso   1.00
H932   H     0.12950   0.09569   0.93232   0.00000  Uiso   1.00
H933   H     0.23449   0.08669   0.59711   0.00000  Uiso   1.00
H934   H     0.08526   0.23392   0.90747   0.00000  Uiso   1.00
H935   H     0.18503   0.16058   0.90119   0.00000  Uiso   1.00
H936   H     0.10219   0.28233   0.56387   0.00000  Uiso   1.00
H937   H     0.09188   0.26452   0.68269   0.00000  Uiso   1.00
H938   H     0.05815   0.25982   0.64962   0.00000  Uiso   1.00
O939   O     0.16667   0.16667   0.75000   0.00000  Uiso   1.00
O940   O     0.15693   0.12393   0.66625   0.00000  Uiso   1.00
O941   O     0.12687   0.20646   0.83749   0.00000  Uiso   1.00
O942   O     0.21088   0.17493   0.65877   0.00000  Uiso   1.00
O943   O     0.17198   0.16135   0.83749   0.00000  Uiso   1.00
O944   O     0.13276   0.30572   0.51281   0.00000  Uiso   1.00
O945   O     0.08580   0.30087   0.76213   0.00000  Uiso   1.00
O946   O     0.19709   0.02875   0.95580   0.00000  Uiso   1.00
O947   O     0.04080   0.24667   0.51902   0.00000  Uiso   1.00
O948   O     0.18656   0.07626   0.90346   0.00000  Uiso   1.00
O949   O     0.17849   0.08101   0.77821   0.00000  Uiso   1.00
O950   O     0.14581   0.26136   0.76767   0.00000  Uiso   1.00
O951   O     0.07452   0.13251   0.73607   0.00000  Uiso   1.00
O952   O     0.26785   0.19179   0.71806   0.00000  Uiso   1.00
O953   O     0.06990   0.18960   0.77820   0.00000  Uiso   1.00
O954   O     0.25440   0.15277   0.76768   0.00000  Uiso   1.00
O955   O     0.13800   0.06903   0.73607   0.00000  Uiso   1.00
O956   O     0.20437   0.25527   0.71806   0.00000  Uiso   1.00
Zn957  Zn    0.19244   0.14090   0.78278   0.00000  Uiso   1.00
Zn958  Zn    0.13459   0.12378   0.72258   0.00000  Uiso   1.00
Zn959  Zn    0.21166   0.19664   0.71188   0.00000  Uiso   1.00
Zn960  Zn    0.12798   0.20535   0.78277   0.00000  Uiso   1.00
C961   C     0.38574   0.15961   0.75911   0.00000  Uiso   1.00
C962   C     0.51276   0.11872   0.96436   0.00000  Uiso   1.00
C963   C     0.53667   0.09912   0.98227   0.00000  Uiso   1.00
C964   C     0.61458   0.17368   0.74084   0.00000  Uiso   1.00
C965   C     0.54012   0.11521   0.52028   0.00000  Uiso   1.00
C966   C     0.52044   0.15130   0.53967   0.00000  Uiso   1.00
C967   C     0.55886   0.09346   0.54122   0.00000  Uiso   1.00
C968   C     0.55442   0.10453   0.58129   0.00000  Uiso   1.00
C969   C     0.51344   0.15955   0.58084   0.00000  Uiso   1.00
C970   C     0.66121   0.17647   0.73581   0.00000  Uiso   1.00
C971   C     0.34074   0.15824   0.76115   0.00000  Uiso   1.00
C972   C     0.43842   0.22180   0.92181   0.00000  Uiso   1.00
C973   C     0.51686   0.32335   0.74018   0.00000  Uiso   1.00
C974   C     0.48367   0.01236   0.76061   0.00000  Uiso   1.00
C975   C     0.48882   0.05640   0.75893   0.00000  Uiso   1.00
C976   C     0.51081   0.27798   0.74159   0.00000  Uiso   1.00
C977   C     0.52147   0.14549   0.64393   0.00000  Uiso   1.00
C978   C     0.47892   0.18794   0.85618   0.00000  Uiso   1.00
C979   C     0.47012   0.19679   0.89944   0.00000  Uiso   1.00
C980   C     0.53060   0.13679   0.60126   0.00000  Uiso   1.00
C981   C     0.43185   0.23106   0.96275   0.00000  Uiso   1.00
C982   C     0.45484   0.27697   0.53339   0.00000  Uiso   1.00
C983   C     0.49249   0.17821   0.91879   0.00000  Uiso   1.00
C984   C     0.35949   0.19919   0.70219   0.00000  Uiso   1.00
C985   C     0.35664   0.24615   0.70972   0.00000  Uiso   1.00
C986   C     0.39334   0.26992   0.68028   0.00000  Uiso   1.00
C987   C     0.56032   0.01335   0.71775   0.00000  Uiso   1.00
C988   C     0.59836   0.32141   0.69698   0.00000  Uiso   1.00
C989   C     0.63948   0.01641   0.67901   0.00000  Uiso   1.00
C990   C     0.43829   0.32860   0.77951   0.00000  Uiso   1.00
C991   C     0.55424   0.05945   0.96354   0.00000  Uiso   1.00
C992   C     0.39389   0.25297   0.98496   0.00000  Uiso   1.00
C993   C     0.52239   0.24656   0.55631   0.00000  Uiso   1.00
C994   C     0.48327   0.18338   0.96016   0.00000  Uiso   1.00
C995   C     0.49705   0.26445   0.59792   0.00000  Uiso   1.00
C996   C     0.52494   0.27278   0.62647   0.00000  Uiso   1.00
C997   C     0.49617   0.09489   0.93184   0.00000  Uiso   1.00
C998   C     0.45897   0.21589   0.98118   0.00000  Uiso   1.00
C999   C     0.50041   0.15915   0.98055   0.00000  Uiso   1.00
C1000  C     0.50476   0.17594   0.51844   0.00000  Uiso   1.00
C1001  C     0.49461   0.21743   0.53309   0.00000  Uiso   1.00
C1002  C     0.46723   0.23497   0.51702   0.00000  Uiso   1.00
H1003  H     0.57533   0.06655   0.52752   0.00000  Uiso   1.00
H1004  H     0.39062   0.30374   0.68683   0.00000  Uiso   1.00
H1005  H     0.65873   0.25285   0.70700   0.00000  Uiso   1.00
H1006  H     0.35810   0.25754   0.74025   0.00000  Uiso   1.00
H1007  H     0.39345   0.19372   0.69787   0.00000  Uiso   1.00
H1008  H     0.35177   0.18674   0.67402   0.00000  Uiso   1.00
H1009  H     0.63399   0.03452   0.65728   0.00000  Uiso   1.00
H1010  H     0.64953   0.03818   0.70253   0.00000  Uiso   1.00
H1011  H     0.66608   0.33061   0.66347   0.00000  Uiso   1.00
H1012  H     0.60507   0.30413   0.71868   0.00000  Uiso   1.00
H1013  H     0.59056   0.29937   0.67257   0.00000  Uiso   1.00
H1014  H     0.65088   0.14239   0.78495   0.00000  Uiso   1.00
H1015  H     0.55421   0.02977   0.69510   0.00000  Uiso   1.00
H1016  H     0.57152   0.03722   0.73929   0.00000  Uiso   1.00
H1017  H     0.42076   0.00972   0.80801   0.00000  Uiso   1.00
H1018  H     0.58842   0.05713   0.95818   0.00000  Uiso   1.00
H1019  H     0.38189   0.27332   0.97027   0.00000  Uiso   1.00
H1020  H     0.53491   0.24337   0.63079   0.00000  Uiso   1.00
H1021  H     0.55432   0.29464   0.61476   0.00000  Uiso   1.00
H1022  H     0.50619   0.28692   0.65560   0.00000  Uiso   1.00
H1023  H     0.48683   0.29468   0.59614   0.00000  Uiso   1.00
H1024  H     0.46740   0.24331   0.61037   0.00000  Uiso   1.00
H1025  H     0.49268   0.18219   0.59783   0.00000  Uiso   1.00
H1026  H     0.54967   0.23113   0.55801   0.00000  Uiso   1.00
H1027  H     0.53880   0.27301   0.53881   0.00000  Uiso   1.00
H1028  H     0.46284   0.09569   0.93232   0.00000  Uiso   1.00
H1029  H     0.56783   0.08669   0.59711   0.00000  Uiso   1.00
H1030  H     0.41859   0.23392   0.90747   0.00000  Uiso   1.00
H1031  H     0.51836   0.16058   0.90119   0.00000  Uiso   1.00
H1032  H     0.43552   0.28233   0.56387   0.00000  Uiso   1.00
H1033  H     0.42521   0.26452   0.68269   0.00000  Uiso   1.00
H1034  H     0.39148   0.25982   0.64962   0.00000  Uiso   1.00
O1035  O     0.50000   0.16667   0.75000   0.00000  Uiso   1.00
O1036  O     0.49027   0.12393   0.66625   0.00000  Uiso   1.00
O1037  O     0.46020   0.20646   0.83749   0.00000  Uiso   1.00
O1038  O     0.54421   0.17493   0.65877   0.00000  Uiso   1.00
O1039  O     0.50532   0.16135   0.83749   0.00000  Uiso   1.00
O1040  O     0.46609   0.30572   0.51281   0.00000  Uiso   1.00
O1041  O     0.41914   0.30087   0.76213   0.00000  Uiso   1.00
O1042  O     0.53043   0.02875   0.95580   0.00000  Uiso   1.00
O1043  O     0.37413   0.24667   0.51902   0.00000  Uiso   1.00
O1044  O     0.51989   0.07626   0.90346   0.00000  Uiso   1.00
O1045  O     0.51182   0.08101   0.77821   0.00000  Uiso   1.00
O1046  O     0.47914   0.26136   0.76767   0.00000  Uiso   1.00
O1047  O     0.40785   0.13251   0.73607   0.00000  Uiso   1.00
O1048  O     0.60119   0.19179   0.71806   0.00000  Uiso   1.00
O1049  O     0.40323   0.18960   0.77820   0.00000  Uiso   1.00
O1050  O     0.58773   0.15277   0.76768   0.00000  Uiso   1.00
O1051  O     0.47133   0.06903   0.73607   0.00000  Uiso   1.00
O1052  O     0.53771   0.25527   0.71806   0.00000  Uiso   1.00
Zn1053 Zn    0.52577   0.14090   0.78278   0.00000  Uiso   1.00
Zn1054 Zn    0.46792   0.12378   0.72258   0.00000  Uiso   1.00
Zn1055 Zn    0.54500   0.19664   0.71188   0.00000  Uiso   1.00
Zn1056 Zn    0.46131   0.20535   0.78277   0.00000  Uiso   1.00
C1057  C     0.71907   0.15961   0.75911   0.00000  Uiso   1.00
C1058  C     0.84610   0.11872   0.96436   0.00000  Uiso   1.00
C1059  C     0.87001   0.09912   0.98227   0.00000  Uiso   1.00
C1060  C     0.94791   0.17368   0.74084   0.00000  Uiso   1.00
C1061  C     0.87346   0.11521   0.52028   0.00000  Uiso   1.00
C1062  C     0.85377   0.15130   0.53967   0.00000  Uiso   1.00
C1063  C     0.89220   0.09346   0.54122   0.00000  Uiso   1.00
C1064  C     0.88775   0.10453   0.58129   0.00000  Uiso   1.00
C1065  C     0.84678   0.15955   0.58084   0.00000  Uiso   1.00
C1066  C     0.99454   0.17647   0.73581   0.00000  Uiso   1.00
C1067  C     0.67408   0.15824   0.76115   0.00000  Uiso   1.00
C1068  C     0.77176   0.22180   0.92181   0.00000  Uiso   1.00
C1069  C     0.85019   0.32335   0.74018   0.00000  Uiso   1.00
C1070  C     0.81700   0.01236   0.76061   0.00000  Uiso   1.00
C1071  C     0.82216   0.05640   0.75893   0.00000  Uiso   1.00
C1072  C     0.84414   0.27798   0.74159   0.00000  Uiso   1.00
C1073  C     0.85481   0.14549   0.64393   0.00000  Uiso   1.00
C1074  C     0.81225   0.18794   0.85618   0.00000  Uiso   1.00
C1075  C     0.80346   0.19679   0.89944   0.00000  Uiso   1.00
C1076  C     0.86393   0.13679   0.60126   0.00000  Uiso   1.00
C1077  C     0.76519   0.23106   0.96275   0.00000  Uiso   1.00
C1078  C     0.78817   0.27697   0.53339   0.00000  Uiso   1.00
C1079  C     0.82583   0.17821   0.91879   0.00000  Uiso   1.00
C1080  C     0.69283   0.19919   0.70219   0.00000  Uiso   1.00
C1081  C     0.68998   0.24615   0.70972   0.00000  Uiso   1.00
C1082  C     0.72668   0.26992   0.68028   0.00000  Uiso   1.00
C1083  C     0.89366   0.01335   0.71775   0.00000  Uiso   1.00
C1084  C     0.93169   0.32141   0.69698   0.00000  Uiso   1.00
C1085  C     0.97281   0.01641   0.67901   0.00000  Uiso   1.00
C1086  C     0.77162   0.32860   0.77951   0.00000  Uiso   1.00
C1087  C     0.88758   0.05945   0.96354   0.00000  Uiso   1.00
C1088  C     0.72723   0.25297   0.98496   0.00000  Uiso   1.00
C1089  C     0.85573   0.24656   0.55631   0.00000  Uiso   1.00
C1090  C     0.81660   0.18338   0.96016   0.00000  Uiso   1.00
C1091  C     0.83038   0.26445   0.59792   0.00000  Uiso   1.00
C1092  C     0.85828   0.27278   0.62647   0.00000  Uiso   1.00
C1093  C     0.82950   0.09489   0.93184   0.00000  Uiso   1.00
C1094  C     0.79231   0.21589   0.98118   0.00000  Uiso   1.00
C1095  C     0.83374   0.15915   0.98055   0.00000  Uiso   1.00
C1096  C     0.83810   0.17594   0.51844   0.00000  Uiso   1.00
C1097  C     0.82794   0.21743   0.53309   0.00000  Uiso   1.00
C1098  C     0.80056   0.23497   0.51702   0.00000  Uiso   1.00
H1099  H     0.90866   0.06655   0.52752   0.00000  Uiso   1.00
H1100  H     0.72395   0.30374   0.68683   0.00000  Uiso   1.00
H1101  H     0.99206   0.25285   0.70700   0.00000  Uiso   1.00
H1102  H     0.69143   0.25754   0.74025   0.00000  Uiso   1.00
H1103  H     0.72678   0.19372   0.69787   0.00000  Uiso   1.00
H1104  H     0.68511   0.18674   0.67402   0.00000  Uiso   1.00
H1105  H     0.96732   0.03452   0.65728   0.00000  Uiso   1.00
H1106  H     0.98286   0.03818   0.70253   0.00000  Uiso   1.00
H1107  H     0.99941   0.33061   0.66347   0.00000  Uiso   1.00
H1108  H     0.93840   0.30413   0.71868   0.00000  Uiso   1.00
H1109  H     0.92390   0.29937   0.67257   0.00000  Uiso   1.00
H1110  H     0.98421   0.14239   0.78495   0.00000  Uiso   1.00
H1111  H     0.88754   0.02977   0.69510   0.00000  Uiso   1.00
H1112  H     0.90485   0.03722   0.73929   0.00000  Uiso   1.00
H1113  H     0.75409   0.00972   0.80801   0.00000  Uiso   1.00
H1114  H     0.92175   0.05713   0.95818   0.00000  Uiso   1.00
H1115  H     0.71523   0.27332   0.97027   0.00000  Uiso   1.00
H1116  H     0.86824   0.24337   0.63079   0.00000  Uiso   1.00
H1117  H     0.88765   0.29464   0.61476   0.00000  Uiso   1.00
H1118  H     0.83952   0.28692   0.65560   0.00000  Uiso   1.00
H1119  H     0.82016   0.29468   0.59614   0.00000  Uiso   1.00
H1120  H     0.80074   0.24331   0.61037   0.00000  Uiso   1.00
H1121  H     0.82601   0.18219   0.59783   0.00000  Uiso   1.00
H1122  H     0.88300   0.23113   0.55801   0.00000  Uiso   1.00
H1123  H     0.87213   0.27301   0.53881   0.00000  Uiso   1.00
H1124  H     0.79617   0.09569   0.93232   0.00000  Uiso   1.00
H1125  H     0.90116   0.08669   0.59711   0.00000  Uiso   1.00
H1126  H     0.75192   0.23392   0.90747   0.00000  Uiso   1.00
H1127  H     0.85170   0.16058   0.90119   0.00000  Uiso   1.00
H1128  H     0.76885   0.28233   0.56387   0.00000  Uiso   1.00
H1129  H     0.75855   0.26452   0.68269   0.00000  Uiso   1.00
H1130  H     0.72482   0.25982   0.64962   0.00000  Uiso   1.00
O1131  O     0.83333   0.16667   0.75000   0.00000  Uiso   1.00
O1132  O     0.82360   0.12393   0.66625   0.00000  Uiso   1.00
O1133  O     0.79354   0.20646   0.83749   0.00000  Uiso   1.00
O1134  O     0.87755   0.17493   0.65877   0.00000  Uiso   1.00
O1135  O     0.83865   0.16135   0.83749   0.00000  Uiso   1.00
O1136  O     0.79942   0.30572   0.51281   0.00000  Uiso   1.00
O1137  O     0.75247   0.30087   0.76213   0.00000  Uiso   1.00
O1138  O     0.86376   0.02875   0.95580   0.00000  Uiso   1.00
O1139  O     0.70746   0.24667   0.51902   0.00000  Uiso   1.00
O1140  O     0.85323   0.07626   0.90346   0.00000  Uiso   1.00
O1141  O     0.84515   0.08101   0.77821   0.00000  Uiso   1.00
O1142  O     0.81247   0.26136   0.76767   0.00000  Uiso   1.00
O1143  O     0.74119   0.13251   0.73607   0.00000  Uiso   1.00
O1144  O     0.93452   0.19179   0.71806   0.00000  Uiso   1.00
O1145  O     0.73656   0.18960   0.77820   0.00000  Uiso   1.00
O1146  O     0.92106   0.15277   0.76768   0.00000  Uiso   1.00
O1147  O     0.80467   0.06903   0.73607   0.00000  Uiso   1.00
O1148  O     0.87104   0.25527   0.71806   0.00000  Uiso   1.00
Zn1149 Zn    0.85910   0.14090   0.78278   0.00000  Uiso   1.00
Zn1150 Zn    0.80125   0.12378   0.72258   0.00000  Uiso   1.00
Zn1151 Zn    0.87833   0.19664   0.71188   0.00000  Uiso   1.00
Zn1152 Zn    0.79465   0.20535   0.78277   0.00000  Uiso   1.00
C1153  C     0.05240   0.49294   0.75911   0.00000  Uiso   1.00
C1154  C     0.17943   0.45205   0.96436   0.00000  Uiso   1.00
C1155  C     0.20334   0.43246   0.98227   0.00000  Uiso   1.00
C1156  C     0.28125   0.50701   0.74084   0.00000  Uiso   1.00
C1157  C     0.20679   0.44855   0.52028   0.00000  Uiso   1.00
C1158  C     0.18711   0.48463   0.53967   0.00000  Uiso   1.00
C1159  C     0.22553   0.42679   0.54122   0.00000  Uiso   1.00
C1160  C     0.22109   0.43786   0.58129   0.00000  Uiso   1.00
C1161  C     0.18011   0.49288   0.58084   0.00000  Uiso   1.00
C1162  C     0.32787   0.50981   0.73581   0.00000  Uiso   1.00
C1163  C     0.00741   0.49158   0.76115   0.00000  Uiso   1.00
C1164  C     0.10509   0.55514   0.92181   0.00000  Uiso   1.00
C1165  C     0.18353   0.65668   0.74018   0.00000  Uiso   1.00
C1166  C     0.15034   0.34570   0.76061   0.00000  Uiso   1.00
C1167  C     0.15549   0.38973   0.75893   0.00000  Uiso   1.00
C1168  C     0.17747   0.61131   0.74159   0.00000  Uiso   1.00
C1169  C     0.18814   0.47882   0.64393   0.00000  Uiso   1.00
C1170  C     0.14558   0.52127   0.85618   0.00000  Uiso   1.00
C1171  C     0.13679   0.53013   0.89944   0.00000  Uiso   1.00
C1172  C     0.19727   0.47012   0.60126   0.00000  Uiso   1.00
C1173  C     0.09852   0.56439   0.96275   0.00000  Uiso   1.00
C1174  C     0.12151   0.61030   0.53339   0.00000  Uiso   1.00
C1175  C     0.15916   0.51154   0.91879   0.00000  Uiso   1.00
C1176  C     0.02616   0.53252   0.70219   0.00000  Uiso   1.00
C1177  C     0.02331   0.57948   0.70972   0.00000  Uiso   1.00
C1178  C     0.06001   0.60325   0.68028   0.00000  Uiso   1.00
C1179  C     0.22699   0.34668   0.71775   0.00000  Uiso   1.00
C1180  C     0.26502   0.65475   0.69698   0.00000  Uiso   1.00
C1181  C     0.30615   0.34974   0.67901   0.00000  Uiso   1.00
C1182  C     0.10495   0.66193   0.77951   0.00000  Uiso   1.00
C1183  C     0.22091   0.39278   0.96354   0.00000  Uiso   1.00
C1184  C     0.06056   0.58631   0.98496   0.00000  Uiso   1.00
C1185  C     0.18906   0.57989   0.55631   0.00000  Uiso   1.00
C1186  C     0.14993   0.51672   0.96016   0.00000  Uiso   1.00
C1187  C     0.16371   0.59779   0.59792   0.00000  Uiso   1.00
C1188  C     0.19161   0.60611   0.62647   0.00000  Uiso   1.00
C1189  C     0.16283   0.42822   0.93184   0.00000  Uiso   1.00
C1190  C     0.12564   0.54922   0.98118   0.00000  Uiso   1.00
C1191  C     0.16708   0.49249   0.98055   0.00000  Uiso   1.00
C1192  C     0.17143   0.50927   0.51844   0.00000  Uiso   1.00
C1193  C     0.16128   0.55076   0.53309   0.00000  Uiso   1.00
C1194  C     0.13389   0.56830   0.51702   0.00000  Uiso   1.00
H1195  H     0.24199   0.39988   0.52752   0.00000  Uiso   1.00
H1196  H     0.05728   0.63707   0.68683   0.00000  Uiso   1.00
H1197  H     0.32540   0.58618   0.70700   0.00000  Uiso   1.00
H1198  H     0.02476   0.59087   0.74025   0.00000  Uiso   1.00
H1199  H     0.06012   0.52706   0.69787   0.00000  Uiso   1.00
H1200  H     0.01844   0.52007   0.67402   0.00000  Uiso   1.00
H1201  H     0.30066   0.36785   0.65728   0.00000  Uiso   1.00
H1202  H     0.31620   0.37151   0.70253   0.00000  Uiso   1.00
H1203  H     0.33275   0.66394   0.66347   0.00000  Uiso   1.00
H1204  H     0.27174   0.63746   0.71868   0.00000  Uiso   1.00
H1205  H     0.25723   0.63270   0.67257   0.00000  Uiso   1.00
H1206  H     0.31754   0.47572   0.78495   0.00000  Uiso   1.00
H1207  H     0.22087   0.36311   0.69510   0.00000  Uiso   1.00
H1208  H     0.23819   0.37055   0.73929   0.00000  Uiso   1.00
H1209  H     0.08743   0.34306   0.80801   0.00000  Uiso   1.00
H1210  H     0.25509   0.39046   0.95818   0.00000  Uiso   1.00
H1211  H     0.04856   0.60666   0.97027   0.00000  Uiso   1.00
H1212  H     0.20157   0.57670   0.63079   0.00000  Uiso   1.00
H1213  H     0.22099   0.62797   0.61476   0.00000  Uiso   1.00
H1214  H     0.17286   0.62025   0.65560   0.00000  Uiso   1.00
H1215  H     0.15349   0.62801   0.59614   0.00000  Uiso   1.00
H1216  H     0.13407   0.57664   0.61037   0.00000  Uiso   1.00
H1217  H     0.15934   0.51552   0.59783   0.00000  Uiso   1.00
H1218  H     0.21634   0.56446   0.55801   0.00000  Uiso   1.00
H1219  H     0.20547   0.60635   0.53881   0.00000  Uiso   1.00
H1220  H     0.12950   0.42902   0.93232   0.00000  Uiso   1.00
H1221  H     0.23449   0.42002   0.59711   0.00000  Uiso   1.00
H1222  H     0.08526   0.56725   0.90747   0.00000  Uiso   1.00
H1223  H     0.18503   0.49391   0.90119   0.00000  Uiso   1.00
H1224  H     0.10219   0.61566   0.56387   0.00000  Uiso   1.00
H1225  H     0.09188   0.59786   0.68269   0.00000  Uiso   1.00
H1226  H     0.05815   0.59316   0.64962   0.00000  Uiso   1.00
O1227  O     0.16667   0.50000   0.75000   0.00000  Uiso   1.00
O1228  O     0.15693   0.45726   0.66625   0.00000  Uiso   1.00
O1229  O     0.12687   0.53979   0.83749   0.00000  Uiso   1.00
O1230  O     0.21088   0.50826   0.65877   0.00000  Uiso   1.00
O1231  O     0.17198   0.49468   0.83749   0.00000  Uiso   1.00
O1232  O     0.13276   0.63905   0.51281   0.00000  Uiso   1.00
O1233  O     0.08580   0.63420   0.76213   0.00000  Uiso   1.00
O1234  O     0.19709   0.36209   0.95580   0.00000  Uiso   1.00
O1235  O     0.04080   0.58000   0.51902   0.00000  Uiso   1.00
O1236  O     0.18656   0.40959   0.90346   0.00000  Uiso   1.00
O1237  O     0.17849   0.41434   0.77821   0.00000  Uiso   1.00
O1238  O     0.14581   0.59469   0.76767   0.00000  Uiso   1.00
O1239  O     0.07452   0.46584   0.73607   0.00000  Uiso   1.00
O1240  O     0.26785   0.52512   0.71806   0.00000  Uiso   1.00
O1241  O     0.06990   0.52293   0.77820   0.00000  Uiso   1.00
O1242  O     0.25440   0.48610   0.76768   0.00000  Uiso   1.00
O1243  O     0.13800   0.40236   0.73607   0.00000  Uiso   1.00
O1244  O     0.20437   0.58860   0.71806   0.00000  Uiso   1.00
Zn1245 Zn    0.19244   0.47423   0.78278   0.00000  Uiso   1.00
Zn1246 Zn    0.13459   0.45711   0.72258   0.00000  Uiso   1.00
Zn1247 Zn    0.21166   0.52997   0.71188   0.00000  Uiso   1.00
Zn1248 Zn    0.12798   0.53868   0.78277   0.00000  Uiso   1.00
C1249  C     0.38574   0.49294   0.75911   0.00000  Uiso   1.00
C1250  C     0.51276   0.45205   0.96436   0.00000  Uiso   1.00
C1251  C     0.53667   0.43246   0.98227   0.00000  Uiso   1.00
C1252  C     0.61458   0.50701   0.74084   0.00000  Uiso   1.00
C1253  C     0.54012   0.44855   0.52028   0.00000  Uiso   1.00
C1254  C     0.52044   0.48463   0.53967   0.00000  Uiso   1.00
C1255  C     0.55886   0.42679   0.54122   0.00000  Uiso   1.00
C1256  C     0.55442   0.43786   0.58129   0.00000  Uiso   1.00
C1257  C     0.51344   0.49288   0.58084   0.00000  Uiso   1.00
C1258  C     0.66121   0.50981   0.73581   0.00000  Uiso   1.00
C1259  C     0.34074   0.49158   0.76115   0.00000  Uiso   1.00
C1260  C     0.43842   0.55514   0.92181   0.00000  Uiso   1.00
C1261  C     0.51686   0.65668   0.74018   0.00000  Uiso   1.00
C1262  C     0.48367   0.34570   0.76061   0.00000  Uiso   1.00
C1263  C     0.48882   0.38973   0.75893   0.00000  Uiso   1.00
C1264  C     0.51081   0.61131   0.74159   0.00000  Uiso   1.00
C1265  C     0.52147   0.47882   0.64393   0.00000  Uiso   1.00
C1266  C     0.47892   0.52127   0.85618   0.00000  Uiso   1.00
C1267  C     0.47012   0.53013   0.89944   0.00000  Uiso   1.00
C1268  C     0.53060   0.47012   0.60126   0.00000  Uiso   1.00
C1269  C     0.43185   0.56439   0.96275   0.00000  Uiso   1.00
C1270  C     0.45484   0.61030   0.53339   0.00000  Uiso   1.00
C1271  C     0.49249   0.51154   0.91879   0.00000  Uiso   1.00
C1272  C     0.35949   0.53252   0.70219   0.00000  Uiso   1.00
C1273  C     0.35664   0.57948   0.70972   0.00000  Uiso   1.00
C1274  C     0.39334   0.60325   0.68028   0.00000  Uiso   1.00
C1275  C     0.56032   0.34668   0.71775   0.00000  Uiso   1.00
C1276  C     0.59836   0.65475   0.69698   0.00000  Uiso   1.00
C1277  C     0.63948   0.34974   0.67901   0.00000  Uiso   1.00
C1278  C     0.43829   0.66193   0.77951   0.00000  Uiso   1.00
C1279  C     0.55424   0.39278   0.96354   0.00000  Uiso   1.00
C1280  C     0.39389   0.58631   0.98496   0.00000  Uiso   1.00
C1281  C     0.52239   0.57989   0.55631   0.00000  Uiso   1.00
C1282  C     0.48327   0.51672   0.96016   0.00000  Uiso   1.00
C1283  C     0.49705   0.59779   0.59792   0.00000  Uiso   1.00
C1284  C     0.52494   0.60611   0.62647   0.00000  Uiso   1.00
C1285  C     0.49617   0.42822   0.93184   0.00000  Uiso   1.00
C1286  C     0.45897   0.54922   0.98118   0.00000  Uiso   1.00
C1287  C     0.50041   0.49249   0.98055   0.00000  Uiso   1.00
C1288  C     0.50476   0.50927   0.51844   0.00000  Uiso   1.00
C1289  C     0.49461   0.55076   0.53309   0.00000  Uiso   1.00
C1290  C     0.46723   0.56830   0.51702   0.00000  Uiso   1.00
H1291  H     0.57533   0.39988   0.52752   0.00000  Uiso   1.00
H1292  H     0.39062   0.63707   0.68683   0.00000  Uiso   1.00
H1293  H     0.65873   0.58618   0.70700   0.00000  Uiso   1.00
H1294  H     0.35810   0.59087   0.74025   0.00000  Uiso   1.00
H1295  H     0.39345   0.52706   0.69787   0.00000  Uiso   1.00
H1296  H     0.35177   0.52007   0.67402   0.00000  Uiso   1.00
H1297  H     0.63399   0.36785   0.65728   0.00000  Uiso   1.00
H1298  H     0.64953   0.37151   0.70253   0.00000  Uiso   1.00
H1299  H     0.66608   0.66394   0.66347   0.00000  Uiso   1.00
H1300  H     0.60507   0.63746   0.71868   0.00000  Uiso   1.00
H1301  H     0.59056   0.63270   0.67257   0.00000  Uiso   1.00
H1302  H     0.65088   0.47572   0.78495   0.00000  Uiso   1.00
H1303  H     0.55421   0.36311   0.69510   0.00000  Uiso   1.00
H1304  H     0.57152   0.37055   0.73929   0.00000  Uiso   1.00
H1305  H     0.42076   0.34306   0.80801   0.00000  Uiso   1.00
H1306  H     0.58842   0.39046   0.95818   0.00000  Uiso   1.00
H1307  H     0.38189   0.60666   0.97027   0.00000  Uiso   1.00
H1308  H     0.53491   0.57670   0.63079   0.00000  Uiso   1.00
H1309  H     0.55432   0.62797   0.61476   0.00000  Uiso   1.00
H1310  H     0.50619   0.62025   0.65560   0.00000  Uiso   1.00
H1311  H     0.48683   0.62801   0.59614   0.00000  Uiso   1.00
H1312  H     0.46740   0.57664   0.61037   0.00000  Uiso   1.00
H1313  H     0.49268   0.51552   0.59783   0.00000  Uiso   1.00
H1314  H     0.54967   0.56446   0.55801   0.00000  Uiso   1.00
H1315  H     0.53880   0.60635   0.53881   0.00000  Uiso   1.00
H1316  H     0.46284   0.42902   0.93232   0.00000  Uiso   1.00
H1317  H     0.56783   0.42002   0.59711   0.00000  Uiso   1.00
H1318  H     0.41859   0.56725   0.90747   0.00000  Uiso   1.00
H1319  H     0.51836   0.49391   0.90119   0.00000  Uiso   1.00
H1320  H     0.43552   0.61566   0.56387   0.00000  Uiso   1.00
H1321  H     0.42521   0.59786   0.68269   0.00000  Uiso   1.00
H1322  H     0.39148   0.59316   0.64962   0.00000  Uiso   1.00
O1323  O     0.50000   0.50000   0.75000   0.00000  Uiso   1.00
O1324  O     0.49027   0.45726   0.66625   0.00000  Uiso   1.00
O1325  O     0.46020   0.53979   0.83749   0.00000  Uiso   1.00
O1326  O     0.54421   0.50826   0.65877   0.00000  Uiso   1.00
O1327  O     0.50532   0.49468   0.83749   0.00000  Uiso   1.00
O1328  O     0.46609   0.63905   0.51281   0.00000  Uiso   1.00
O1329  O     0.41914   0.63420   0.76213   0.00000  Uiso   1.00
O1330  O     0.53043   0.36209   0.95580   0.00000  Uiso   1.00
O1331  O     0.37413   0.58000   0.51902   0.00000  Uiso   1.00
O1332  O     0.51989   0.40959   0.90346   0.00000  Uiso   1.00
O1333  O     0.51182   0.41434   0.77821   0.00000  Uiso   1.00
O1334  O     0.47914   0.59469   0.76767   0.00000  Uiso   1.00
O1335  O     0.40785   0.46584   0.73607   0.00000  Uiso   1.00
O1336  O     0.60119   0.52512   0.71806   0.00000  Uiso   1.00
O1337  O     0.40323   0.52293   0.77820   0.00000  Uiso   1.00
O1338  O     0.58773   0.48610   0.76768   0.00000  Uiso   1.00
O1339  O     0.47133   0.40236   0.73607   0.00000  Uiso   1.00
O1340  O     0.53771   0.58860   0.71806   0.00000  Uiso   1.00
Zn1341 Zn    0.52577   0.47423   0.78278   0.00000  Uiso   1.00
Zn1342 Zn    0.46792   0.45711   0.72258   0.00000  Uiso   1.00
Zn1343 Zn    0.54500   0.52997   0.71188   0.00000  Uiso   1.00
Zn1344 Zn    0.46131   0.53868   0.78277   0.00000  Uiso   1.00
C1345  C     0.71907   0.49294   0.75911   0.00000  Uiso   1.00
C1346  C     0.84610   0.45205   0.96436   0.00000  Uiso   1.00
C1347  C     0.87001   0.43246   0.98227   0.00000  Uiso   1.00
C1348  C     0.94791   0.50701   0.74084   0.00000  Uiso   1.00
C1349  C     0.87346   0.44855   0.52028   0.00000  Uiso   1.00
C1350  C     0.85377   0.48463   0.53967   0.00000  Uiso   1.00
C1351  C     0.89220   0.42679   0.54122   0.00000  Uiso   1.00
C1352  C     0.88775   0.43786   0.58129   0.00000  Uiso   1.00
C1353  C     0.84678   0.49288   0.58084   0.00000  Uiso   1.00
C1354  C     0.99454   0.50981   0.73581   0.00000  Uiso   1.00
C1355  C     0.67408   0.49158   0.76115   0.00000  Uiso   1.00
C1356  C     0.77176   0.55514   0.92181   0.00000  Uiso   1.00
C1357  C     0.85019   0.65668   0.74018   0.00000  Uiso   1.00
C1358  C     0.81700   0.34570   0.76061   0.00000  Uiso   1.00
C1359  C     0.82216   0.38973   0.75893   0.00000  Uiso   1.00
C1360  C     0.84414   0.61131   0.74159   0.00000  Uiso   1.00
C1361  C     0.85481   0.47882   0.64393   0.00000  Uiso   1.00
C1362  C     0.81225   0.52127   0.85618   0.00000  Uiso   1.00
C1363  C     0.80346   0.53013   0.89944   0.00000  Uiso   1.00
C1364  C     0.86393   0.47012   0.60126   0.00000  Uiso   1.00
C1365  C     0.76519   0.56439   0.96275   0.00000  Uiso   1.00
C1366  C     0.78817   0.61030   0.53339   0.00000  Uiso   1.00
C1367  C     0.82583   0.51154   0.91879   0.00000  Uiso   1.00
C1368  C     0.69283   0.53252   0.70219   0.00000  Uiso   1.00
C1369  C     0.68998   0.57948   0.70972   0.00000  Uiso   1.00
C1370  C     0.72668   0.60325   0.68028   0.00000  Uiso   1.00
C1371  C     0.89366   0.34668   0.71775   0.00000  Uiso   1.00
C1372  C     0.93169   0.65475   0.69698   0.00000  Uiso   1.00
C1373  C     0.97281   0.34974   0.67901   0.00000  Uiso   1.00
C1374  C     0.77162   0.66193   0.77951   0.00000  Uiso   1.00
C1375  C     0.88758   0.39278   0.96354   0.00000  Uiso   1.00
C1376  C     0.72723   0.58631   0.98496   0.00000  Uiso   1.00
C1377  C     0.85573   0.57989   0.55631   0.00000  Uiso   1.00
C1378  C     0.81660   0.51672   0.96016   0.00000  Uiso   1.00
C1379  C     0.83038   0.59779   0.59792   0.00000  Uiso   1.00
C1380  C     0.85828   0.60611   0.62647   0.00000  Uiso   1.00
C1381  C     0.82950   0.42822   0.93184   0.00000  Uiso   1.00
C1382  C     0.79231   0.54922   0.98118   0.00000  Uiso   1.00
C1383  C     0.83374   0.49249   0.98055   0.00000  Uiso   1.00
C1384  C     0.83810   0.50927   0.51844   0.00000  Uiso   1.00
C1385  C     0.82794   0.55076   0.53309   0.00000  Uiso   1.00
C1386  C     0.80056   0.56830   0.51702   0.00000  Uiso   1.00
H1387  H     0.90866   0.39988   0.52752   0.00000  Uiso   1.00
H1388  H     0.72395   0.63707   0.68683   0.00000  Uiso   1.00
H1389  H     0.99206   0.58618   0.70700   0.00000  Uiso   1.00
H1390  H     0.69143   0.59087   0.74025   0.00000  Uiso   1.00
H1391  H     0.72678   0.52706   0.69787   0.00000  Uiso   1.00
H1392  H     0.68511   0.52007   0.67402   0.00000  Uiso   1.00
H1393  H     0.96732   0.36785   0.65728   0.00000  Uiso   1.00
H1394  H     0.98286   0.37151   0.70253   0.00000  Uiso   1.00
H1395  H     0.99941   0.66394   0.66347   0.00000  Uiso   1.00
H1396  H     0.93840   0.63746   0.71868   0.00000  Uiso   1.00
H1397  H     0.92390   0.63270   0.67257   0.00000  Uiso   1.00
H1398  H     0.98421   0.47572   0.78495   0.00000  Uiso   1.00
H1399  H     0.88754   0.36311   0.69510   0.00000  Uiso   1.00
H1400  H     0.90485   0.37055   0.73929   0.00000  Uiso   1.00
H1401  H     0.75409   0.34306   0.80801   0.00000  Uiso   1.00
H1402  H     0.92175   0.39046   0.95818   0.00000  Uiso   1.00
H1403  H     0.71523   0.60666   0.97027   0.00000  Uiso   1.00
H1404  H     0.86824   0.57670   0.63079   0.00000  Uiso   1.00
H1405  H     0.88765   0.62797   0.61476   0.00000  Uiso   1.00
H1406  H     0.83952   0.62025   0.65560   0.00000  Uiso   1.00
H1407  H     0.82016   0.62801   0.59614   0.00000  Uiso   1.00
H1408  H     0.80074   0.57664   0.61037   0.00000  Uiso   1.00
H1409  H     0.82601   0.51552   0.59783   0.00000  Uiso   1.00
H1410  H     0.88300   0.56446   0.55801   0.00000  Uiso   1.00
H1411  H     0.87213   0.60635   0.53881   0.00000  Uiso   1.00
H1412  H     0.79617   0.42902   0.93232   0.00000  Uiso   1.00
H1413  H     0.90116   0.42002   0.59711   0.00000  Uiso   1.00
H1414  H     0.75192   0.56725   0.90747   0.00000  Uiso   1.00
H1415  H     0.85170   0.49391   0.90119   0.00000  Uiso   1.00
H1416  H     0.76885   0.61566   0.56387   0.00000  Uiso   1.00
H1417  H     0.75855   0.59786   0.68269   0.00000  Uiso   1.00
H1418  H     0.72482   0.59316   0.64962   0.00000  Uiso   1.00
O1419  O     0.83333   0.50000   0.75000   0.00000  Uiso   1.00
O1420  O     0.82360   0.45726   0.66625   0.00000  Uiso   1.00
O1421  O     0.79354   0.53979   0.83749   0.00000  Uiso   1.00
O1422  O     0.87755   0.50826   0.65877   0.00000  Uiso   1.00
O1423  O     0.83865   0.49468   0.83749   0.00000  Uiso   1.00
O1424  O     0.79942   0.63905   0.51281   0.00000  Uiso   1.00
O1425  O     0.75247   0.63420   0.76213   0.00000  Uiso   1.00
O1426  O     0.86376   0.36209   0.95580   0.00000  Uiso   1.00
O1427  O     0.70746   0.58000   0.51902   0.00000  Uiso   1.00
O1428  O     0.85323   0.40959   0.90346   0.00000  Uiso   1.00
O1429  O     0.84515   0.41434   0.77821   0.00000  Uiso   1.00
O1430  O     0.81247   0.59469   0.76767   0.00000  Uiso   1.00
O1431  O     0.74119   0.46584   0.73607   0.00000  Uiso   1.00
O1432  O     0.93452   0.52512   0.71806   0.00000  Uiso   1.00
O1433  O     0.73656   0.52293   0.77820   0.00000  Uiso   1.00
O1434  O     0.92106   0.48610   0.76768   0.00000  Uiso   1.00
O1435  O     0.80467   0.40236   0.73607   0.00000  Uiso   1.00
O1436  O     0.87104   0.58860   0.71806   0.00000  Uiso   1.00
Zn1437 Zn    0.85910   0.47423   0.78278   0.00000  Uiso   1.00
Zn1438 Zn    0.80125   0.45711   0.72258   0.00000  Uiso   1.00
Zn1439 Zn    0.87833   0.52997   0.71188   0.00000  Uiso   1.00
Zn1440 Zn    0.79465   0.53868   0.78277   0.00000  Uiso   1.00
C1441  C     0.05240   0.82627   0.75911   0.00000  Uiso   1.00
C1442  C     0.17943   0.78539   0.96436   0.00000  Uiso   1.00
C1443  C     0.20334   0.76579   0.98227   0.00000  Uiso   1.00
C1444  C     0.28125   0.84034   0.74084   0.00000  Uiso   1.00
C1445  C     0.20679   0.78188   0.52028   0.00000  Uiso   1.00
C1446  C     0.18711   0.81796   0.53967   0.00000  Uiso   1.00
C1447  C     0.22553   0.76012   0.54122   0.00000  Uiso   1.00
C1448  C     0.22109   0.77119   0.58129   0.00000  Uiso   1.00
C1449  C     0.18011   0.82621   0.58084   0.00000  Uiso   1.00
C1450  C     0.32787   0.84314   0.73581   0.00000  Uiso   1.00
C1451  C     0.00741   0.82491   0.76115   0.00000  Uiso   1.00
C1452  C     0.10509   0.88847   0.92181   0.00000  Uiso   1.00
C1453  C     0.18353   0.99001   0.74018   0.00000  Uiso   1.00
C1454  C     0.15034   0.67903   0.76061   0.00000  Uiso   1.00
C1455  C     0.15549   0.72306   0.75893   0.00000  Uiso   1.00
C1456  C     0.17747   0.94465   0.74159   0.00000  Uiso   1.00
C1457  C     0.18814   0.81216   0.64393   0.00000  Uiso   1.00
C1458  C     0.14558   0.85460   0.85618   0.00000  Uiso   1.00
C1459  C     0.13679   0.86346   0.89944   0.00000  Uiso   1.00
C1460  C     0.19727   0.80346   0.60126   0.00000  Uiso   1.00
C1461  C     0.09852   0.89772   0.96275   0.00000  Uiso   1.00
C1462  C     0.12151   0.94364   0.53339   0.00000  Uiso   1.00
C1463  C     0.15916   0.84487   0.91879   0.00000  Uiso   1.00
C1464  C     0.02616   0.86586   0.70219   0.00000  Uiso   1.00
C1465  C     0.02331   0.91281   0.70972   0.00000  Uiso   1.00
C1466  C     0.06001   0.93659   0.68028   0.00000  Uiso   1.00
C1467  C     0.22699   0.68002   0.71775   0.00000  Uiso   1.00
C1468  C     0.26502   0.98808   0.69698   0.00000  Uiso   1.00
C1469  C     0.30615   0.68308   0.67901   0.00000  Uiso   1.00
C1470  C     0.10495   0.99527   0.77951   0.00000  Uiso   1.00
C1471  C     0.22091   0.72612   0.96354   0.00000  Uiso   1.00
C1472  C     0.06056   0.91964   0.98496   0.00000  Uiso   1.00
C1473  C     0.18906   0.91322   0.55631   0.00000  Uiso   1.00
C1474  C     0.14993   0.85005   0.96016   0.00000  Uiso   1.00
C1475  C     0.16371   0.93112   0.59792   0.00000  Uiso   1.00
C1476  C     0.19161   0.93945   0.62647   0.00000  Uiso   1.00
C1477  C     0.16283   0.76155   0.93184   0.00000  Uiso   1.00
C1478  C     0.12564   0.88256   0.98118   0.00000  Uiso   1.00
C1479  C     0.16708   0.82582   0.98055   0.00000  Uiso   1.00
C1480  C     0.17143   0.84261   0.51844   0.00000  Uiso   1.00
C1481  C     0.16128   0.88410   0.53309   0.00000  Uiso   1.00
C1482  C     0.13389   0.90164   0.51702   0.00000  Uiso   1.00
H1483  H     0.24199   0.73321   0.52752   0.00000  Uiso   1.00
H1484  H     0.05728   0.97040   0.68683   0.00000  Uiso   1.00
H1485  H     0.32540   0.91952   0.70700   0.00000  Uiso   1.00
H1486  H     0.02476   0.92420   0.74025   0.00000  Uiso   1.00
H1487  H     0.06012   0.86039   0.69787   0.00000  Uiso   1.00
H1488  H     0.01844   0.85340   0.67402   0.00000  Uiso   1.00
H1489  H     0.30066   0.70118   0.65728   0.00000  Uiso   1.00
H1490  H     0.31620   0.70485   0.70253   0.00000  Uiso   1.00
H1491  H     0.33275   0.99727   0.66347   0.00000  Uiso   1.00
H1492  H     0.27174   0.97079   0.71868   0.00000  Uiso   1.00
H1493  H     0.25723   0.96603   0.67257   0.00000  Uiso   1.00
H1494  H     0.31754   0.80905   0.78495   0.00000  Uiso   1.00
H1495  H     0.22087   0.69644   0.69510   0.00000  Uiso   1.00
H1496  H     0.23819   0.70389   0.73929   0.00000  Uiso   1.00
H1497  H     0.08743   0.67639   0.80801   0.00000  Uiso   1.00
H1498  H     0.25509   0.72380   0.95818   0.00000  Uiso   1.00
H1499  H     0.04856   0.93999   0.97027   0.00000  Uiso   1.00
H1500  H     0.20157   0.91004   0.63079   0.00000  Uiso   1.00
H1501  H     0.22099   0.96131   0.61476   0.00000  Uiso   1.00
H1502  H     0.17286   0.95359   0.65560   0.00000  Uiso   1.00
H1503  H     0.15349   0.96135   0.59614   0.00000  Uiso   1.00
H1504  H     0.13407   0.90997   0.61037   0.00000  Uiso   1.00
H1505  H     0.15934   0.84885   0.59783   0.00000  Uiso   1.00
H1506  H     0.21634   0.89779   0.55801   0.00000  Uiso   1.00
H1507  H     0.20547   0.93968   0.53881   0.00000  Uiso   1.00
H1508  H     0.12950   0.76236   0.93232   0.00000  Uiso   1.00
H1509  H     0.23449   0.75335   0.59711   0.00000  Uiso   1.00
H1510  H     0.08526   0.90059   0.90747   0.00000  Uiso   1.00
H1511  H     0.18503   0.82724   0.90119   0.00000  Uiso   1.00
H1512  H     0.10219   0.94899   0.56387   0.00000  Uiso   1.00
H1513  H     0.09188   0.93119   0.68269   0.00000  Uiso   1.00
H1514  H     0.05815   0.92649   0.64962   0.00000  Uiso   1.00
O1515  O     0.16667   0.83333   0.75000   0.00000  Uiso   1.00
O1516  O     0.15693   0.79060   0.66625   0.00000  Uiso   1.00
O1517  O     0.12687   0.87313   0.83749   0.00000  Uiso   1.00
O1518  O     0.21088   0.84159   0.65877   0.00000  Uiso   1.00
O1519  O     0.17198   0.82802   0.83749   0.00000  Uiso   1.00
O1520  O     0.13276   0.97239   0.51281   0.00000  Uiso   1.00
O1521  O     0.08580   0.96753   0.76213   0.00000  Uiso   1.00
O1522  O     0.19709   0.69542   0.95580   0.00000  Uiso   1.00
O1523  O     0.04080   0.91334   0.51902   0.00000  Uiso   1.00
O1524  O     0.18656   0.74292   0.90346   0.00000  Uiso   1.00
O1525  O     0.17849   0.74768   0.77821   0.00000  Uiso   1.00
O1526  O     0.14581   0.92803   0.76767   0.00000  Uiso   1.00
O1527  O     0.07452   0.79917   0.73607   0.00000  Uiso   1.00
O1528  O     0.26785   0.85845   0.71806   0.00000  Uiso   1.00
O1529  O     0.06990   0.85627   0.77820   0.00000  Uiso   1.00
O1530  O     0.25440   0.81944   0.76768   0.00000  Uiso   1.00
O1531  O     0.13800   0.73570   0.73607   0.00000  Uiso   1.00
O1532  O     0.20437   0.92193   0.71806   0.00000  Uiso   1.00
Zn1533 Zn    0.19244   0.80756   0.78278   0.00000  Uiso   1.00
Zn1534 Zn    0.13459   0.79044   0.72258   0.00000  Uiso   1.00
Zn1535 Zn    0.21166   0.86331   0.71188   0.00000  Uiso   1.00
Zn1536 Zn    0.12798   0.87202   0.78277   0.00000  Uiso   1.00
C1537  C     0.38574   0.82627   0.75911   0.00000  Uiso   1.00
C1538  C     0.51276   0.78539   0.96436   0.00000  Uiso   1.00
C1539  C     0.53667   0.76579   0.98227   0.00000  Uiso   1.00
C1540  C     0.61458   0.84034   0.74084   0.00000  Uiso   1.00
C1541  C     0.54012   0.78188   0.52028   0.00000  Uiso   1.00
C1542  C     0.52044   0.81796   0.53967   0.00000  Uiso   1.00
C1543  C     0.55886   0.76012   0.54122   0.00000  Uiso   1.00
C1544  C     0.55442   0.77119   0.58129   0.00000  Uiso   1.00
C1545  C     0.51344   0.82621   0.58084   0.00000  Uiso   1.00
C1546  C     0.66121   0.84314   0.73581   0.00000  Uiso   1.00
C1547  C     0.34074   0.82491   0.76115   0.00000  Uiso   1.00
C1548  C     0.43842   0.88847   0.92181   0.00000  Uiso   1.00
C1549  C     0.51686   0.99001   0.74018   0.00000  Uiso   1.00
C1550  C     0.48367   0.67903   0.76061   0.00000  Uiso   1.00
C1551  C     0.48882   0.72306   0.75893   0.00000  Uiso   1.00
C1552  C     0.51081   0.94465   0.74159   0.00000  Uiso   1.00
C1553  C     0.52147   0.81216   0.64393   0.00000  Uiso   1.00
C1554  C     0.47892   0.85460   0.85618   0.00000  Uiso   1.00
C1555  C     0.47012   0.86346   0.89944   0.00000  Uiso   1.00
C1556  C     0.53060   0.80346   0.60126   0.00000  Uiso   1.00
C1557  C     0.43185   0.89772   0.96275   0.00000  Uiso   1.00
C1558  C     0.45484   0.94364   0.53339   0.00000  Uiso   1.00
C1559  C     0.49249   0.84487   0.91879   0.00000  Uiso   1.00
C1560  C     0.35949   0.86586   0.70219   0.00000  Uiso   1.00
C1561  C     0.35664   0.91281   0.70972   0.00000  Uiso   1.00
C1562  C     0.39334   0.93659   0.68028   0.00000  Uiso   1.00
C1563  C     0.56032   0.68002   0.71775   0.00000  Uiso   1.00
C1564  C     0.59836   0.98808   0.69698   0.00000  Uiso   1.00
C1565  C     0.63948   0.68308   0.67901   0.00000  Uiso   1.00
C1566  C     0.43829   0.99527   0.77951   0.00000  Uiso   1.00
C1567  C     0.55424   0.72612   0.96354   0.00000  Uiso   1.00
C1568  C     0.39389   0.91964   0.98496   0.00000  Uiso   1.00
C1569  C     0.52239   0.91322   0.55631   0.00000  Uiso   1.00
C1570  C     0.48327   0.85005   0.96016   0.00000  Uiso   1.00
C1571  C     0.49705   0.93112   0.59792   0.00000  Uiso   1.00
C1572  C     0.52494   0.93945   0.62647   0.00000  Uiso   1.00
C1573  C     0.49617   0.76155   0.93184   0.00000  Uiso   1.00
C1574  C     0.45897   0.88256   0.98118   0.00000  Uiso   1.00
C1575  C     0.50041   0.82582   0.98055   0.00000  Uiso   1.00
C1576  C     0.50476   0.84261   0.51844   0.00000  Uiso   1.00
C1577  C     0.49461   0.88410   0.53309   0.00000  Uiso   1.00
C1578  C     0.46723   0.90164   0.51702   0.00000  Uiso   1.00
H1579  H     0.57533   0.73321   0.52752   0.00000  Uiso   1.00
H1580  H     0.39062   0.97040   0.68683   0.00000  Uiso   1.00
H1581  H     0.65873   0.91952   0.70700   0.00000  Uiso   1.00
H1582  H     0.35810   0.92420   0.74025   0.00000  Uiso   1.00
H1583  H     0.39345   0.86039   0.69787   0.00000  Uiso   1.00
H1584  H     0.35177   0.85340   0.67402   0.00000  Uiso   1.00
H1585  H     0.63399   0.70118   0.65728   0.00000  Uiso   1.00
H1586  H     0.64953   0.70485   0.70253   0.00000  Uiso   1.00
H1587  H     0.66608   0.99727   0.66347   0.00000  Uiso   1.00
H1588  H     0.60507   0.97079   0.71868   0.00000  Uiso   1.00
H1589  H     0.59056   0.96603   0.67257   0.00000  Uiso   1.00
H1590  H     0.65088   0.80905   0.78495   0.00000  Uiso   1.00
H1591  H     0.55421   0.69644   0.69510   0.00000  Uiso   1.00
H1592  H     0.57152   0.70389   0.73929   0.00000  Uiso   1.00
H1593  H     0.42076   0.67639   0.80801   0.00000  Uiso   1.00
H1594  H     0.58842   0.72380   0.95818   0.00000  Uiso   1.00
H1595  H     0.38189   0.93999   0.97027   0.00000  Uiso   1.00
H1596  H     0.53491   0.91004   0.63079   0.00000  Uiso   1.00
H1597  H     0.55432   0.96131   0.61476   0.00000  Uiso   1.00
H1598  H     0.50619   0.95359   0.65560   0.00000  Uiso   1.00
H1599  H     0.48683   0.96135   0.59614   0.00000  Uiso   1.00
H1600  H     0.46740   0.90997   0.61037   0.00000  Uiso   1.00
H1601  H     0.49268   0.84885   0.59783   0.00000  Uiso   1.00
H1602  H     0.54967   0.89779   0.55801   0.00000  Uiso   1.00
H1603  H     0.53880   0.93968   0.53881   0.00000  Uiso   1.00
H1604  H     0.46284   0.76236   0.93232   0.00000  Uiso   1.00
H1605  H     0.56783   0.75335   0.59711   0.00000  Uiso   1.00
H1606  H     0.41859   0.90059   0.90747   0.00000  Uiso   1.00
H1607  H     0.51836   0.82724   0.90119   0.00000  Uiso   1.00
H1608  H     0.43552   0.94899   0.56387   0.00000  Uiso   1.00
H1609  H     0.42521   0.93119   0.68269   0.00000  Uiso   1.00
H1610  H     0.39148   0.92649   0.64962   0.00000  Uiso   1.00
O1611  O     0.50000   0.83333   0.75000   0.00000  Uiso   1.00
O1612  O     0.49027   0.79060   0.66625   0.00000  Uiso   1.00
O1613  O     0.46020   0.87313   0.83749   0.00000  Uiso   1.00
O1614  O     0.54421   0.84159   0.65877   0.00000  Uiso   1.00
O1615  O     0.50532   0.82802   0.83749   0.00000  Uiso   1.00
O1616  O     0.46609   0.97239   0.51281   0.00000  Uiso   1.00
O1617  O     0.41914   0.96753   0.76213   0.00000  Uiso   1.00
O1618  O     0.53043   0.69542   0.95580   0.00000  Uiso   1.00
O1619  O     0.37413   0.91334   0.51902   0.00000  Uiso   1.00
O1620  O     0.51989   0.74292   0.90346   0.00000  Uiso   1.00
O1621  O     0.51182   0.74768   0.77821   0.00000  Uiso   1.00
O1622  O     0.47914   0.92803   0.76767   0.00000  Uiso   1.00
O1623  O     0.40785   0.79917   0.73607   0.00000  Uiso   1.00
O1624  O     0.60119   0.85845   0.71806   0.00000  Uiso   1.00
O1625  O     0.40323   0.85627   0.77820   0.00000  Uiso   1.00
O1626  O     0.58773   0.81944   0.76768   0.00000  Uiso   1.00
O1627  O     0.47133   0.73570   0.73607   0.00000  Uiso   1.00
O1628  O     0.53771   0.92193   0.71806   0.00000  Uiso   1.00
Zn1629 Zn    0.52577   0.80756   0.78278   0.00000  Uiso   1.00
Zn1630 Zn    0.46792   0.79044   0.72258   0.00000  Uiso   1.00
Zn1631 Zn    0.54500   0.86331   0.71188   0.00000  Uiso   1.00
Zn1632 Zn    0.46131   0.87202   0.78277   0.00000  Uiso   1.00
C1633  C     0.71907   0.82627   0.75911   0.00000  Uiso   1.00
C1634  C     0.84610   0.78539   0.96436   0.00000  Uiso   1.00
C1635  C     0.87001   0.76579   0.98227   0.00000  Uiso   1.00
C1636  C     0.94791   0.84034   0.74084   0.00000  Uiso   1.00
C1637  C     0.87346   0.78188   0.52028   0.00000  Uiso   1.00
C1638  C     0.85377   0.81796   0.53967   0.00000  Uiso   1.00
C1639  C     0.89220   0.76012   0.54122   0.00000  Uiso   1.00
C1640  C     0.88775   0.77119   0.58129   0.00000  Uiso   1.00
C1641  C     0.84678   0.82621   0.58084   0.00000  Uiso   1.00
C1642  C     0.99454   0.84314   0.73581   0.00000  Uiso   1.00
C1643  C     0.67408   0.82491   0.76115   0.00000  Uiso   1.00
C1644  C     0.77176   0.88847   0.92181   0.00000  Uiso   1.00
C1645  C     0.85019   0.99001   0.74018   0.00000  Uiso   1.00
C1646  C     0.81700   0.67903   0.76061   0.00000  Uiso   1.00
C1647  C     0.82216   0.72306   0.75893   0.00000  Uiso   1.00
C1648  C     0.84414   0.94465   0.74159   0.00000  Uiso   1.00
C1649  C     0.85481   0.81216   0.64393   0.00000  Uiso   1.00
C1650  C     0.81225   0.85460   0.85618   0.00000  Uiso   1.00
C1651  C     0.80346   0.86346   0.89944   0.00000  Uiso   1.00
C1652  C     0.86393   0.80346   0.60126   0.00000  Uiso   1.00
C1653  C     0.76519   0.89772   0.96275   0.00000  Uiso   1.00
C1654  C     0.78817   0.94364   0.53339   0.00000  Uiso   1.00
C1655  C     0.82583   0.84487   0.91879   0.00000  Uiso   1.00
C1656  C     0.69283   0.86586   0.70219   0.00000  Uiso   1.00
C1657  C     0.68998   0.91281   0.70972   0.00000  Uiso   1.00
C1658  C     0.72668   0.93659   0.68028   0.00000  Uiso   1.00
C1659  C     0.89366   0.68002   0.71775   0.00000  Uiso   1.00
C1660  C     0.93169   0.98808   0.69698   0.00000  Uiso   1.00
C1661  C     0.97281   0.68308   0.67901   0.00000  Uiso   1.00
C1662  C     0.77162   0.99527   0.77951   0.00000  Uiso   1.00
C1663  C     0.88758   0.72612   0.96354   0.00000  Uiso   1.00
C1664  C     0.72723   0.91964   0.98496   0.00000  Uiso   1.00
C1665  C     0.85573   0.91322   0.55631   0.00000  Uiso   1.00
C1666  C     0.81660   0.85005   0.96016   0.00000  Uiso   1.00
C1667  C     0.83038   0.93112   0.59792   0.00000  Uiso   1.00
C1668  C     0.85828   0.93945   0.62647   0.00000  Uiso   1.00
C1669  C     0.82950   0.76155   0.93184   0.00000  Uiso   1.00
C1670  C     0.79231   0.88256   0.98118   0.00000  Uiso   1.00
C1671  C     0.83374   0.82582   0.98055   0.00000  Uiso   1.00
C1672  C     0.83810   0.84261   0.51844   0.00000  Uiso   1.00
C1673  C     0.82794   0.88410   0.53309   0.00000  Uiso   1.00
C1674  C     0.80056   0.90164   0.51702   0.00000  Uiso   1.00
H1675  H     0.90866   0.73321   0.52752   0.00000  Uiso   1.00
H1676  H     0.72395   0.97040   0.68683   0.00000  Uiso   1.00
H1677  H     0.99206   0.91952   0.70700   0.00000  Uiso   1.00
H1678  H     0.69143   0.92420   0.74025   0.00000  Uiso   1.00
H1679  H     0.72678   0.86039   0.69787   0.00000  Uiso   1.00
H1680  H     0.68511   0.85340   0.67402   0.00000  Uiso   1.00
H1681  H     0.96732   0.70118   0.65728   0.00000  Uiso   1.00
H1682  H     0.98286   0.70485   0.70253   0.00000  Uiso   1.00
H1683  H     0.99941   0.99727   0.66347   0.00000  Uiso   1.00
H1684  H     0.93840   0.97079   0.71868   0.00000  Uiso   1.00
H1685  H     0.92390   0.96603   0.67257   0.00000  Uiso   1.00
H1686  H     0.98421   0.80905   0.78495   0.00000  Uiso   1.00
H1687  H     0.88754   0.69644   0.69510   0.00000  Uiso   1.00
H1688  H     0.90485   0.70389   0.73929   0.00000  Uiso   1.00
H1689  H     0.75409   0.67639   0.80801   0.00000  Uiso   1.00
H1690  H     0.92175   0.72380   0.95818   0.00000  Uiso   1.00
H1691  H     0.71523   0.93999   0.97027   0.00000  Uiso   1.00
H1692  H     0.86824   0.91004   0.63079   0.00000  Uiso   1.00
H1693  H     0.88765   0.96131   0.61476   0.00000  Uiso   1.00
H1694  H     0.83952   0.95359   0.65560   0.00000  Uiso   1.00
H1695  H     0.82016   0.96135   0.59614   0.00000  Uiso   1.00
H1696  H     0.80074   0.90997   0.61037   0.00000  Uiso   1.00
H1697  H     0.82601   0.84885   0.59783   0.00000  Uiso   1.00
H1698  H     0.88300   0.89779   0.55801   0.00000  Uiso   1.00
H1699  H     0.87213   0.93968   0.53881   0.00000  Uiso   1.00
H1700  H     0.79617   0.76236   0.93232   0.00000  Uiso   1.00
H1701  H     0.90116   0.75335   0.59711   0.00000  Uiso   1.00
H1702  H     0.75192   0.90059   0.90747   0.00000  Uiso   1.00
H1703  H     0.85170   0.82724   0.90119   0.00000  Uiso   1.00
H1704  H     0.76885   0.94899   0.56387   0.00000  Uiso   1.00
H1705  H     0.75855   0.93119   0.68269   0.00000  Uiso   1.00
H1706  H     0.72482   0.92649   0.64962   0.00000  Uiso   1.00
O1707  O     0.83333   0.83333   0.75000   0.00000  Uiso   1.00
O1708  O     0.82360   0.79060   0.66625   0.00000  Uiso   1.00
O1709  O     0.79354   0.87313   0.83749   0.00000  Uiso   1.00
O1710  O     0.87755   0.84159   0.65877   0.00000  Uiso   1.00
O1711  O     0.83865   0.82802   0.83749   0.00000  Uiso   1.00
O1712  O     0.79942   0.97239   0.51281   0.00000  Uiso   1.00
O1713  O     0.75247   0.96753   0.76213   0.00000  Uiso   1.00
O1714  O     0.86376   0.69542   0.95580   0.00000  Uiso   1.00
O1715  O     0.70746   0.91334   0.51902   0.00000  Uiso   1.00
O1716  O     0.85323   0.74292   0.90346   0.00000  Uiso   1.00
O1717  O     0.84515   0.74768   0.77821   0.00000  Uiso   1.00
O1718  O     0.81247   0.92803   0.76767   0.00000  Uiso   1.00
O1719  O     0.74119   0.79917   0.73607   0.00000  Uiso   1.00
O1720  O     0.93452   0.85845   0.71806   0.00000  Uiso   1.00
O1721  O     0.73656   0.85627   0.77820   0.00000  Uiso   1.00
O1722  O     0.92106   0.81944   0.76768   0.00000  Uiso   1.00
O1723  O     0.80467   0.73570   0.73607   0.00000  Uiso   1.00
O1724  O     0.87104   0.92193   0.71806   0.00000  Uiso   1.00
Zn1725 Zn    0.85910   0.80756   0.78278   0.00000  Uiso   1.00
Zn1726 Zn    0.80125   0.79044   0.72258   0.00000  Uiso   1.00
Zn1727 Zn    0.87833   0.86331   0.71188   0.00000  Uiso   1.00
Zn1728 Zn    0.79465   0.87202   0.78277   0.00000  Uiso   1.00
loop_
_geom_bond_atom_site_label_1
_geom_bond_atom_site_label_2
_geom_bond_distance
_geom_bond_site_symmetry_2
_ccdc_geom_bond_type
C1     O87     1.271   .     A
C1     C11     1.440   .     S
C1     O89     1.270   .     A
C2     C39     1.433   .     A
C2     C3      1.415   .     A
C2     C37     1.491   .     S
C3     C31     1.488   .     S
C3     C869    1.410   .     S
C4     O90     1.284   .     A
C4     C10     1.465   .     S
C4     O88     1.279   .     A
C5     C6      1.421   .     A
C5     C7      1.416   .     A
C5     C867    1.410   1_554 S
C6     C9      1.407   .     A
C6     C40     1.423   .     A
C7     C8      1.390   .     A
C7     H43     1.081   .     S
C8     H69     1.084   .     S
C8     C20     1.390   .     A
C9     C20     1.390   .     A
C9     H65     1.075   .     S
C10    C107    1.346   .     S
C10    C120    1.526   .     S
C11    C202    1.346   1_455 S
C11    H246    1.086   1_455 S
C12    C21     1.403   .     A
C12    H70     1.084   .     S
C12    C19     1.398   .     A
C13    C16     1.474   .     S
C13    C302    1.363   .     S
C13    C315    1.545   .     S
C14    C15     1.434   .     S
C14    C589    1.363   1_545 S
C14    C606    1.485   1_545 S
C15    O85     1.280   .     A
C15    O91     1.269   .     A
C16    O86     1.272   .     A
C16    O92     1.268   .     A
C17    C20     1.452   .     S
C17    O76     1.272   .     A
C17    O78     1.272   .     A
C18    C19     1.473   .     S
C18    O79     1.290   .     A
C18    O77     1.289   .     A
C19    C23     1.394   .     A
C21    C38     1.429   .     A
C21    C32     1.483   .     S
C22    H72     1.084   .     S
C22    O80     1.221   .     D
C22    C42     1.482   .     S
C23    H71     1.081   .     S
C23    C34     1.403   .     A
C24    H48     1.112   .     S
C24    C25     1.535   .     S
C24    H47     1.110   .     S
C24    C202    1.526   1_455 S
C25    C26     1.526   .     S
C25    H46     1.109   .     S
C25    H237    1.109   1_455 S
C26    H44     1.110   .     S
C26    H73     1.110   .     S
C26    H74     1.111   .     S
C27    H55     1.113   .     S
C27    H56     1.112   .     S
C27    C589    1.545   1_545 S
C27    C604    1.537   1_545 S
C28    H53     1.111   .     S
C28    H52     1.111   .     S
C28    C315    1.537   .     S
C28    C317    1.527   .     S
C29    H49     1.111   .     S
C29    H50     1.111   .     S
C29    C604    1.527   1_545 S
C29    H627    1.110   1_545 S
C30    O81     1.219   .     D
C30    C302    1.485   .     S
C30    H345    1.085   .     S
C31    O82     1.221   .     D
C31    H58     1.085   .     S
C32    H59     1.086   .     S
C32    O947    1.221   .     S
C33    H66     1.110   .     S
C33    H67     1.112   .     S
C33    C41     1.536   .     S
C33    C35     1.545   .     S
C34    C39     1.422   .     A
C34    C38     1.414   .     A
C35    C36     1.527   .     S
C35    H64     1.109   .     S
C35    H63     1.109   .     S
C36    H62     1.110   .     S
C36    H61     1.111   .     S
C36    H60     1.109   .     S
C37    H68     1.085   .     S
C37    O84     1.221   .     D
C38    C906    1.419   .     S
C39    C904    1.420   .     S
C40    C41     1.435   .     A
C40    C903    1.420   1_554 S
C41    C42     1.421   .     A
C42    C902    1.419   1_554 S
H45    C121    1.109   .     S
H51    C317    1.110   .     S
H54    C107    1.086   .     S
H57    C606    1.085   1_545 S
O75    Zn93    1.970   .     S
O75    Zn96    1.935   .     S
O75    Zn95    1.923   .     S
O75    Zn94    1.941   .     S
O76    Zn94    1.918   .     S
O77    Zn96    1.934   .     S
O78    Zn95    1.928   .     S
O79    Zn93    1.916   .     S
O83    C896    1.221   1_554 S
O85    Zn93    1.937   .     S
O86    Zn96    1.939   .     S
O87    Zn94    1.928   .     S
O88    Zn95    1.942   .     S
O89    Zn96    1.931   .     S
O90    Zn93    1.918   .     S
O91    Zn94    1.951   .     S
O92    Zn95    1.945   .     S
C97    O183    1.271   .     A
C97    C107    1.440   .     S
C97    O185    1.270   .     A
C98    C135    1.433   .     A
C98    C99     1.415   .     A
C98    C133    1.491   .     S
C99    C127    1.488   .     S
C99    C965    1.410   .     S
C100   O186    1.284   .     A
C100   C106    1.465   .     S
C100   O184    1.279   .     A
C101   C102    1.421   .     A
C101   C103    1.416   .     A
C101   C963    1.410   1_554 S
C102   C105    1.407   .     A
C102   C136    1.423   .     A
C103   C104    1.390   .     A
C103   H139    1.081   .     S
C104   H165    1.084   .     S
C104   C116    1.390   .     A
C105   C116    1.390   .     A
C105   H161    1.075   .     S
C106   C203    1.346   .     S
C106   C216    1.526   .     S
C108   C117    1.403   .     A
C108   H166    1.084   .     S
C108   C115    1.398   .     A
C109   C112    1.474   .     S
C109   C398    1.363   .     S
C109   C411    1.545   .     S
C110   C111    1.434   .     S
C110   C685    1.363   1_545 S
C110   C702    1.485   1_545 S
C111   O181    1.280   .     A
C111   O187    1.269   .     A
C112   O182    1.272   .     A
C112   O188    1.268   .     A
C113   C116    1.452   .     S
C113   O172    1.272   .     A
C113   O174    1.272   .     A
C114   C115    1.473   .     S
C114   O175    1.290   .     A
C114   O173    1.289   .     A
C115   C119    1.394   .     A
C117   C134    1.429   .     A
C117   C128    1.483   .     S
C118   H168    1.084   .     S
C118   O176    1.221   .     D
C118   C138    1.482   .     S
C119   H167    1.081   .     S
C119   C130    1.403   .     A
C120   H144    1.112   .     S
C120   C121    1.535   .     S
C120   H143    1.110   .     S
C121   C122    1.526   .     S
C121   H142    1.109   .     S
C122   H140    1.110   .     S
C122   H169    1.110   .     S
C122   H170    1.111   .     S
C123   H151    1.113   .     S
C123   H152    1.112   .     S
C123   C685    1.545   1_545 S
C123   C700    1.537   1_545 S
C124   H149    1.111   .     S
C124   H148    1.111   .     S
C124   C411    1.537   .     S
C124   C413    1.527   .     S
C125   H145    1.111   .     S
C125   H146    1.111   .     S
C125   C700    1.527   1_545 S
C125   H723    1.110   1_545 S
C126   O177    1.219   .     D
C126   C398    1.485   .     S
C126   H441    1.085   .     S
C127   O178    1.221   .     D
C127   H154    1.085   .     S
C128   H155    1.086   .     S
C128   O1043   1.221   .     S
C129   H162    1.110   .     S
C129   H163    1.112   .     S
C129   C137    1.536   .     S
C129   C131    1.545   .     S
C130   C135    1.422   .     A
C130   C134    1.414   .     A
C131   C132    1.527   .     S
C131   H160    1.109   .     S
C131   H159    1.109   .     S
C132   H158    1.110   .     S
C132   H157    1.111   .     S
C132   H156    1.109   .     S
C133   H164    1.085   .     S
C133   O180    1.221   .     D
C134   C1002   1.419   .     S
C135   C1000   1.420   .     S
C136   C137    1.435   .     A
C136   C999    1.420   1_554 S
C137   C138    1.421   .     A
C138   C998    1.419   1_554 S
H141   C217    1.109   .     S
H147   C413    1.110   .     S
H150   C203    1.086   .     S
H153   C702    1.085   1_545 S
O171   Zn189   1.970   .     S
O171   Zn192   1.935   .     S
O171   Zn191   1.923   .     S
O171   Zn190   1.941   .     S
O172   Zn190   1.918   .     S
O173   Zn192   1.934   .     S
O174   Zn191   1.928   .     S
O175   Zn189   1.916   .     S
O179   C992    1.221   1_554 S
O181   Zn189   1.937   .     S
O182   Zn192   1.939   .     S
O183   Zn190   1.928   .     S
O184   Zn191   1.942   .     S
O185   Zn192   1.931   .     S
O186   Zn189   1.918   .     S
O187   Zn190   1.951   .     S
O188   Zn191   1.945   .     S
C193   O279    1.271   .     A
C193   C203    1.440   .     S
C193   O281    1.270   .     A
C194   C231    1.433   .     A
C194   C195    1.415   .     A
C194   C229    1.491   .     S
C195   C223    1.488   .     S
C195   C1061   1.410   .     S
C196   O282    1.284   .     A
C196   C202    1.465   .     S
C196   O280    1.279   .     A
C197   C198    1.421   .     A
C197   C199    1.416   .     A
C197   C1059   1.410   1_554 S
C198   C201    1.407   .     A
C198   C232    1.423   .     A
C199   C200    1.390   .     A
C199   H235    1.081   .     S
C200   H261    1.084   .     S
C200   C212    1.390   .     A
C201   C212    1.390   .     A
C201   H257    1.075   .     S
C202   C11     1.346   1_655 S
C202   C24     1.526   1_655 S
C204   C213    1.403   .     A
C204   H262    1.084   .     S
C204   C211    1.398   .     A
C205   C208    1.474   .     S
C205   C494    1.363   .     S
C205   C507    1.545   .     S
C206   C207    1.434   .     S
C206   C781    1.363   1_545 S
C206   C798    1.485   1_545 S
C207   O277    1.280   .     A
C207   O283    1.269   .     A
C208   O278    1.272   .     A
C208   O284    1.268   .     A
C209   C212    1.452   .     S
C209   O268    1.272   .     A
C209   O270    1.272   .     A
C210   C211    1.473   .     S
C210   O271    1.290   .     A
C210   O269    1.289   .     A
C211   C215    1.394   .     A
C213   C230    1.429   .     A
C213   C224    1.483   .     S
C214   H264    1.084   .     S
C214   O272    1.221   .     D
C214   C234    1.482   .     S
C215   H263    1.081   .     S
C215   C226    1.403   .     A
C216   H240    1.112   .     S
C216   C217    1.535   .     S
C216   H239    1.110   .     S
C217   C218    1.526   .     S
C217   H238    1.109   .     S
C218   H236    1.110   .     S
C218   H265    1.110   .     S
C218   H266    1.111   .     S
C219   H247    1.113   .     S
C219   H248    1.112   .     S
C219   C781    1.545   1_545 S
C219   C796    1.537   1_545 S
C220   H245    1.111   .     S
C220   H244    1.111   .     S
C220   C507    1.537   .     S
C220   C509    1.527   .     S
C221   H241    1.111   .     S
C221   H242    1.111   .     S
C221   C796    1.527   1_545 S
C221   H819    1.110   1_545 S
C222   O273    1.219   .     D
C222   C494    1.485   .     S
C222   H537    1.085   .     S
C223   O274    1.221   .     D
C223   H250    1.085   .     S
C224   H251    1.086   .     S
C224   O1139   1.221   .     S
C225   H258    1.110   .     S
C225   H259    1.112   .     S
C225   C233    1.536   .     S
C225   C227    1.545   .     S
C226   C231    1.422   .     A
C226   C230    1.414   .     A
C227   C228    1.527   .     S
C227   H256    1.109   .     S
C227   H255    1.109   .     S
C228   H254    1.110   .     S
C228   H253    1.111   .     S
C228   H252    1.109   .     S
C229   H260    1.085   .     S
C229   O276    1.221   .     D
C230   C1098   1.419   .     S
C231   C1096   1.420   .     S
C232   C233    1.435   .     A
C232   C1095   1.420   1_554 S
C233   C234    1.421   .     A
C234   C1094   1.419   1_554 S
H237   C25     1.109   1_655 S
H243   C509    1.110   .     S
H246   C11     1.086   1_655 S
H249   C798    1.085   1_545 S
O267   Zn285   1.970   .     S
O267   Zn288   1.935   .     S
O267   Zn287   1.923   .     S
O267   Zn286   1.941   .     S
O268   Zn286   1.918   .     S
O269   Zn288   1.934   .     S
O270   Zn287   1.928   .     S
O271   Zn285   1.916   .     S
O275   C1088   1.221   1_554 S
O277   Zn285   1.937   .     S
O278   Zn288   1.939   .     S
O279   Zn286   1.928   .     S
O280   Zn287   1.942   .     S
O281   Zn288   1.931   .     S
O282   Zn285   1.918   .     S
O283   Zn286   1.951   .     S
O284   Zn287   1.945   .     S
C289   O375    1.271   .     A
C289   C299    1.440   .     S
C289   O377    1.270   .     A
C290   C327    1.433   .     A
C290   C291    1.415   .     A
C290   C325    1.491   .     S
C291   C319    1.488   .     S
C291   C1157   1.410   .     S
C292   O378    1.284   .     A
C292   C298    1.465   .     S
C292   O376    1.279   .     A
C293   C294    1.421   .     A
C293   C295    1.416   .     A
C293   C1155   1.410   1_554 S
C294   C297    1.407   .     A
C294   C328    1.423   .     A
C295   C296    1.390   .     A
C295   H331    1.081   .     S
C296   H357    1.084   .     S
C296   C308    1.390   .     A
C297   C308    1.390   .     A
C297   H353    1.075   .     S
C298   C395    1.346   .     S
C298   C408    1.526   .     S
C299   C490    1.346   1_455 S
C299   H534    1.086   1_455 S
C300   C309    1.403   .     A
C300   H358    1.084   .     S
C300   C307    1.398   .     A
C301   C304    1.474   .     S
C301   C590    1.363   .     S
C301   C603    1.545   .     S
C302   C303    1.434   .     S
C303   O373    1.280   .     A
C303   O379    1.269   .     A
C304   O374    1.272   .     A
C304   O380    1.268   .     A
C305   C308    1.452   .     S
C305   O364    1.272   .     A
C305   O366    1.272   .     A
C306   C307    1.473   .     S
C306   O367    1.290   .     A
C306   O365    1.289   .     A
C307   C311    1.394   .     A
C309   C326    1.429   .     A
C309   C320    1.483   .     S
C310   H360    1.084   .     S
C310   O368    1.221   .     D
C310   C330    1.482   .     S
C311   H359    1.081   .     S
C311   C322    1.403   .     A
C312   H336    1.112   .     S
C312   C313    1.535   .     S
C312   H335    1.110   .     S
C312   C490    1.526   1_455 S
C313   C314    1.526   .     S
C313   H334    1.109   .     S
C313   H525    1.109   1_455 S
C314   H332    1.110   .     S
C314   H361    1.110   .     S
C314   H362    1.111   .     S
C315   H343    1.113   .     S
C315   H344    1.112   .     S
C316   H341    1.111   .     S
C316   H340    1.111   .     S
C316   C603    1.537   .     S
C316   C605    1.527   .     S
C317   H337    1.111   .     S
C317   H338    1.111   .     S
C318   O369    1.219   .     D
C318   C590    1.485   .     S
C318   H633    1.085   .     S
C319   O370    1.221   .     D
C319   H346    1.085   .     S
C320   H347    1.086   .     S
C320   O1235   1.221   .     S
C321   H354    1.110   .     S
C321   H355    1.112   .     S
C321   C329    1.536   .     S
C321   C323    1.545   .     S
C322   C327    1.422   .     A
C322   C326    1.414   .     A
C323   C324    1.527   .     S
C323   H352    1.109   .     S
C323   H351    1.109   .     S
C324   H350    1.110   .     S
C324   H349    1.111   .     S
C324   H348    1.109   .     S
C325   H356    1.085   .     S
C325   O372    1.221   .     D
C326   C1194   1.419   .     S
C327   C1192   1.420   .     S
C328   C329    1.435   .     A
C328   C1191   1.420   1_554 S
C329   C330    1.421   .     A
C330   C1190   1.419   1_554 S
H333   C409    1.109   .     S
H339   C605    1.110   .     S
H342   C395    1.086   .     S
O363   Zn381   1.970   .     S
O363   Zn384   1.935   .     S
O363   Zn383   1.923   .     S
O363   Zn382   1.941   .     S
O364   Zn382   1.918   .     S
O365   Zn384   1.934   .     S
O366   Zn383   1.928   .     S
O367   Zn381   1.916   .     S
O371   C1184   1.221   1_554 S
O373   Zn381   1.937   .     S
O374   Zn384   1.939   .     S
O375   Zn382   1.928   .     S
O376   Zn383   1.942   .     S
O377   Zn384   1.931   .     S
O378   Zn381   1.918   .     S
O379   Zn382   1.951   .     S
O380   Zn383   1.945   .     S
C385   O471    1.271   .     A
C385   C395    1.440   .     S
C385   O473    1.270   .     A
C386   C423    1.433   .     A
C386   C387    1.415   .     A
C386   C421    1.491   .     S
C387   C415    1.488   .     S
C387   C1253   1.410   .     S
C388   O474    1.284   .     A
C388   C394    1.465   .     S
C388   O472    1.279   .     A
C389   C390    1.421   .     A
C389   C391    1.416   .     A
C389   C1251   1.410   1_554 S
C390   C393    1.407   .     A
C390   C424    1.423   .     A
C391   C392    1.390   .     A
C391   H427    1.081   .     S
C392   H453    1.084   .     S
C392   C404    1.390   .     A
C393   C404    1.390   .     A
C393   H449    1.075   .     S
C394   C491    1.346   .     S
C394   C504    1.526   .     S
C396   C405    1.403   .     A
C396   H454    1.084   .     S
C396   C403    1.398   .     A
C397   C400    1.474   .     S
C397   C686    1.363   .     S
C397   C699    1.545   .     S
C398   C399    1.434   .     S
C399   O469    1.280   .     A
C399   O475    1.269   .     A
C400   O470    1.272   .     A
C400   O476    1.268   .     A
C401   C404    1.452   .     S
C401   O460    1.272   .     A
C401   O462    1.272   .     A
C402   C403    1.473   .     S
C402   O463    1.290   .     A
C402   O461    1.289   .     A
C403   C407    1.394   .     A
C405   C422    1.429   .     A
C405   C416    1.483   .     S
C406   H456    1.084   .     S
C406   O464    1.221   .     D
C406   C426    1.482   .     S
C407   H455    1.081   .     S
C407   C418    1.403   .     A
C408   H432    1.112   .     S
C408   C409    1.535   .     S
C408   H431    1.110   .     S
C409   C410    1.526   .     S
C409   H430    1.109   .     S
C410   H428    1.110   .     S
C410   H457    1.110   .     S
C410   H458    1.111   .     S
C411   H439    1.113   .     S
C411   H440    1.112   .     S
C412   H437    1.111   .     S
C412   H436    1.111   .     S
C412   C699    1.537   .     S
C412   C701    1.527   .     S
C413   H433    1.111   .     S
C413   H434    1.111   .     S
C414   O465    1.219   .     D
C414   C686    1.485   .     S
C414   H729    1.085   .     S
C415   O466    1.221   .     D
C415   H442    1.085   .     S
C416   H443    1.086   .     S
C416   O1331   1.221   .     S
C417   H450    1.110   .     S
C417   H451    1.112   .     S
C417   C425    1.536   .     S
C417   C419    1.545   .     S
C418   C423    1.422   .     A
C418   C422    1.414   .     A
C419   C420    1.527   .     S
C419   H448    1.109   .     S
C419   H447    1.109   .     S
C420   H446    1.110   .     S
C420   H445    1.111   .     S
C420   H444    1.109   .     S
C421   H452    1.085   .     S
C421   O468    1.221   .     D
C422   C1290   1.419   .     S
C423   C1288   1.420   .     S
C424   C425    1.435   .     A
C424   C1287   1.420   1_554 S
C425   C426    1.421   .     A
C426   C1286   1.419   1_554 S
H429   C505    1.109   .     S
H435   C701    1.110   .     S
H438   C491    1.086   .     S
O459   Zn477   1.970   .     S
O459   Zn480   1.935   .     S
O459   Zn479   1.923   .     S
O459   Zn478   1.941   .     S
O460   Zn478   1.918   .     S
O461   Zn480   1.934   .     S
O462   Zn479   1.928   .     S
O463   Zn477   1.916   .     S
O467   C1280   1.221   1_554 S
O469   Zn477   1.937   .     S
O470   Zn480   1.939   .     S
O471   Zn478   1.928   .     S
O472   Zn479   1.942   .     S
O473   Zn480   1.931   .     S
O474   Zn477   1.918   .     S
O475   Zn478   1.951   .     S
O476   Zn479   1.945   .     S
C481   O567    1.271   .     A
C481   C491    1.440   .     S
C481   O569    1.270   .     A
C482   C519    1.433   .     A
C482   C483    1.415   .     A
C482   C517    1.491   .     S
C483   C511    1.488   .     S
C483   C1349   1.410   .     S
C484   O570    1.284   .     A
C484   C490    1.465   .     S
C484   O568    1.279   .     A
C485   C486    1.421   .     A
C485   C487    1.416   .     A
C485   C1347   1.410   1_554 S
C486   C489    1.407   .     A
C486   C520    1.423   .     A
C487   C488    1.390   .     A
C487   H523    1.081   .     S
C488   H549    1.084   .     S
C488   C500    1.390   .     A
C489   C500    1.390   .     A
C489   H545    1.075   .     S
C490   C299    1.346   1_655 S
C490   C312    1.526   1_655 S
C492   C501    1.403   .     A
C492   H550    1.084   .     S
C492   C499    1.398   .     A
C493   C496    1.474   .     S
C493   C782    1.363   .     S
C493   C795    1.545   .     S
C494   C495    1.434   .     S
C495   O565    1.280   .     A
C495   O571    1.269   .     A
C496   O566    1.272   .     A
C496   O572    1.268   .     A
C497   C500    1.452   .     S
C497   O556    1.272   .     A
C497   O558    1.272   .     A
C498   C499    1.473   .     S
C498   O559    1.290   .     A
C498   O557    1.289   .     A
C499   C503    1.394   .     A
C501   C518    1.429   .     A
C501   C512    1.483   .     S
C502   H552    1.084   .     S
C502   O560    1.221   .     D
C502   C522    1.482   .     S
C503   H551    1.081   .     S
C503   C514    1.403   .     A
C504   H528    1.112   .     S
C504   C505    1.535   .     S
C504   H527    1.110   .     S
C505   C506    1.526   .     S
C505   H526    1.109   .     S
C506   H524    1.110   .     S
C506   H553    1.110   .     S
C506   H554    1.111   .     S
C507   H535    1.113   .     S
C507   H536    1.112   .     S
C508   H533    1.111   .     S
C508   H532    1.111   .     S
C508   C795    1.537   .     S
C508   C797    1.527   .     S
C509   H529    1.111   .     S
C509   H530    1.111   .     S
C510   O561    1.219   .     D
C510   C782    1.485   .     S
C510   H825    1.085   .     S
C511   O562    1.221   .     D
C511   H538    1.085   .     S
C512   H539    1.086   .     S
C512   O1427   1.221   .     S
C513   H546    1.110   .     S
C513   H547    1.112   .     S
C513   C521    1.536   .     S
C513   C515    1.545   .     S
C514   C519    1.422   .     A
C514   C518    1.414   .     A
C515   C516    1.527   .     S
C515   H544    1.109   .     S
C515   H543    1.109   .     S
C516   H542    1.110   .     S
C516   H541    1.111   .     S
C516   H540    1.109   .     S
C517   H548    1.085   .     S
C517   O564    1.221   .     D
C518   C1386   1.419   .     S
C519   C1384   1.420   .     S
C520   C521    1.435   .     A
C520   C1383   1.420   1_554 S
C521   C522    1.421   .     A
C522   C1382   1.419   1_554 S
H525   C313    1.109   1_655 S
H531   C797    1.110   .     S
H534   C299    1.086   1_655 S
O555   Zn573   1.970   .     S
O555   Zn576   1.935   .     S
O555   Zn575   1.923   .     S
O555   Zn574   1.941   .     S
O556   Zn574   1.918   .     S
O557   Zn576   1.934   .     S
O558   Zn575   1.928   .     S
O559   Zn573   1.916   .     S
O563   C1376   1.221   1_554 S
O565   Zn573   1.937   .     S
O566   Zn576   1.939   .     S
O567   Zn574   1.928   .     S
O568   Zn575   1.942   .     S
O569   Zn576   1.931   .     S
O570   Zn573   1.918   .     S
O571   Zn574   1.951   .     S
O572   Zn575   1.945   .     S
C577   O663    1.271   .     A
C577   C587    1.440   .     S
C577   O665    1.270   .     A
C578   C615    1.433   .     A
C578   C579    1.415   .     A
C578   C613    1.491   .     S
C579   C607    1.488   .     S
C579   C1445   1.410   .     S
C580   O666    1.284   .     A
C580   C586    1.465   .     S
C580   O664    1.279   .     A
C581   C582    1.421   .     A
C581   C583    1.416   .     A
C581   C1443   1.410   1_554 S
C582   C585    1.407   .     A
C582   C616    1.423   .     A
C583   C584    1.390   .     A
C583   H619    1.081   .     S
C584   H645    1.084   .     S
C584   C596    1.390   .     A
C585   C596    1.390   .     A
C585   H641    1.075   .     S
C586   C683    1.346   .     S
C586   C696    1.526   .     S
C587   C778    1.346   1_455 S
C587   H822    1.086   1_455 S
C588   C597    1.403   .     A
C588   H646    1.084   .     S
C588   C595    1.398   .     A
C589   C592    1.474   .     S
C589   C14     1.363   1_565 S
C589   C27     1.545   1_565 S
C590   C591    1.434   .     S
C591   O661    1.280   .     A
C591   O667    1.269   .     A
C592   O662    1.272   .     A
C592   O668    1.268   .     A
C593   C596    1.452   .     S
C593   O652    1.272   .     A
C593   O654    1.272   .     A
C594   C595    1.473   .     S
C594   O655    1.290   .     A
C594   O653    1.289   .     A
C595   C599    1.394   .     A
C597   C614    1.429   .     A
C597   C608    1.483   .     S
C598   H648    1.084   .     S
C598   O656    1.221   .     D
C598   C618    1.482   .     S
C599   H647    1.081   .     S
C599   C610    1.403   .     A
C600   H624    1.112   .     S
C600   C601    1.535   .     S
C600   H623    1.110   .     S
C600   C778    1.526   1_455 S
C601   C602    1.526   .     S
C601   H622    1.109   .     S
C601   H813    1.109   1_455 S
C602   H620    1.110   .     S
C602   H649    1.110   .     S
C602   H650    1.111   .     S
C603   H631    1.113   .     S
C603   H632    1.112   .     S
C604   H629    1.111   .     S
C604   H628    1.111   .     S
C604   C27     1.537   1_565 S
C604   C29     1.527   1_565 S
C605   H625    1.111   .     S
C605   H626    1.111   .     S
C606   O657    1.219   .     D
C606   C14     1.485   1_565 S
C606   H57     1.085   1_565 S
C607   O658    1.221   .     D
C607   H634    1.085   .     S
C608   H635    1.086   .     S
C608   O1523   1.221   .     S
C609   H642    1.110   .     S
C609   H643    1.112   .     S
C609   C617    1.536   .     S
C609   C611    1.545   .     S
C610   C615    1.422   .     A
C610   C614    1.414   .     A
C611   C612    1.527   .     S
C611   H640    1.109   .     S
C611   H639    1.109   .     S
C612   H638    1.110   .     S
C612   H637    1.111   .     S
C612   H636    1.109   .     S
C613   H644    1.085   .     S
C613   O660    1.221   .     D
C614   C1482   1.419   .     S
C615   C1480   1.420   .     S
C616   C617    1.435   .     A
C616   C1479   1.420   1_554 S
C617   C618    1.421   .     A
C618   C1478   1.419   1_554 S
H621   C697    1.109   .     S
H627   C29     1.110   1_565 S
H630   C683    1.086   .     S
O651   Zn669   1.970   .     S
O651   Zn672   1.935   .     S
O651   Zn671   1.923   .     S
O651   Zn670   1.941   .     S
O652   Zn670   1.918   .     S
O653   Zn672   1.934   .     S
O654   Zn671   1.928   .     S
O655   Zn669   1.916   .     S
O659   C1472   1.221   1_554 S
O661   Zn669   1.937   .     S
O662   Zn672   1.939   .     S
O663   Zn670   1.928   .     S
O664   Zn671   1.942   .     S
O665   Zn672   1.931   .     S
O666   Zn669   1.918   .     S
O667   Zn670   1.951   .     S
O668   Zn671   1.945   .     S
C673   O759    1.271   .     A
C673   C683    1.440   .     S
C673   O761    1.270   .     A
C674   C711    1.433   .     A
C674   C675    1.415   .     A
C674   C709    1.491   .     S
C675   C703    1.488   .     S
C675   C1541   1.410   .     S
C676   O762    1.284   .     A
C676   C682    1.465   .     S
C676   O760    1.279   .     A
C677   C678    1.421   .     A
C677   C679    1.416   .     A
C677   C1539   1.410   1_554 S
C678   C681    1.407   .     A
C678   C712    1.423   .     A
C679   C680    1.390   .     A
C679   H715    1.081   .     S
C680   H741    1.084   .     S
C680   C692    1.390   .     A
C681   C692    1.390   .     A
C681   H737    1.075   .     S
C682   C779    1.346   .     S
C682   C792    1.526   .     S
C684   C693    1.403   .     A
C684   H742    1.084   .     S
C684   C691    1.398   .     A
C685   C688    1.474   .     S
C685   C110    1.363   1_565 S
C685   C123    1.545   1_565 S
C686   C687    1.434   .     S
C687   O757    1.280   .     A
C687   O763    1.269   .     A
C688   O758    1.272   .     A
C688   O764    1.268   .     A
C689   C692    1.452   .     S
C689   O748    1.272   .     A
C689   O750    1.272   .     A
C690   C691    1.473   .     S
C690   O751    1.290   .     A
C690   O749    1.289   .     A
C691   C695    1.394   .     A
C693   C710    1.429   .     A
C693   C704    1.483   .     S
C694   H744    1.084   .     S
C694   O752    1.221   .     D
C694   C714    1.482   .     S
C695   H743    1.081   .     S
C695   C706    1.403   .     A
C696   H720    1.112   .     S
C696   C697    1.535   .     S
C696   H719    1.110   .     S
C697   C698    1.526   .     S
C697   H718    1.109   .     S
C698   H716    1.110   .     S
C698   H745    1.110   .     S
C698   H746    1.111   .     S
C699   H727    1.113   .     S
C699   H728    1.112   .     S
C700   H725    1.111   .     S
C700   H724    1.111   .     S
C700   C123    1.537   1_565 S
C700   C125    1.527   1_565 S
C701   H721    1.111   .     S
C701   H722    1.111   .     S
C702   O753    1.219   .     D
C702   C110    1.485   1_565 S
C702   H153    1.085   1_565 S
C703   O754    1.221   .     D
C703   H730    1.085   .     S
C704   H731    1.086   .     S
C704   O1619   1.221   .     S
C705   H738    1.110   .     S
C705   H739    1.112   .     S
C705   C713    1.536   .     S
C705   C707    1.545   .     S
C706   C711    1.422   .     A
C706   C710    1.414   .     A
C707   C708    1.527   .     S
C707   H736    1.109   .     S
C707   H735    1.109   .     S
C708   H734    1.110   .     S
C708   H733    1.111   .     S
C708   H732    1.109   .     S
C709   H740    1.085   .     S
C709   O756    1.221   .     D
C710   C1578   1.419   .     S
C711   C1576   1.420   .     S
C712   C713    1.435   .     A
C712   C1575   1.420   1_554 S
C713   C714    1.421   .     A
C714   C1574   1.419   1_554 S
H717   C793    1.109   .     S
H723   C125    1.110   1_565 S
H726   C779    1.086   .     S
O747   Zn765   1.970   .     S
O747   Zn768   1.935   .     S
O747   Zn767   1.923   .     S
O747   Zn766   1.941   .     S
O748   Zn766   1.918   .     S
O749   Zn768   1.934   .     S
O750   Zn767   1.928   .     S
O751   Zn765   1.916   .     S
O755   C1568   1.221   1_554 S
O757   Zn765   1.937   .     S
O758   Zn768   1.939   .     S
O759   Zn766   1.928   .     S
O760   Zn767   1.942   .     S
O761   Zn768   1.931   .     S
O762   Zn765   1.918   .     S
O763   Zn766   1.951   .     S
O764   Zn767   1.945   .     S
C769   O855    1.271   .     A
C769   C779    1.440   .     S
C769   O857    1.270   .     A
C770   C807    1.433   .     A
C770   C771    1.415   .     A
C770   C805    1.491   .     S
C771   C799    1.488   .     S
C771   C1637   1.410   .     S
C772   O858    1.284   .     A
C772   C778    1.465   .     S
C772   O856    1.279   .     A
C773   C774    1.421   .     A
C773   C775    1.416   .     A
C773   C1635   1.410   1_554 S
C774   C777    1.407   .     A
C774   C808    1.423   .     A
C775   C776    1.390   .     A
C775   H811    1.081   .     S
C776   H837    1.084   .     S
C776   C788    1.390   .     A
C777   C788    1.390   .     A
C777   H833    1.075   .     S
C778   C587    1.346   1_655 S
C778   C600    1.526   1_655 S
C780   C789    1.403   .     A
C780   H838    1.084   .     S
C780   C787    1.398   .     A
C781   C784    1.474   .     S
C781   C206    1.363   1_565 S
C781   C219    1.545   1_565 S
C782   C783    1.434   .     S
C783   O853    1.280   .     A
C783   O859    1.269   .     A
C784   O854    1.272   .     A
C784   O860    1.268   .     A
C785   C788    1.452   .     S
C785   O844    1.272   .     A
C785   O846    1.272   .     A
C786   C787    1.473   .     S
C786   O847    1.290   .     A
C786   O845    1.289   .     A
C787   C791    1.394   .     A
C789   C806    1.429   .     A
C789   C800    1.483   .     S
C790   H840    1.084   .     S
C790   O848    1.221   .     D
C790   C810    1.482   .     S
C791   H839    1.081   .     S
C791   C802    1.403   .     A
C792   H816    1.112   .     S
C792   C793    1.535   .     S
C792   H815    1.110   .     S
C793   C794    1.526   .     S
C793   H814    1.109   .     S
C794   H812    1.110   .     S
C794   H841    1.110   .     S
C794   H842    1.111   .     S
C795   H823    1.113   .     S
C795   H824    1.112   .     S
C796   H821    1.111   .     S
C796   H820    1.111   .     S
C796   C219    1.537   1_565 S
C796   C221    1.527   1_565 S
C797   H817    1.111   .     S
C797   H818    1.111   .     S
C798   O849    1.219   .     D
C798   C206    1.485   1_565 S
C798   H249    1.085   1_565 S
C799   O850    1.221   .     D
C799   H826    1.085   .     S
C800   H827    1.086   .     S
C800   O1715   1.221   .     S
C801   H834    1.110   .     S
C801   H835    1.112   .     S
C801   C809    1.536   .     S
C801   C803    1.545   .     S
C802   C807    1.422   .     A
C802   C806    1.414   .     A
C803   C804    1.527   .     S
C803   H832    1.109   .     S
C803   H831    1.109   .     S
C804   H830    1.110   .     S
C804   H829    1.111   .     S
C804   H828    1.109   .     S
C805   H836    1.085   .     S
C805   O852    1.221   .     D
C806   C1674   1.419   .     S
C807   C1672   1.420   .     S
C808   C809    1.435   .     A
C808   C1671   1.420   1_554 S
C809   C810    1.421   .     A
C810   C1670   1.419   1_554 S
H813   C601    1.109   1_655 S
H819   C221    1.110   1_565 S
H822   C587    1.086   1_655 S
O843   Zn861   1.970   .     S
O843   Zn864   1.935   .     S
O843   Zn863   1.923   .     S
O843   Zn862   1.941   .     S
O844   Zn862   1.918   .     S
O845   Zn864   1.934   .     S
O846   Zn863   1.928   .     S
O847   Zn861   1.916   .     S
O851   C1664   1.221   1_554 S
O853   Zn861   1.937   .     S
O854   Zn864   1.939   .     S
O855   Zn862   1.928   .     S
O856   Zn863   1.942   .     S
O857   Zn864   1.931   .     S
O858   Zn861   1.918   .     S
O859   Zn862   1.951   .     S
O860   Zn863   1.945   .     S
C865   O951    1.271   .     A
C865   C875    1.440   .     S
C865   O953    1.270   .     A
C866   C903    1.433   .     A
C866   C867    1.415   .     A
C866   C901    1.491   .     S
C867   C895    1.488   .     S
C867   C5      1.410   1_556 S
C868   O954    1.284   .     A
C868   C874    1.465   .     S
C868   O952    1.279   .     A
C869   C870    1.421   .     A
C869   C871    1.416   .     A
C870   C873    1.407   .     A
C870   C904    1.423   .     A
C871   C872    1.390   .     A
C871   H907    1.081   .     S
C872   H933    1.084   .     S
C872   C884    1.390   .     A
C873   C884    1.390   .     A
C873   H929    1.075   .     S
C874   C971    1.346   .     S
C874   C984    1.526   .     S
C875   C1066   1.346   1_455 S
C875   H1110   1.086   1_455 S
C876   C885    1.403   .     A
C876   H934    1.084   .     S
C876   C883    1.398   .     A
C877   C880    1.474   .     S
C877   C1166   1.363   .     S
C877   C1179   1.545   .     S
C878   C879    1.434   .     S
C878   C1453   1.363   1_545 S
C878   C1470   1.485   1_545 S
C879   O949    1.280   .     A
C879   O955    1.269   .     A
C880   O950    1.272   .     A
C880   O956    1.268   .     A
C881   C884    1.452   .     S
C881   O940    1.272   .     A
C881   O942    1.272   .     A
C882   C883    1.473   .     S
C882   O943    1.290   .     A
C882   O941    1.289   .     A
C883   C887    1.394   .     A
C885   C902    1.429   .     A
C885   C896    1.483   .     S
C886   H936    1.084   .     S
C886   O944    1.221   .     D
C886   C906    1.482   .     S
C887   H935    1.081   .     S
C887   C898    1.403   .     A
C888   H912    1.112   .     S
C888   C889    1.535   .     S
C888   H911    1.110   .     S
C888   C1066   1.526   1_455 S
C889   C890    1.526   .     S
C889   H910    1.109   .     S
C889   H1101   1.109   1_455 S
C890   H908    1.110   .     S
C890   H937    1.110   .     S
C890   H938    1.111   .     S
C891   H919    1.113   .     S
C891   H920    1.112   .     S
C891   C1453   1.545   1_545 S
C891   C1468   1.537   1_545 S
C892   H917    1.111   .     S
C892   H916    1.111   .     S
C892   C1179   1.537   .     S
C892   C1181   1.527   .     S
C893   H913    1.111   .     S
C893   H914    1.111   .     S
C893   C1468   1.527   1_545 S
C893   H1491   1.110   1_545 S
C894   O945    1.219   .     D
C894   C1166   1.485   .     S
C894   H1209   1.085   .     S
C895   O946    1.221   .     D
C895   H922    1.085   .     S
C896   H923    1.086   .     S
C896   O83     1.221   1_556 S
C897   H930    1.110   .     S
C897   H931    1.112   .     S
C897   C905    1.536   .     S
C897   C899    1.545   .     S
C898   C903    1.422   .     A
C898   C902    1.414   .     A
C899   C900    1.527   .     S
C899   H928    1.109   .     S
C899   H927    1.109   .     S
C900   H926    1.110   .     S
C900   H925    1.111   .     S
C900   H924    1.109   .     S
C901   H932    1.085   .     S
C901   O948    1.221   .     D
C902   C42     1.419   1_556 S
C903   C40     1.420   1_556 S
C904   C905    1.435   .     A
C905   C906    1.421   .     A
H909   C985    1.109   .     S
H915   C1181   1.110   .     S
H918   C971    1.086   .     S
H921   C1470   1.085   1_545 S
O939   Zn957   1.970   .     S
O939   Zn960   1.935   .     S
O939   Zn959   1.923   .     S
O939   Zn958   1.941   .     S
O940   Zn958   1.918   .     S
O941   Zn960   1.934   .     S
O942   Zn959   1.928   .     S
O943   Zn957   1.916   .     S
O949   Zn957   1.937   .     S
O950   Zn960   1.939   .     S
O951   Zn958   1.928   .     S
O952   Zn959   1.942   .     S
O953   Zn960   1.931   .     S
O954   Zn957   1.918   .     S
O955   Zn958   1.951   .     S
O956   Zn959   1.945   .     S
C961   O1047   1.271   .     A
C961   C971    1.440   .     S
C961   O1049   1.270   .     A
C962   C999    1.433   .     A
C962   C963    1.415   .     A
C962   C997    1.491   .     S
C963   C991    1.488   .     S
C963   C101    1.410   1_556 S
C964   O1050   1.284   .     A
C964   C970    1.465   .     S
C964   O1048   1.279   .     A
C965   C966    1.421   .     A
C965   C967    1.416   .     A
C966   C969    1.407   .     A
C966   C1000   1.423   .     A
C967   C968    1.390   .     A
C967   H1003   1.081   .     S
C968   H1029   1.084   .     S
C968   C980    1.390   .     A
C969   C980    1.390   .     A
C969   H1025   1.075   .     S
C970   C1067   1.346   .     S
C970   C1080   1.526   .     S
C972   C981    1.403   .     A
C972   H1030   1.084   .     S
C972   C979    1.398   .     A
C973   C976    1.474   .     S
C973   C1262   1.363   .     S
C973   C1275   1.545   .     S
C974   C975    1.434   .     S
C974   C1549   1.363   1_545 S
C974   C1566   1.485   1_545 S
C975   O1045   1.280   .     A
C975   O1051   1.269   .     A
C976   O1046   1.272   .     A
C976   O1052   1.268   .     A
C977   C980    1.452   .     S
C977   O1036   1.272   .     A
C977   O1038   1.272   .     A
C978   C979    1.473   .     S
C978   O1039   1.290   .     A
C978   O1037   1.289   .     A
C979   C983    1.394   .     A
C981   C998    1.429   .     A
C981   C992    1.483   .     S
C982   H1032   1.084   .     S
C982   O1040   1.221   .     D
C982   C1002   1.482   .     S
C983   H1031   1.081   .     S
C983   C994    1.403   .     A
C984   H1008   1.112   .     S
C984   C985    1.535   .     S
C984   H1007   1.110   .     S
C985   C986    1.526   .     S
C985   H1006   1.109   .     S
C986   H1004   1.110   .     S
C986   H1033   1.110   .     S
C986   H1034   1.111   .     S
C987   H1015   1.113   .     S
C987   H1016   1.112   .     S
C987   C1549   1.545   1_545 S
C987   C1564   1.537   1_545 S
C988   H1013   1.111   .     S
C988   H1012   1.111   .     S
C988   C1275   1.537   .     S
C988   C1277   1.527   .     S
C989   H1009   1.111   .     S
C989   H1010   1.111   .     S
C989   C1564   1.527   1_545 S
C989   H1587   1.110   1_545 S
C990   O1041   1.219   .     D
C990   C1262   1.485   .     S
C990   H1305   1.085   .     S
C991   O1042   1.221   .     D
C991   H1018   1.085   .     S
C992   H1019   1.086   .     S
C992   O179    1.221   1_556 S
C993   H1026   1.110   .     S
C993   H1027   1.112   .     S
C993   C1001   1.536   .     S
C993   C995    1.545   .     S
C994   C999    1.422   .     A
C994   C998    1.414   .     A
C995   C996    1.527   .     S
C995   H1024   1.109   .     S
C995   H1023   1.109   .     S
C996   H1022   1.110   .     S
C996   H1021   1.111   .     S
C996   H1020   1.109   .     S
C997   H1028   1.085   .     S
C997   O1044   1.221   .     D
C998   C138    1.419   1_556 S
C999   C136    1.420   1_556 S
C1000  C1001   1.435   .     A
C1001  C1002   1.421   .     A
H1005  C1081   1.109   .     S
H1011  C1277   1.110   .     S
H1014  C1067   1.086   .     S
H1017  C1566   1.085   1_545 S
O1035  Zn1053  1.970   .     S
O1035  Zn1056  1.935   .     S
O1035  Zn1055  1.923   .     S
O1035  Zn1054  1.941   .     S
O1036  Zn1054  1.918   .     S
O1037  Zn1056  1.934   .     S
O1038  Zn1055  1.928   .     S
O1039  Zn1053  1.916   .     S
O1045  Zn1053  1.937   .     S
O1046  Zn1056  1.939   .     S
O1047  Zn1054  1.928   .     S
O1048  Zn1055  1.942   .     S
O1049  Zn1056  1.931   .     S
O1050  Zn1053  1.918   .     S
O1051  Zn1054  1.951   .     S
O1052  Zn1055  1.945   .     S
C1057  O1143   1.271   .     A
C1057  C1067   1.440   .     S
C1057  O1145   1.270   .     A
C1058  C1095   1.433   .     A
C1058  C1059   1.415   .     A
C1058  C1093   1.491   .     S
C1059  C1087   1.488   .     S
C1059  C197    1.410   1_556 S
C1060  O1146   1.284   .     A
C1060  C1066   1.465   .     S
C1060  O1144   1.279   .     A
C1061  C1062   1.421   .     A
C1061  C1063   1.416   .     A
C1062  C1065   1.407   .     A
C1062  C1096   1.423   .     A
C1063  C1064   1.390   .     A
C1063  H1099   1.081   .     S
C1064  H1125   1.084   .     S
C1064  C1076   1.390   .     A
C1065  C1076   1.390   .     A
C1065  H1121   1.075   .     S
C1066  C875    1.346   1_655 S
C1066  C888    1.526   1_655 S
C1068  C1077   1.403   .     A
C1068  H1126   1.084   .     S
C1068  C1075   1.398   .     A
C1069  C1072   1.474   .     S
C1069  C1358   1.363   .     S
C1069  C1371   1.545   .     S
C1070  C1071   1.434   .     S
C1070  C1645   1.363   1_545 S
C1070  C1662   1.485   1_545 S
C1071  O1141   1.280   .     A
C1071  O1147   1.269   .     A
C1072  O1142   1.272   .     A
C1072  O1148   1.268   .     A
C1073  C1076   1.452   .     S
C1073  O1132   1.272   .     A
C1073  O1134   1.272   .     A
C1074  C1075   1.473   .     S
C1074  O1135   1.290   .     A
C1074  O1133   1.289   .     A
C1075  C1079   1.394   .     A
C1077  C1094   1.429   .     A
C1077  C1088   1.483   .     S
C1078  H1128   1.084   .     S
C1078  O1136   1.221   .     D
C1078  C1098   1.482   .     S
C1079  H1127   1.081   .     S
C1079  C1090   1.403   .     A
C1080  H1104   1.112   .     S
C1080  C1081   1.535   .     S
C1080  H1103   1.110   .     S
C1081  C1082   1.526   .     S
C1081  H1102   1.109   .     S
C1082  H1100   1.110   .     S
C1082  H1129   1.110   .     S
C1082  H1130   1.111   .     S
C1083  H1111   1.113   .     S
C1083  H1112   1.112   .     S
C1083  C1645   1.545   1_545 S
C1083  C1660   1.537   1_545 S
C1084  H1109   1.111   .     S
C1084  H1108   1.111   .     S
C1084  C1371   1.537   .     S
C1084  C1373   1.527   .     S
C1085  H1105   1.111   .     S
C1085  H1106   1.111   .     S
C1085  C1660   1.527   1_545 S
C1085  H1683   1.110   1_545 S
C1086  O1137   1.219   .     D
C1086  C1358   1.485   .     S
C1086  H1401   1.085   .     S
C1087  O1138   1.221   .     D
C1087  H1114   1.085   .     S
C1088  H1115   1.086   .     S
C1088  O275    1.221   1_556 S
C1089  H1122   1.110   .     S
C1089  H1123   1.112   .     S
C1089  C1097   1.536   .     S
C1089  C1091   1.545   .     S
C1090  C1095   1.422   .     A
C1090  C1094   1.414   .     A
C1091  C1092   1.527   .     S
C1091  H1120   1.109   .     S
C1091  H1119   1.109   .     S
C1092  H1118   1.110   .     S
C1092  H1117   1.111   .     S
C1092  H1116   1.109   .     S
C1093  H1124   1.085   .     S
C1093  O1140   1.221   .     D
C1094  C234    1.419   1_556 S
C1095  C232    1.420   1_556 S
C1096  C1097   1.435   .     A
C1097  C1098   1.421   .     A
H1101  C889    1.109   1_655 S
H1107  C1373   1.110   .     S
H1110  C875    1.086   1_655 S
H1113  C1662   1.085   1_545 S
O1131  Zn1149  1.970   .     S
O1131  Zn1152  1.935   .     S
O1131  Zn1151  1.923   .     S
O1131  Zn1150  1.941   .     S
O1132  Zn1150  1.918   .     S
O1133  Zn1152  1.934   .     S
O1134  Zn1151  1.928   .     S
O1135  Zn1149  1.916   .     S
O1141  Zn1149  1.937   .     S
O1142  Zn1152  1.939   .     S
O1143  Zn1150  1.928   .     S
O1144  Zn1151  1.942   .     S
O1145  Zn1152  1.931   .     S
O1146  Zn1149  1.918   .     S
O1147  Zn1150  1.951   .     S
O1148  Zn1151  1.945   .     S
C1153  O1239   1.271   .     A
C1153  C1163   1.440   .     S
C1153  O1241   1.270   .     A
C1154  C1191   1.433   .     A
C1154  C1155   1.415   .     A
C1154  C1189   1.491   .     S
C1155  C1183   1.488   .     S
C1155  C293    1.410   1_556 S
C1156  O1242   1.284   .     A
C1156  C1162   1.465   .     S
C1156  O1240   1.279   .     A
C1157  C1158   1.421   .     A
C1157  C1159   1.416   .     A
C1158  C1161   1.407   .     A
C1158  C1192   1.423   .     A
C1159  C1160   1.390   .     A
C1159  H1195   1.081   .     S
C1160  H1221   1.084   .     S
C1160  C1172   1.390   .     A
C1161  C1172   1.390   .     A
C1161  H1217   1.075   .     S
C1162  C1259   1.346   .     S
C1162  C1272   1.526   .     S
C1163  C1354   1.346   1_455 S
C1163  H1398   1.086   1_455 S
C1164  C1173   1.403   .     A
C1164  H1222   1.084   .     S
C1164  C1171   1.398   .     A
C1165  C1168   1.474   .     S
C1165  C1454   1.363   .     S
C1165  C1467   1.545   .     S
C1166  C1167   1.434   .     S
C1167  O1237   1.280   .     A
C1167  O1243   1.269   .     A
C1168  O1238   1.272   .     A
C1168  O1244   1.268   .     A
C1169  C1172   1.452   .     S
C1169  O1228   1.272   .     A
C1169  O1230   1.272   .     A
C1170  C1171   1.473   .     S
C1170  O1231   1.290   .     A
C1170  O1229   1.289   .     A
C1171  C1175   1.394   .     A
C1173  C1190   1.429   .     A
C1173  C1184   1.483   .     S
C1174  H1224   1.084   .     S
C1174  O1232   1.221   .     D
C1174  C1194   1.482   .     S
C1175  H1223   1.081   .     S
C1175  C1186   1.403   .     A
C1176  H1200   1.112   .     S
C1176  C1177   1.535   .     S
C1176  H1199   1.110   .     S
C1176  C1354   1.526   1_455 S
C1177  C1178   1.526   .     S
C1177  H1198   1.109   .     S
C1177  H1389   1.109   1_455 S
C1178  H1196   1.110   .     S
C1178  H1225   1.110   .     S
C1178  H1226   1.111   .     S
C1179  H1207   1.113   .     S
C1179  H1208   1.112   .     S
C1180  H1205   1.111   .     S
C1180  H1204   1.111   .     S
C1180  C1467   1.537   .     S
C1180  C1469   1.527   .     S
C1181  H1201   1.111   .     S
C1181  H1202   1.111   .     S
C1182  O1233   1.219   .     D
C1182  C1454   1.485   .     S
C1182  H1497   1.085   .     S
C1183  O1234   1.221   .     D
C1183  H1210   1.085   .     S
C1184  H1211   1.086   .     S
C1184  O371    1.221   1_556 S
C1185  H1218   1.110   .     S
C1185  H1219   1.112   .     S
C1185  C1193   1.536   .     S
C1185  C1187   1.545   .     S
C1186  C1191   1.422   .     A
C1186  C1190   1.414   .     A
C1187  C1188   1.527   .     S
C1187  H1216   1.109   .     S
C1187  H1215   1.109   .     S
C1188  H1214   1.110   .     S
C1188  H1213   1.111   .     S
C1188  H1212   1.109   .     S
C1189  H1220   1.085   .     S
C1189  O1236   1.221   .     D
C1190  C330    1.419   1_556 S
C1191  C328    1.420   1_556 S
C1192  C1193   1.435   .     A
C1193  C1194   1.421   .     A
H1197  C1273   1.109   .     S
H1203  C1469   1.110   .     S
H1206  C1259   1.086   .     S
O1227  Zn1245  1.970   .     S
O1227  Zn1248  1.935   .     S
O1227  Zn1247  1.923   .     S
O1227  Zn1246  1.941   .     S
O1228  Zn1246  1.918   .     S
O1229  Zn1248  1.934   .     S
O1230  Zn1247  1.928   .     S
O1231  Zn1245  1.916   .     S
O1237  Zn1245  1.937   .     S
O1238  Zn1248  1.939   .     S
O1239  Zn1246  1.928   .     S
O1240  Zn1247  1.942   .     S
O1241  Zn1248  1.931   .     S
O1242  Zn1245  1.918   .     S
O1243  Zn1246  1.951   .     S
O1244  Zn1247  1.945   .     S
C1249  O1335   1.271   .     A
C1249  C1259   1.440   .     S
C1249  O1337   1.270   .     A
C1250  C1287   1.433   .     A
C1250  C1251   1.415   .     A
C1250  C1285   1.491   .     S
C1251  C1279   1.488   .     S
C1251  C389    1.410   1_556 S
C1252  O1338   1.284   .     A
C1252  C1258   1.465   .     S
C1252  O1336   1.279   .     A
C1253  C1254   1.421   .     A
C1253  C1255   1.416   .     A
C1254  C1257   1.407   .     A
C1254  C1288   1.423   .     A
C1255  C1256   1.390   .     A
C1255  H1291   1.081   .     S
C1256  H1317   1.084   .     S
C1256  C1268   1.390   .     A
C1257  C1268   1.390   .     A
C1257  H1313   1.075   .     S
C1258  C1355   1.346   .     S
C1258  C1368   1.526   .     S
C1260  C1269   1.403   .     A
C1260  H1318   1.084   .     S
C1260  C1267   1.398   .     A
C1261  C1264   1.474   .     S
C1261  C1550   1.363   .     S
C1261  C1563   1.545   .     S
C1262  C1263   1.434   .     S
C1263  O1333   1.280   .     A
C1263  O1339   1.269   .     A
C1264  O1334   1.272   .     A
C1264  O1340   1.268   .     A
C1265  C1268   1.452   .     S
C1265  O1324   1.272   .     A
C1265  O1326   1.272   .     A
C1266  C1267   1.473   .     S
C1266  O1327   1.290   .     A
C1266  O1325   1.289   .     A
C1267  C1271   1.394   .     A
C1269  C1286   1.429   .     A
C1269  C1280   1.483   .     S
C1270  H1320   1.084   .     S
C1270  O1328   1.221   .     D
C1270  C1290   1.482   .     S
C1271  H1319   1.081   .     S
C1271  C1282   1.403   .     A
C1272  H1296   1.112   .     S
C1272  C1273   1.535   .     S
C1272  H1295   1.110   .     S
C1273  C1274   1.526   .     S
C1273  H1294   1.109   .     S
C1274  H1292   1.110   .     S
C1274  H1321   1.110   .     S
C1274  H1322   1.111   .     S
C1275  H1303   1.113   .     S
C1275  H1304   1.112   .     S
C1276  H1301   1.111   .     S
C1276  H1300   1.111   .     S
C1276  C1563   1.537   .     S
C1276  C1565   1.527   .     S
C1277  H1297   1.111   .     S
C1277  H1298   1.111   .     S
C1278  O1329   1.219   .     D
C1278  C1550   1.485   .     S
C1278  H1593   1.085   .     S
C1279  O1330   1.221   .     D
C1279  H1306   1.085   .     S
C1280  H1307   1.086   .     S
C1280  O467    1.221   1_556 S
C1281  H1314   1.110   .     S
C1281  H1315   1.112   .     S
C1281  C1289   1.536   .     S
C1281  C1283   1.545   .     S
C1282  C1287   1.422   .     A
C1282  C1286   1.414   .     A
C1283  C1284   1.527   .     S
C1283  H1312   1.109   .     S
C1283  H1311   1.109   .     S
C1284  H1310   1.110   .     S
C1284  H1309   1.111   .     S
C1284  H1308   1.109   .     S
C1285  H1316   1.085   .     S
C1285  O1332   1.221   .     D
C1286  C426    1.419   1_556 S
C1287  C424    1.420   1_556 S
C1288  C1289   1.435   .     A
C1289  C1290   1.421   .     A
H1293  C1369   1.109   .     S
H1299  C1565   1.110   .     S
H1302  C1355   1.086   .     S
O1323  Zn1341  1.970   .     S
O1323  Zn1344  1.935   .     S
O1323  Zn1343  1.923   .     S
O1323  Zn1342  1.941   .     S
O1324  Zn1342  1.918   .     S
O1325  Zn1344  1.934   .     S
O1326  Zn1343  1.928   .     S
O1327  Zn1341  1.916   .     S
O1333  Zn1341  1.937   .     S
O1334  Zn1344  1.939   .     S
O1335  Zn1342  1.928   .     S
O1336  Zn1343  1.942   .     S
O1337  Zn1344  1.931   .     S
O1338  Zn1341  1.918   .     S
O1339  Zn1342  1.951   .     S
O1340  Zn1343  1.945   .     S
C1345  O1431   1.271   .     A
C1345  C1355   1.440   .     S
C1345  O1433   1.270   .     A
C1346  C1383   1.433   .     A
C1346  C1347   1.415   .     A
C1346  C1381   1.491   .     S
C1347  C1375   1.488   .     S
C1347  C485    1.410   1_556 S
C1348  O1434   1.284   .     A
C1348  C1354   1.465   .     S
C1348  O1432   1.279   .     A
C1349  C1350   1.421   .     A
C1349  C1351   1.416   .     A
C1350  C1353   1.407   .     A
C1350  C1384   1.423   .     A
C1351  C1352   1.390   .     A
C1351  H1387   1.081   .     S
C1352  H1413   1.084   .     S
C1352  C1364   1.390   .     A
C1353  C1364   1.390   .     A
C1353  H1409   1.075   .     S
C1354  C1163   1.346   1_655 S
C1354  C1176   1.526   1_655 S
C1356  C1365   1.403   .     A
C1356  H1414   1.084   .     S
C1356  C1363   1.398   .     A
C1357  C1360   1.474   .     S
C1357  C1646   1.363   .     S
C1357  C1659   1.545   .     S
C1358  C1359   1.434   .     S
C1359  O1429   1.280   .     A
C1359  O1435   1.269   .     A
C1360  O1430   1.272   .     A
C1360  O1436   1.268   .     A
C1361  C1364   1.452   .     S
C1361  O1420   1.272   .     A
C1361  O1422   1.272   .     A
C1362  C1363   1.473   .     S
C1362  O1423   1.290   .     A
C1362  O1421   1.289   .     A
C1363  C1367   1.394   .     A
C1365  C1382   1.429   .     A
C1365  C1376   1.483   .     S
C1366  H1416   1.084   .     S
C1366  O1424   1.221   .     D
C1366  C1386   1.482   .     S
C1367  H1415   1.081   .     S
C1367  C1378   1.403   .     A
C1368  H1392   1.112   .     S
C1368  C1369   1.535   .     S
C1368  H1391   1.110   .     S
C1369  C1370   1.526   .     S
C1369  H1390   1.109   .     S
C1370  H1388   1.110   .     S
C1370  H1417   1.110   .     S
C1370  H1418   1.111   .     S
C1371  H1399   1.113   .     S
C1371  H1400   1.112   .     S
C1372  H1397   1.111   .     S
C1372  H1396   1.111   .     S
C1372  C1659   1.537   .     S
C1372  C1661   1.527   .     S
C1373  H1393   1.111   .     S
C1373  H1394   1.111   .     S
C1374  O1425   1.219   .     D
C1374  C1646   1.485   .     S
C1374  H1689   1.085   .     S
C1375  O1426   1.221   .     D
C1375  H1402   1.085   .     S
C1376  H1403   1.086   .     S
C1376  O563    1.221   1_556 S
C1377  H1410   1.110   .     S
C1377  H1411   1.112   .     S
C1377  C1385   1.536   .     S
C1377  C1379   1.545   .     S
C1378  C1383   1.422   .     A
C1378  C1382   1.414   .     A
C1379  C1380   1.527   .     S
C1379  H1408   1.109   .     S
C1379  H1407   1.109   .     S
C1380  H1406   1.110   .     S
C1380  H1405   1.111   .     S
C1380  H1404   1.109   .     S
C1381  H1412   1.085   .     S
C1381  O1428   1.221   .     D
C1382  C522    1.419   1_556 S
C1383  C520    1.420   1_556 S
C1384  C1385   1.435   .     A
C1385  C1386   1.421   .     A
H1389  C1177   1.109   1_655 S
H1395  C1661   1.110   .     S
H1398  C1163   1.086   1_655 S
O1419  Zn1437  1.970   .     S
O1419  Zn1440  1.935   .     S
O1419  Zn1439  1.923   .     S
O1419  Zn1438  1.941   .     S
O1420  Zn1438  1.918   .     S
O1421  Zn1440  1.934   .     S
O1422  Zn1439  1.928   .     S
O1423  Zn1437  1.916   .     S
O1429  Zn1437  1.937   .     S
O1430  Zn1440  1.939   .     S
O1431  Zn1438  1.928   .     S
O1432  Zn1439  1.942   .     S
O1433  Zn1440  1.931   .     S
O1434  Zn1437  1.918   .     S
O1435  Zn1438  1.951   .     S
O1436  Zn1439  1.945   .     S
C1441  O1527   1.271   .     A
C1441  C1451   1.440   .     S
C1441  O1529   1.270   .     A
C1442  C1479   1.433   .     A
C1442  C1443   1.415   .     A
C1442  C1477   1.491   .     S
C1443  C1471   1.488   .     S
C1443  C581    1.410   1_556 S
C1444  O1530   1.284   .     A
C1444  C1450   1.465   .     S
C1444  O1528   1.279   .     A
C1445  C1446   1.421   .     A
C1445  C1447   1.416   .     A
C1446  C1449   1.407   .     A
C1446  C1480   1.423   .     A
C1447  C1448   1.390   .     A
C1447  H1483   1.081   .     S
C1448  H1509   1.084   .     S
C1448  C1460   1.390   .     A
C1449  C1460   1.390   .     A
C1449  H1505   1.075   .     S
C1450  C1547   1.346   .     S
C1450  C1560   1.526   .     S
C1451  C1642   1.346   1_455 S
C1451  H1686   1.086   1_455 S
C1452  C1461   1.403   .     A
C1452  H1510   1.084   .     S
C1452  C1459   1.398   .     A
C1453  C1456   1.474   .     S
C1453  C878    1.363   1_565 S
C1453  C891    1.545   1_565 S
C1454  C1455   1.434   .     S
C1455  O1525   1.280   .     A
C1455  O1531   1.269   .     A
C1456  O1526   1.272   .     A
C1456  O1532   1.268   .     A
C1457  C1460   1.452   .     S
C1457  O1516   1.272   .     A
C1457  O1518   1.272   .     A
C1458  C1459   1.473   .     S
C1458  O1519   1.290   .     A
C1458  O1517   1.289   .     A
C1459  C1463   1.394   .     A
C1461  C1478   1.429   .     A
C1461  C1472   1.483   .     S
C1462  H1512   1.084   .     S
C1462  O1520   1.221   .     D
C1462  C1482   1.482   .     S
C1463  H1511   1.081   .     S
C1463  C1474   1.403   .     A
C1464  H1488   1.112   .     S
C1464  C1465   1.535   .     S
C1464  H1487   1.110   .     S
C1464  C1642   1.526   1_455 S
C1465  C1466   1.526   .     S
C1465  H1486   1.109   .     S
C1465  H1677   1.109   1_455 S
C1466  H1484   1.110   .     S
C1466  H1513   1.110   .     S
C1466  H1514   1.111   .     S
C1467  H1495   1.113   .     S
C1467  H1496   1.112   .     S
C1468  H1493   1.111   .     S
C1468  H1492   1.111   .     S
C1468  C891    1.537   1_565 S
C1468  C893    1.527   1_565 S
C1469  H1489   1.111   .     S
C1469  H1490   1.111   .     S
C1470  O1521   1.219   .     D
C1470  C878    1.485   1_565 S
C1470  H921    1.085   1_565 S
C1471  O1522   1.221   .     D
C1471  H1498   1.085   .     S
C1472  H1499   1.086   .     S
C1472  O659    1.221   1_556 S
C1473  H1506   1.110   .     S
C1473  H1507   1.112   .     S
C1473  C1481   1.536   .     S
C1473  C1475   1.545   .     S
C1474  C1479   1.422   .     A
C1474  C1478   1.414   .     A
C1475  C1476   1.527   .     S
C1475  H1504   1.109   .     S
C1475  H1503   1.109   .     S
C1476  H1502   1.110   .     S
C1476  H1501   1.111   .     S
C1476  H1500   1.109   .     S
C1477  H1508   1.085   .     S
C1477  O1524   1.221   .     D
C1478  C618    1.419   1_556 S
C1479  C616    1.420   1_556 S
C1480  C1481   1.435   .     A
C1481  C1482   1.421   .     A
H1485  C1561   1.109   .     S
H1491  C893    1.110   1_565 S
H1494  C1547   1.086   .     S
O1515  Zn1533  1.970   .     S
O1515  Zn1536  1.935   .     S
O1515  Zn1535  1.923   .     S
O1515  Zn1534  1.941   .     S
O1516  Zn1534  1.918   .     S
O1517  Zn1536  1.934   .     S
O1518  Zn1535  1.928   .     S
O1519  Zn1533  1.916   .     S
O1525  Zn1533  1.937   .     S
O1526  Zn1536  1.939   .     S
O1527  Zn1534  1.928   .     S
O1528  Zn1535  1.942   .     S
O1529  Zn1536  1.931   .     S
O1530  Zn1533  1.918   .     S
O1531  Zn1534  1.951   .     S
O1532  Zn1535  1.945   .     S
C1537  O1623   1.271   .     A
C1537  C1547   1.440   .     S
C1537  O1625   1.270   .     A
C1538  C1575   1.433   .     A
C1538  C1539   1.415   .     A
C1538  C1573   1.491   .     S
C1539  C1567   1.488   .     S
C1539  C677    1.410   1_556 S
C1540  O1626   1.284   .     A
C1540  C1546   1.465   .     S
C1540  O1624   1.279   .     A
C1541  C1542   1.421   .     A
C1541  C1543   1.416   .     A
C1542  C1545   1.407   .     A
C1542  C1576   1.423   .     A
C1543  C1544   1.390   .     A
C1543  H1579   1.081   .     S
C1544  H1605   1.084   .     S
C1544  C1556   1.390   .     A
C1545  C1556   1.390   .     A
C1545  H1601   1.075   .     S
C1546  C1643   1.346   .     S
C1546  C1656   1.526   .     S
C1548  C1557   1.403   .     A
C1548  H1606   1.084   .     S
C1548  C1555   1.398   .     A
C1549  C1552   1.474   .     S
C1549  C974    1.363   1_565 S
C1549  C987    1.545   1_565 S
C1550  C1551   1.434   .     S
C1551  O1621   1.280   .     A
C1551  O1627   1.269   .     A
C1552  O1622   1.272   .     A
C1552  O1628   1.268   .     A
C1553  C1556   1.452   .     S
C1553  O1612   1.272   .     A
C1553  O1614   1.272   .     A
C1554  C1555   1.473   .     S
C1554  O1615   1.290   .     A
C1554  O1613   1.289   .     A
C1555  C1559   1.394   .     A
C1557  C1574   1.429   .     A
C1557  C1568   1.483   .     S
C1558  H1608   1.084   .     S
C1558  O1616   1.221   .     D
C1558  C1578   1.482   .     S
C1559  H1607   1.081   .     S
C1559  C1570   1.403   .     A
C1560  H1584   1.112   .     S
C1560  C1561   1.535   .     S
C1560  H1583   1.110   .     S
C1561  C1562   1.526   .     S
C1561  H1582   1.109   .     S
C1562  H1580   1.110   .     S
C1562  H1609   1.110   .     S
C1562  H1610   1.111   .     S
C1563  H1591   1.113   .     S
C1563  H1592   1.112   .     S
C1564  H1589   1.111   .     S
C1564  H1588   1.111   .     S
C1564  C987    1.537   1_565 S
C1564  C989    1.527   1_565 S
C1565  H1585   1.111   .     S
C1565  H1586   1.111   .     S
C1566  O1617   1.219   .     D
C1566  C974    1.485   1_565 S
C1566  H1017   1.085   1_565 S
C1567  O1618   1.221   .     D
C1567  H1594   1.085   .     S
C1568  H1595   1.086   .     S
C1568  O755    1.221   1_556 S
C1569  H1602   1.110   .     S
C1569  H1603   1.112   .     S
C1569  C1577   1.536   .     S
C1569  C1571   1.545   .     S
C1570  C1575   1.422   .     A
C1570  C1574   1.414   .     A
C1571  C1572   1.527   .     S
C1571  H1600   1.109   .     S
C1571  H1599   1.109   .     S
C1572  H1598   1.110   .     S
C1572  H1597   1.111   .     S
C1572  H1596   1.109   .     S
C1573  H1604   1.085   .     S
C1573  O1620   1.221   .     D
C1574  C714    1.419   1_556 S
C1575  C712    1.420   1_556 S
C1576  C1577   1.435   .     A
C1577  C1578   1.421   .     A
H1581  C1657   1.109   .     S
H1587  C989    1.110   1_565 S
H1590  C1643   1.086   .     S
O1611  Zn1629  1.970   .     S
O1611  Zn1632  1.935   .     S
O1611  Zn1631  1.923   .     S
O1611  Zn1630  1.941   .     S
O1612  Zn1630  1.918   .     S
O1613  Zn1632  1.934   .     S
O1614  Zn1631  1.928   .     S
O1615  Zn1629  1.916   .     S
O1621  Zn1629  1.937   .     S
O1622  Zn1632  1.939   .     S
O1623  Zn1630  1.928   .     S
O1624  Zn1631  1.942   .     S
O1625  Zn1632  1.931   .     S
O1626  Zn1629  1.918   .     S
O1627  Zn1630  1.951   .     S
O1628  Zn1631  1.945   .     S
C1633  O1719   1.271   .     A
C1633  C1643   1.440   .     S
C1633  O1721   1.270   .     A
C1634  C1671   1.433   .     A
C1634  C1635   1.415   .     A
C1634  C1669   1.491   .     S
C1635  C1663   1.488   .     S
C1635  C773    1.410   1_556 S
C1636  O1722   1.284   .     A
C1636  C1642   1.465   .     S
C1636  O1720   1.279   .     A
C1637  C1638   1.421   .     A
C1637  C1639   1.416   .     A
C1638  C1641   1.407   .     A
C1638  C1672   1.423   .     A
C1639  C1640   1.390   .     A
C1639  H1675   1.081   .     S
C1640  H1701   1.084   .     S
C1640  C1652   1.390   .     A
C1641  C1652   1.390   .     A
C1641  H1697   1.075   .     S
C1642  C1451   1.346   1_655 S
C1642  C1464   1.526   1_655 S
C1644  C1653   1.403   .     A
C1644  H1702   1.084   .     S
C1644  C1651   1.398   .     A
C1645  C1648   1.474   .     S
C1645  C1070   1.363   1_565 S
C1645  C1083   1.545   1_565 S
C1646  C1647   1.434   .     S
C1647  O1717   1.280   .     A
C1647  O1723   1.269   .     A
C1648  O1718   1.272   .     A
C1648  O1724   1.268   .     A
C1649  C1652   1.452   .     S
C1649  O1708   1.272   .     A
C1649  O1710   1.272   .     A
C1650  C1651   1.473   .     S
C1650  O1711   1.290   .     A
C1650  O1709   1.289   .     A
C1651  C1655   1.394   .     A
C1653  C1670   1.429   .     A
C1653  C1664   1.483   .     S
C1654  H1704   1.084   .     S
C1654  O1712   1.221   .     D
C1654  C1674   1.482   .     S
C1655  H1703   1.081   .     S
C1655  C1666   1.403   .     A
C1656  H1680   1.112   .     S
C1656  C1657   1.535   .     S
C1656  H1679   1.110   .     S
C1657  C1658   1.526   .     S
C1657  H1678   1.109   .     S
C1658  H1676   1.110   .     S
C1658  H1705   1.110   .     S
C1658  H1706   1.111   .     S
C1659  H1687   1.113   .     S
C1659  H1688   1.112   .     S
C1660  H1685   1.111   .     S
C1660  H1684   1.111   .     S
C1660  C1083   1.537   1_565 S
C1660  C1085   1.527   1_565 S
C1661  H1681   1.111   .     S
C1661  H1682   1.111   .     S
C1662  O1713   1.219   .     D
C1662  C1070   1.485   1_565 S
C1662  H1113   1.085   1_565 S
C1663  O1714   1.221   .     D
C1663  H1690   1.085   .     S
C1664  H1691   1.086   .     S
C1664  O851    1.221   1_556 S
C1665  H1698   1.110   .     S
C1665  H1699   1.112   .     S
C1665  C1673   1.536   .     S
C1665  C1667   1.545   .     S
C1666  C1671   1.422   .     A
C1666  C1670   1.414   .     A
C1667  C1668   1.527   .     S
C1667  H1696   1.109   .     S
C1667  H1695   1.109   .     S
C1668  H1694   1.110   .     S
C1668  H1693   1.111   .     S
C1668  H1692   1.109   .     S
C1669  H1700   1.085   .     S
C1669  O1716   1.221   .     D
C1670  C810    1.419   1_556 S
C1671  C808    1.420   1_556 S
C1672  C1673   1.435   .     A
C1673  C1674   1.421   .     A
H1677  C1465   1.109   1_655 S
H1683  C1085   1.110   1_565 S
H1686  C1451   1.086   1_655 S
O1707  Zn1725  1.970   .     S
O1707  Zn1728  1.935   .     S
O1707  Zn1727  1.923   .     S
O1707  Zn1726  1.941   .     S
O1708  Zn1726  1.918   .     S
O1709  Zn1728  1.934   .     S
O1710  Zn1727  1.928   .     S
O1711  Zn1725  1.916   .     S
O1717  Zn1725  1.937   .     S
O1718  Zn1728  1.939   .     S
O1719  Zn1726  1.928   .     S
O1720  Zn1727  1.942   .     S
O1721  Zn1728  1.931   .     S
O1722  Zn1725  1.918   .     S
O1723  Zn1726  1.951   .     S
O1724  Zn1727  1.945   .     S
