data_str_m1_o10_o18_pcu_sym.99
_audit_creation_date              2020-01-03
_audit_creation_method            'Materials Studio'
_symmetry_space_group_name_H-M    'P1'
_symmetry_Int_Tables_number       1
_symmetry_cell_setting            triclinic
loop_
_symmetry_equiv_pos_as_xyz
  x,y,z
_cell_length_a                    32.7257
_cell_length_b                    32.6160
_cell_length_c                    35.4423
_cell_angle_alpha                 97.9929
_cell_angle_beta                  72.9841
_cell_angle_gamma                 98.1894
loop_
_atom_site_label
_atom_site_type_symbol
_atom_site_fract_x
_atom_site_fract_y
_atom_site_fract_z
_atom_site_U_iso_or_equiv
_atom_site_adp_type
_atom_site_occupancy
C1     C     0.05286   0.16013   0.25881   0.00000  Uiso   1.00
C2     C     0.20427   0.13683   0.45949   0.00000  Uiso   1.00
C3     C     0.22731   0.11683   0.47796   0.00000  Uiso   1.00
C4     C     0.28108   0.17323   0.24137   0.00000  Uiso   1.00
C5     C     0.21226   0.11432   0.01927   0.00000  Uiso   1.00
C6     C     0.17757   0.13714   0.04125   0.00000  Uiso   1.00
C7     C     0.23295   0.09336   0.04015   0.00000  Uiso   1.00
C8     C     0.22778   0.10552   0.08100   0.00000  Uiso   1.00
C9     C     0.17397   0.14980   0.08133   0.00000  Uiso   1.00
C10    C     0.32714   0.17405   0.23789   0.00000  Uiso   1.00
C11    C     0.00730   0.15716   0.26463   0.00000  Uiso   1.00
C12    C     0.09977   0.21767   0.42423   0.00000  Uiso   1.00
C13    C     0.18012   0.32252   0.23800   0.00000  Uiso   1.00
C14    C     0.15109   0.01264   0.26336   0.00000  Uiso   1.00
C15    C     0.15575   0.05643   0.25927   0.00000  Uiso   1.00
C16    C     0.17675   0.27775   0.24135   0.00000  Uiso   1.00
C17    C     0.18824   0.14529   0.14399   0.00000  Uiso   1.00
C18    C     0.14528   0.18784   0.35657   0.00000  Uiso   1.00
C19    C     0.13242   0.19299   0.40076   0.00000  Uiso   1.00
C20    C     0.19847   0.13457   0.10115   0.00000  Uiso   1.00
C21    C     0.07971   0.20891   0.46401   0.00000  Uiso   1.00
C22    C     0.25707   0.05558   0.02115   0.00000  Uiso   1.00
C23    C     0.15085   0.16885   0.41969   0.00000  Uiso   1.00
C24    C     0.23401   0.01589   0.03969   0.00000  Uiso   1.00
C25    C     0.31154   0.13743   0.30144   0.00000  Uiso   1.00
C26    C     0.00169   0.12366   0.32840   0.00000  Uiso   1.00
C27    C     0.03173   0.21364   0.48209   0.00000  Uiso   1.00
C28    C     0.00440   0.19215   0.45499   0.00000  Uiso   1.00
C29    C     0.08679   0.25353   0.40834   0.00000  Uiso   1.00
C30    C     0.12439   0.28734   0.39691   0.00000  Uiso   1.00
C31    C     0.07942   0.14256   0.07903   0.00000  Uiso   1.00
C32    C     0.07654   0.09501   0.07228   0.00000  Uiso   1.00
C33    C     0.13993   0.17021   0.46118   0.00000  Uiso   1.00
C34    C     0.10302   0.18972   0.48386   0.00000  Uiso   1.00
C35    C     0.16460   0.15207   0.48042   0.00000  Uiso   1.00
C36    C     0.15011   0.15061   0.02200   0.00000  Uiso   1.00
C37    C     0.10883   0.16310   0.04289   0.00000  Uiso   1.00
C38    C     0.09053   0.18940   0.02552   0.00000  Uiso   1.00
H39    H     0.15394   0.17380   0.09709   0.00000  Uiso   1.00
H40    H     0.01016   0.20184   0.18929   0.00000  Uiso   1.00
H41    H     0.02387   0.10035   0.31176   0.00000  Uiso   1.00
H42    H     0.01995   0.15085   0.34087   0.00000  Uiso   1.00
H43    H     0.31115   0.10904   0.35347   0.00000  Uiso   1.00
H44    H     0.28976   0.16027   0.32000   0.00000  Uiso   1.00
H45    H     0.29228   0.10918   0.29182   0.00000  Uiso   1.00
H46    H     0.23129   0.32022   0.19261   0.00000  Uiso   1.00
H47    H     0.10067   0.01899   0.30843   0.00000  Uiso   1.00
H48    H     0.24718   0.10103   0.12760   0.00000  Uiso   1.00
H49    H     0.27327   0.10918   0.42862   0.00000  Uiso   1.00
H50    H     0.17381   0.14867   0.40130   0.00000  Uiso   1.00
H51    H     0.00975   0.20864   0.42840   0.00000  Uiso   1.00
H52    H     0.01182   0.15948   0.44547   0.00000  Uiso   1.00
H53    H     0.30311   0.19179   0.47142   0.00000  Uiso   1.00
H54    H     0.01817   0.19799   0.00949   0.00000  Uiso   1.00
H55    H     0.02633   0.24697   0.48986   0.00000  Uiso   1.00
H56    H     0.15163   0.27516   0.37318   0.00000  Uiso   1.00
H57    H     0.11365   0.31309   0.38597   0.00000  Uiso   1.00
H58    H     0.13582   0.30007   0.42323   0.00000  Uiso   1.00
H59    H     0.07312   0.24238   0.38315   0.00000  Uiso   1.00
H60    H     0.06117   0.26924   0.43104   0.00000  Uiso   1.00
H61    H     0.21915   0.14137   0.42876   0.00000  Uiso   1.00
H62    H     0.06789   0.08372   0.04426   0.00000  Uiso   1.00
H63    H     0.10738   0.08373   0.07094   0.00000  Uiso   1.00
H64    H     0.05131   0.08157   0.09723   0.00000  Uiso   1.00
H65    H     0.08820   0.15377   0.10678   0.00000  Uiso   1.00
H66    H     0.04601   0.15044   0.08492   0.00000  Uiso   1.00
H67    H     0.06488   0.21954   0.07670   0.00000  Uiso   1.00
H68    H     0.23392   0.01726   0.07113   0.00000  Uiso   1.00
H69    H     0.20031   0.01088   0.03787   0.00000  Uiso   1.00
H70    H     0.25072   0.32202   0.02322   0.00000  Uiso   1.00
H71    H     0.25934   0.04831   0.48931   0.00000  Uiso   1.00
H72    H     0.29032   0.06124   0.02417   0.00000  Uiso   1.00
O73    O     0.16667   0.16667   0.25000   0.00000  Uiso   1.00
O74    O     0.15693   0.12393   0.16625   0.00000  Uiso   1.00
O75    O     0.12687   0.20646   0.33749   0.00000  Uiso   1.00
O76    O     0.21088   0.17493   0.15877   0.00000  Uiso   1.00
O77    O     0.17198   0.16135   0.33749   0.00000  Uiso   1.00
O78    O     0.06267   0.21691   0.04913   0.00000  Uiso   1.00
O79    O     0.02452   0.19206   0.20687   0.00000  Uiso   1.00
O80    O     0.21285   0.00804   0.20898   0.00000  Uiso   1.00
O81    O     0.11780   0.32954   0.29334   0.00000  Uiso   1.00
O82    O     0.25210   0.08859   0.09978   0.00000  Uiso   1.00
O83    O     0.26752   0.10543   0.45705   0.00000  Uiso   1.00
O84    O     0.17849   0.08101   0.27821   0.00000  Uiso   1.00
O85    O     0.14581   0.26136   0.26767   0.00000  Uiso   1.00
O86    O     0.07452   0.13251   0.23607   0.00000  Uiso   1.00
O87    O     0.26785   0.19179   0.21806   0.00000  Uiso   1.00
O88    O     0.06990   0.18960   0.27820   0.00000  Uiso   1.00
O89    O     0.25440   0.15277   0.26768   0.00000  Uiso   1.00
O90    O     0.13800   0.06903   0.23607   0.00000  Uiso   1.00
O91    O     0.20437   0.25527   0.21806   0.00000  Uiso   1.00
Zn92   Zn    0.19244   0.14090   0.28278   0.00000  Uiso   1.00
Zn93   Zn    0.13459   0.12378   0.22258   0.00000  Uiso   1.00
Zn94   Zn    0.21166   0.19664   0.21188   0.00000  Uiso   1.00
Zn95   Zn    0.12798   0.20535   0.28277   0.00000  Uiso   1.00
C96    C     0.38619   0.16013   0.25881   0.00000  Uiso   1.00
C97    C     0.53761   0.13683   0.45949   0.00000  Uiso   1.00
C98    C     0.56064   0.11683   0.47796   0.00000  Uiso   1.00
C99    C     0.61441   0.17323   0.24137   0.00000  Uiso   1.00
C100   C     0.54559   0.11432   0.01927   0.00000  Uiso   1.00
C101   C     0.51090   0.13714   0.04125   0.00000  Uiso   1.00
C102   C     0.56628   0.09336   0.04015   0.00000  Uiso   1.00
C103   C     0.56111   0.10552   0.08100   0.00000  Uiso   1.00
C104   C     0.50731   0.14980   0.08133   0.00000  Uiso   1.00
C105   C     0.66048   0.17405   0.23789   0.00000  Uiso   1.00
C106   C     0.34064   0.15716   0.26463   0.00000  Uiso   1.00
C107   C     0.43310   0.21767   0.42423   0.00000  Uiso   1.00
C108   C     0.51346   0.32252   0.23800   0.00000  Uiso   1.00
C109   C     0.48442   0.01264   0.26336   0.00000  Uiso   1.00
C110   C     0.48908   0.05643   0.25927   0.00000  Uiso   1.00
C111   C     0.51009   0.27775   0.24135   0.00000  Uiso   1.00
C112   C     0.52157   0.14529   0.14399   0.00000  Uiso   1.00
C113   C     0.47862   0.18784   0.35657   0.00000  Uiso   1.00
C114   C     0.46576   0.19299   0.40076   0.00000  Uiso   1.00
C115   C     0.53180   0.13457   0.10115   0.00000  Uiso   1.00
C116   C     0.41304   0.20891   0.46401   0.00000  Uiso   1.00
C117   C     0.59040   0.05558   0.02115   0.00000  Uiso   1.00
C118   C     0.48418   0.16885   0.41969   0.00000  Uiso   1.00
C119   C     0.56734   0.01589   0.03969   0.00000  Uiso   1.00
C120   C     0.64487   0.13743   0.30144   0.00000  Uiso   1.00
C121   C     0.33502   0.12366   0.32840   0.00000  Uiso   1.00
C122   C     0.36506   0.21364   0.48209   0.00000  Uiso   1.00
C123   C     0.33773   0.19215   0.45499   0.00000  Uiso   1.00
C124   C     0.42013   0.25353   0.40834   0.00000  Uiso   1.00
C125   C     0.45772   0.28734   0.39691   0.00000  Uiso   1.00
C126   C     0.41275   0.14256   0.07903   0.00000  Uiso   1.00
C127   C     0.40987   0.09501   0.07228   0.00000  Uiso   1.00
C128   C     0.47327   0.17021   0.46118   0.00000  Uiso   1.00
C129   C     0.43636   0.18972   0.48386   0.00000  Uiso   1.00
C130   C     0.49793   0.15207   0.48042   0.00000  Uiso   1.00
C131   C     0.48344   0.15061   0.02200   0.00000  Uiso   1.00
C132   C     0.44216   0.16310   0.04289   0.00000  Uiso   1.00
C133   C     0.42387   0.18940   0.02552   0.00000  Uiso   1.00
H134   H     0.48727   0.17380   0.09709   0.00000  Uiso   1.00
H135   H     0.34349   0.20184   0.18929   0.00000  Uiso   1.00
H136   H     0.35720   0.10035   0.31176   0.00000  Uiso   1.00
H137   H     0.35329   0.15085   0.34087   0.00000  Uiso   1.00
H138   H     0.64449   0.10904   0.35347   0.00000  Uiso   1.00
H139   H     0.62309   0.16027   0.32000   0.00000  Uiso   1.00
H140   H     0.62561   0.10918   0.29182   0.00000  Uiso   1.00
H141   H     0.56463   0.32022   0.19261   0.00000  Uiso   1.00
H142   H     0.43400   0.01899   0.30843   0.00000  Uiso   1.00
H143   H     0.58051   0.10103   0.12760   0.00000  Uiso   1.00
H144   H     0.60660   0.10918   0.42862   0.00000  Uiso   1.00
H145   H     0.50714   0.14867   0.40130   0.00000  Uiso   1.00
H146   H     0.34308   0.20864   0.42840   0.00000  Uiso   1.00
H147   H     0.34515   0.15948   0.44547   0.00000  Uiso   1.00
H148   H     0.63645   0.19179   0.47142   0.00000  Uiso   1.00
H149   H     0.35150   0.19799   0.00949   0.00000  Uiso   1.00
H150   H     0.35966   0.24697   0.48986   0.00000  Uiso   1.00
H151   H     0.48496   0.27516   0.37318   0.00000  Uiso   1.00
H152   H     0.44698   0.31309   0.38597   0.00000  Uiso   1.00
H153   H     0.46915   0.30007   0.42323   0.00000  Uiso   1.00
H154   H     0.40645   0.24238   0.38315   0.00000  Uiso   1.00
H155   H     0.39451   0.26924   0.43104   0.00000  Uiso   1.00
H156   H     0.55249   0.14137   0.42876   0.00000  Uiso   1.00
H157   H     0.40122   0.08372   0.04426   0.00000  Uiso   1.00
H158   H     0.44072   0.08373   0.07094   0.00000  Uiso   1.00
H159   H     0.38464   0.08157   0.09723   0.00000  Uiso   1.00
H160   H     0.42153   0.15377   0.10678   0.00000  Uiso   1.00
H161   H     0.37934   0.15044   0.08492   0.00000  Uiso   1.00
H162   H     0.39821   0.21954   0.07670   0.00000  Uiso   1.00
H163   H     0.56725   0.01726   0.07113   0.00000  Uiso   1.00
H164   H     0.53364   0.01088   0.03787   0.00000  Uiso   1.00
H165   H     0.58406   0.32202   0.02322   0.00000  Uiso   1.00
H166   H     0.59267   0.04831   0.48931   0.00000  Uiso   1.00
H167   H     0.62365   0.06124   0.02417   0.00000  Uiso   1.00
O168   O     0.50000   0.16667   0.25000   0.00000  Uiso   1.00
O169   O     0.49027   0.12393   0.16625   0.00000  Uiso   1.00
O170   O     0.46020   0.20646   0.33749   0.00000  Uiso   1.00
O171   O     0.54421   0.17493   0.15877   0.00000  Uiso   1.00
O172   O     0.50532   0.16135   0.33749   0.00000  Uiso   1.00
O173   O     0.39601   0.21691   0.04913   0.00000  Uiso   1.00
O174   O     0.35785   0.19206   0.20687   0.00000  Uiso   1.00
O175   O     0.54618   0.00804   0.20898   0.00000  Uiso   1.00
O176   O     0.45113   0.32954   0.29334   0.00000  Uiso   1.00
O177   O     0.58544   0.08859   0.09978   0.00000  Uiso   1.00
O178   O     0.60086   0.10543   0.45705   0.00000  Uiso   1.00
O179   O     0.51182   0.08101   0.27821   0.00000  Uiso   1.00
O180   O     0.47914   0.26136   0.26767   0.00000  Uiso   1.00
O181   O     0.40785   0.13251   0.23607   0.00000  Uiso   1.00
O182   O     0.60119   0.19179   0.21806   0.00000  Uiso   1.00
O183   O     0.40323   0.18960   0.27820   0.00000  Uiso   1.00
O184   O     0.58773   0.15277   0.26768   0.00000  Uiso   1.00
O185   O     0.47133   0.06903   0.23607   0.00000  Uiso   1.00
O186   O     0.53771   0.25527   0.21806   0.00000  Uiso   1.00
Zn187  Zn    0.52577   0.14090   0.28278   0.00000  Uiso   1.00
Zn188  Zn    0.46792   0.12378   0.22258   0.00000  Uiso   1.00
Zn189  Zn    0.54500   0.19664   0.21188   0.00000  Uiso   1.00
Zn190  Zn    0.46131   0.20535   0.28277   0.00000  Uiso   1.00
C191   C     0.71952   0.16013   0.25881   0.00000  Uiso   1.00
C192   C     0.87094   0.13683   0.45949   0.00000  Uiso   1.00
C193   C     0.89397   0.11683   0.47796   0.00000  Uiso   1.00
C194   C     0.94775   0.17323   0.24137   0.00000  Uiso   1.00
C195   C     0.87892   0.11432   0.01927   0.00000  Uiso   1.00
C196   C     0.84424   0.13714   0.04125   0.00000  Uiso   1.00
C197   C     0.89962   0.09336   0.04015   0.00000  Uiso   1.00
C198   C     0.89444   0.10552   0.08100   0.00000  Uiso   1.00
C199   C     0.84064   0.14980   0.08133   0.00000  Uiso   1.00
C200   C     0.99381   0.17405   0.23789   0.00000  Uiso   1.00
C201   C     0.67397   0.15716   0.26463   0.00000  Uiso   1.00
C202   C     0.76644   0.21767   0.42423   0.00000  Uiso   1.00
C203   C     0.84679   0.32252   0.23800   0.00000  Uiso   1.00
C204   C     0.81776   0.01264   0.26336   0.00000  Uiso   1.00
C205   C     0.82241   0.05643   0.25927   0.00000  Uiso   1.00
C206   C     0.84342   0.27775   0.24135   0.00000  Uiso   1.00
C207   C     0.85491   0.14529   0.14399   0.00000  Uiso   1.00
C208   C     0.81195   0.18784   0.35657   0.00000  Uiso   1.00
C209   C     0.79909   0.19299   0.40076   0.00000  Uiso   1.00
C210   C     0.86514   0.13457   0.10115   0.00000  Uiso   1.00
C211   C     0.74638   0.20891   0.46401   0.00000  Uiso   1.00
C212   C     0.92374   0.05558   0.02115   0.00000  Uiso   1.00
C213   C     0.81752   0.16885   0.41969   0.00000  Uiso   1.00
C214   C     0.90068   0.01589   0.03969   0.00000  Uiso   1.00
C215   C     0.97820   0.13743   0.30144   0.00000  Uiso   1.00
C216   C     0.66836   0.12366   0.32840   0.00000  Uiso   1.00
C217   C     0.69840   0.21364   0.48209   0.00000  Uiso   1.00
C218   C     0.67106   0.19215   0.45499   0.00000  Uiso   1.00
C219   C     0.75346   0.25353   0.40834   0.00000  Uiso   1.00
C220   C     0.79106   0.28734   0.39691   0.00000  Uiso   1.00
C221   C     0.74608   0.14256   0.07903   0.00000  Uiso   1.00
C222   C     0.74320   0.09501   0.07228   0.00000  Uiso   1.00
C223   C     0.80660   0.17021   0.46118   0.00000  Uiso   1.00
C224   C     0.76969   0.18972   0.48386   0.00000  Uiso   1.00
C225   C     0.83127   0.15207   0.48042   0.00000  Uiso   1.00
C226   C     0.81678   0.15061   0.02200   0.00000  Uiso   1.00
C227   C     0.77549   0.16310   0.04289   0.00000  Uiso   1.00
C228   C     0.75720   0.18940   0.02552   0.00000  Uiso   1.00
H229   H     0.82060   0.17380   0.09709   0.00000  Uiso   1.00
H230   H     0.67683   0.20184   0.18929   0.00000  Uiso   1.00
H231   H     0.69054   0.10035   0.31176   0.00000  Uiso   1.00
H232   H     0.68662   0.15085   0.34087   0.00000  Uiso   1.00
H233   H     0.97782   0.10904   0.35347   0.00000  Uiso   1.00
H234   H     0.95642   0.16027   0.32000   0.00000  Uiso   1.00
H235   H     0.95895   0.10918   0.29182   0.00000  Uiso   1.00
H236   H     0.89796   0.32022   0.19261   0.00000  Uiso   1.00
H237   H     0.76733   0.01899   0.30843   0.00000  Uiso   1.00
H238   H     0.91384   0.10103   0.12760   0.00000  Uiso   1.00
H239   H     0.93994   0.10918   0.42862   0.00000  Uiso   1.00
H240   H     0.84047   0.14867   0.40130   0.00000  Uiso   1.00
H241   H     0.67641   0.20864   0.42840   0.00000  Uiso   1.00
H242   H     0.67849   0.15948   0.44547   0.00000  Uiso   1.00
H243   H     0.96978   0.19179   0.47142   0.00000  Uiso   1.00
H244   H     0.68484   0.19799   0.00949   0.00000  Uiso   1.00
H245   H     0.69299   0.24697   0.48986   0.00000  Uiso   1.00
H246   H     0.81829   0.27516   0.37318   0.00000  Uiso   1.00
H247   H     0.78031   0.31309   0.38597   0.00000  Uiso   1.00
H248   H     0.80248   0.30007   0.42323   0.00000  Uiso   1.00
H249   H     0.73978   0.24238   0.38315   0.00000  Uiso   1.00
H250   H     0.72784   0.26924   0.43104   0.00000  Uiso   1.00
H251   H     0.88582   0.14137   0.42876   0.00000  Uiso   1.00
H252   H     0.73455   0.08372   0.04426   0.00000  Uiso   1.00
H253   H     0.77405   0.08373   0.07094   0.00000  Uiso   1.00
H254   H     0.71798   0.08157   0.09723   0.00000  Uiso   1.00
H255   H     0.75486   0.15377   0.10678   0.00000  Uiso   1.00
H256   H     0.71267   0.15044   0.08492   0.00000  Uiso   1.00
H257   H     0.73154   0.21954   0.07670   0.00000  Uiso   1.00
H258   H     0.90058   0.01726   0.07113   0.00000  Uiso   1.00
H259   H     0.86697   0.01088   0.03787   0.00000  Uiso   1.00
H260   H     0.91739   0.32202   0.02322   0.00000  Uiso   1.00
H261   H     0.92600   0.04831   0.48931   0.00000  Uiso   1.00
H262   H     0.95698   0.06124   0.02417   0.00000  Uiso   1.00
O263   O     0.83333   0.16667   0.25000   0.00000  Uiso   1.00
O264   O     0.82360   0.12393   0.16625   0.00000  Uiso   1.00
O265   O     0.79354   0.20646   0.33749   0.00000  Uiso   1.00
O266   O     0.87755   0.17493   0.15877   0.00000  Uiso   1.00
O267   O     0.83865   0.16135   0.33749   0.00000  Uiso   1.00
O268   O     0.72934   0.21691   0.04913   0.00000  Uiso   1.00
O269   O     0.69119   0.19206   0.20687   0.00000  Uiso   1.00
O270   O     0.87951   0.00804   0.20898   0.00000  Uiso   1.00
O271   O     0.78447   0.32954   0.29334   0.00000  Uiso   1.00
O272   O     0.91877   0.08859   0.09978   0.00000  Uiso   1.00
O273   O     0.93419   0.10543   0.45705   0.00000  Uiso   1.00
O274   O     0.84515   0.08101   0.27821   0.00000  Uiso   1.00
O275   O     0.81247   0.26136   0.26767   0.00000  Uiso   1.00
O276   O     0.74119   0.13251   0.23607   0.00000  Uiso   1.00
O277   O     0.93452   0.19179   0.21806   0.00000  Uiso   1.00
O278   O     0.73656   0.18960   0.27820   0.00000  Uiso   1.00
O279   O     0.92106   0.15277   0.26768   0.00000  Uiso   1.00
O280   O     0.80467   0.06903   0.23607   0.00000  Uiso   1.00
O281   O     0.87104   0.25527   0.21806   0.00000  Uiso   1.00
Zn282  Zn    0.85910   0.14090   0.28278   0.00000  Uiso   1.00
Zn283  Zn    0.80125   0.12378   0.22258   0.00000  Uiso   1.00
Zn284  Zn    0.87833   0.19664   0.21188   0.00000  Uiso   1.00
Zn285  Zn    0.79465   0.20535   0.28277   0.00000  Uiso   1.00
C286   C     0.05286   0.49347   0.25881   0.00000  Uiso   1.00
C287   C     0.20427   0.47017   0.45949   0.00000  Uiso   1.00
C288   C     0.22731   0.45016   0.47796   0.00000  Uiso   1.00
C289   C     0.28108   0.50656   0.24137   0.00000  Uiso   1.00
C290   C     0.21226   0.44765   0.01927   0.00000  Uiso   1.00
C291   C     0.17757   0.47048   0.04125   0.00000  Uiso   1.00
C292   C     0.23295   0.42670   0.04015   0.00000  Uiso   1.00
C293   C     0.22778   0.43885   0.08100   0.00000  Uiso   1.00
C294   C     0.17397   0.48313   0.08133   0.00000  Uiso   1.00
C295   C     0.32714   0.50738   0.23789   0.00000  Uiso   1.00
C296   C     0.00730   0.49049   0.26463   0.00000  Uiso   1.00
C297   C     0.09977   0.55101   0.42423   0.00000  Uiso   1.00
C298   C     0.18012   0.65586   0.23800   0.00000  Uiso   1.00
C299   C     0.15109   0.34597   0.26336   0.00000  Uiso   1.00
C300   C     0.15575   0.38976   0.25927   0.00000  Uiso   1.00
C301   C     0.17675   0.61108   0.24135   0.00000  Uiso   1.00
C302   C     0.18824   0.47862   0.14399   0.00000  Uiso   1.00
C303   C     0.14528   0.52117   0.35657   0.00000  Uiso   1.00
C304   C     0.13242   0.52632   0.40076   0.00000  Uiso   1.00
C305   C     0.19847   0.46791   0.10115   0.00000  Uiso   1.00
C306   C     0.07971   0.54225   0.46401   0.00000  Uiso   1.00
C307   C     0.25707   0.38892   0.02115   0.00000  Uiso   1.00
C308   C     0.15085   0.50218   0.41969   0.00000  Uiso   1.00
C309   C     0.23401   0.34922   0.03969   0.00000  Uiso   1.00
C310   C     0.31154   0.47076   0.30144   0.00000  Uiso   1.00
C311   C     0.00169   0.45699   0.32840   0.00000  Uiso   1.00
C312   C     0.03173   0.54698   0.48209   0.00000  Uiso   1.00
C313   C     0.00440   0.52549   0.45499   0.00000  Uiso   1.00
C314   C     0.08679   0.58686   0.40834   0.00000  Uiso   1.00
C315   C     0.12439   0.62067   0.39691   0.00000  Uiso   1.00
C316   C     0.07942   0.47590   0.07903   0.00000  Uiso   1.00
C317   C     0.07654   0.42835   0.07228   0.00000  Uiso   1.00
C318   C     0.13993   0.50354   0.46118   0.00000  Uiso   1.00
C319   C     0.10302   0.52305   0.48386   0.00000  Uiso   1.00
C320   C     0.16460   0.48541   0.48042   0.00000  Uiso   1.00
C321   C     0.15011   0.48394   0.02200   0.00000  Uiso   1.00
C322   C     0.10883   0.49643   0.04289   0.00000  Uiso   1.00
C323   C     0.09053   0.52273   0.02552   0.00000  Uiso   1.00
H324   H     0.15394   0.50713   0.09709   0.00000  Uiso   1.00
H325   H     0.01016   0.53517   0.18929   0.00000  Uiso   1.00
H326   H     0.02387   0.43369   0.31176   0.00000  Uiso   1.00
H327   H     0.01995   0.48419   0.34087   0.00000  Uiso   1.00
H328   H     0.31115   0.44238   0.35347   0.00000  Uiso   1.00
H329   H     0.28976   0.49360   0.32000   0.00000  Uiso   1.00
H330   H     0.29228   0.44252   0.29182   0.00000  Uiso   1.00
H331   H     0.23129   0.65355   0.19261   0.00000  Uiso   1.00
H332   H     0.10067   0.35232   0.30843   0.00000  Uiso   1.00
H333   H     0.24718   0.43436   0.12760   0.00000  Uiso   1.00
H334   H     0.27327   0.44251   0.42862   0.00000  Uiso   1.00
H335   H     0.17381   0.48200   0.40130   0.00000  Uiso   1.00
H336   H     0.00975   0.54197   0.42840   0.00000  Uiso   1.00
H337   H     0.01182   0.49281   0.44547   0.00000  Uiso   1.00
H338   H     0.30311   0.52513   0.47142   0.00000  Uiso   1.00
H339   H     0.01817   0.53133   0.00949   0.00000  Uiso   1.00
H340   H     0.02633   0.58030   0.48986   0.00000  Uiso   1.00
H341   H     0.15163   0.60850   0.37318   0.00000  Uiso   1.00
H342   H     0.11365   0.64642   0.38597   0.00000  Uiso   1.00
H343   H     0.13582   0.63341   0.42323   0.00000  Uiso   1.00
H344   H     0.07312   0.57571   0.38315   0.00000  Uiso   1.00
H345   H     0.06117   0.60258   0.43104   0.00000  Uiso   1.00
H346   H     0.21915   0.47470   0.42876   0.00000  Uiso   1.00
H347   H     0.06789   0.41706   0.04426   0.00000  Uiso   1.00
H348   H     0.10738   0.41706   0.07094   0.00000  Uiso   1.00
H349   H     0.05131   0.41491   0.09723   0.00000  Uiso   1.00
H350   H     0.08820   0.48710   0.10678   0.00000  Uiso   1.00
H351   H     0.04601   0.48378   0.08492   0.00000  Uiso   1.00
H352   H     0.06488   0.55288   0.07670   0.00000  Uiso   1.00
H353   H     0.23392   0.35059   0.07113   0.00000  Uiso   1.00
H354   H     0.20031   0.34422   0.03787   0.00000  Uiso   1.00
H355   H     0.25072   0.65536   0.02322   0.00000  Uiso   1.00
H356   H     0.25934   0.38164   0.48931   0.00000  Uiso   1.00
H357   H     0.29032   0.39457   0.02417   0.00000  Uiso   1.00
O358   O     0.16667   0.50000   0.25000   0.00000  Uiso   1.00
O359   O     0.15693   0.45726   0.16625   0.00000  Uiso   1.00
O360   O     0.12687   0.53979   0.33749   0.00000  Uiso   1.00
O361   O     0.21088   0.50826   0.15877   0.00000  Uiso   1.00
O362   O     0.17198   0.49468   0.33749   0.00000  Uiso   1.00
O363   O     0.06267   0.55024   0.04913   0.00000  Uiso   1.00
O364   O     0.02452   0.52539   0.20687   0.00000  Uiso   1.00
O365   O     0.21285   0.34138   0.20898   0.00000  Uiso   1.00
O366   O     0.11780   0.66288   0.29334   0.00000  Uiso   1.00
O367   O     0.25210   0.42192   0.09978   0.00000  Uiso   1.00
O368   O     0.26752   0.43877   0.45705   0.00000  Uiso   1.00
O369   O     0.17849   0.41434   0.27821   0.00000  Uiso   1.00
O370   O     0.14581   0.59469   0.26767   0.00000  Uiso   1.00
O371   O     0.07452   0.46584   0.23607   0.00000  Uiso   1.00
O372   O     0.26785   0.52512   0.21806   0.00000  Uiso   1.00
O373   O     0.06990   0.52293   0.27820   0.00000  Uiso   1.00
O374   O     0.25440   0.48610   0.26768   0.00000  Uiso   1.00
O375   O     0.13800   0.40236   0.23607   0.00000  Uiso   1.00
O376   O     0.20437   0.58860   0.21806   0.00000  Uiso   1.00
Zn377  Zn    0.19244   0.47423   0.28278   0.00000  Uiso   1.00
Zn378  Zn    0.13459   0.45711   0.22258   0.00000  Uiso   1.00
Zn379  Zn    0.21166   0.52997   0.21188   0.00000  Uiso   1.00
Zn380  Zn    0.12798   0.53868   0.28277   0.00000  Uiso   1.00
C381   C     0.38619   0.49347   0.25881   0.00000  Uiso   1.00
C382   C     0.53761   0.47017   0.45949   0.00000  Uiso   1.00
C383   C     0.56064   0.45016   0.47796   0.00000  Uiso   1.00
C384   C     0.61441   0.50656   0.24137   0.00000  Uiso   1.00
C385   C     0.54559   0.44765   0.01927   0.00000  Uiso   1.00
C386   C     0.51090   0.47048   0.04125   0.00000  Uiso   1.00
C387   C     0.56628   0.42670   0.04015   0.00000  Uiso   1.00
C388   C     0.56111   0.43885   0.08100   0.00000  Uiso   1.00
C389   C     0.50731   0.48313   0.08133   0.00000  Uiso   1.00
C390   C     0.66048   0.50738   0.23789   0.00000  Uiso   1.00
C391   C     0.34064   0.49049   0.26463   0.00000  Uiso   1.00
C392   C     0.43310   0.55101   0.42423   0.00000  Uiso   1.00
C393   C     0.51346   0.65586   0.23800   0.00000  Uiso   1.00
C394   C     0.48442   0.34597   0.26336   0.00000  Uiso   1.00
C395   C     0.48908   0.38976   0.25927   0.00000  Uiso   1.00
C396   C     0.51009   0.61108   0.24135   0.00000  Uiso   1.00
C397   C     0.52157   0.47862   0.14399   0.00000  Uiso   1.00
C398   C     0.47862   0.52117   0.35657   0.00000  Uiso   1.00
C399   C     0.46576   0.52632   0.40076   0.00000  Uiso   1.00
C400   C     0.53180   0.46791   0.10115   0.00000  Uiso   1.00
C401   C     0.41304   0.54225   0.46401   0.00000  Uiso   1.00
C402   C     0.59040   0.38892   0.02115   0.00000  Uiso   1.00
C403   C     0.48418   0.50218   0.41969   0.00000  Uiso   1.00
C404   C     0.56734   0.34922   0.03969   0.00000  Uiso   1.00
C405   C     0.64487   0.47076   0.30144   0.00000  Uiso   1.00
C406   C     0.33502   0.45699   0.32840   0.00000  Uiso   1.00
C407   C     0.36506   0.54698   0.48209   0.00000  Uiso   1.00
C408   C     0.33773   0.52549   0.45499   0.00000  Uiso   1.00
C409   C     0.42013   0.58686   0.40834   0.00000  Uiso   1.00
C410   C     0.45772   0.62067   0.39691   0.00000  Uiso   1.00
C411   C     0.41275   0.47590   0.07903   0.00000  Uiso   1.00
C412   C     0.40987   0.42835   0.07228   0.00000  Uiso   1.00
C413   C     0.47327   0.50354   0.46118   0.00000  Uiso   1.00
C414   C     0.43636   0.52305   0.48386   0.00000  Uiso   1.00
C415   C     0.49793   0.48541   0.48042   0.00000  Uiso   1.00
C416   C     0.48344   0.48394   0.02200   0.00000  Uiso   1.00
C417   C     0.44216   0.49643   0.04289   0.00000  Uiso   1.00
C418   C     0.42387   0.52273   0.02552   0.00000  Uiso   1.00
H419   H     0.48727   0.50713   0.09709   0.00000  Uiso   1.00
H420   H     0.34349   0.53517   0.18929   0.00000  Uiso   1.00
H421   H     0.35720   0.43369   0.31176   0.00000  Uiso   1.00
H422   H     0.35329   0.48419   0.34087   0.00000  Uiso   1.00
H423   H     0.64449   0.44238   0.35347   0.00000  Uiso   1.00
H424   H     0.62309   0.49360   0.32000   0.00000  Uiso   1.00
H425   H     0.62561   0.44252   0.29182   0.00000  Uiso   1.00
H426   H     0.56463   0.65355   0.19261   0.00000  Uiso   1.00
H427   H     0.43400   0.35232   0.30843   0.00000  Uiso   1.00
H428   H     0.58051   0.43436   0.12760   0.00000  Uiso   1.00
H429   H     0.60660   0.44251   0.42862   0.00000  Uiso   1.00
H430   H     0.50714   0.48200   0.40130   0.00000  Uiso   1.00
H431   H     0.34308   0.54197   0.42840   0.00000  Uiso   1.00
H432   H     0.34515   0.49281   0.44547   0.00000  Uiso   1.00
H433   H     0.63645   0.52513   0.47142   0.00000  Uiso   1.00
H434   H     0.35150   0.53133   0.00949   0.00000  Uiso   1.00
H435   H     0.35966   0.58030   0.48986   0.00000  Uiso   1.00
H436   H     0.48496   0.60850   0.37318   0.00000  Uiso   1.00
H437   H     0.44698   0.64642   0.38597   0.00000  Uiso   1.00
H438   H     0.46915   0.63341   0.42323   0.00000  Uiso   1.00
H439   H     0.40645   0.57571   0.38315   0.00000  Uiso   1.00
H440   H     0.39451   0.60258   0.43104   0.00000  Uiso   1.00
H441   H     0.55249   0.47470   0.42876   0.00000  Uiso   1.00
H442   H     0.40122   0.41706   0.04426   0.00000  Uiso   1.00
H443   H     0.44072   0.41706   0.07094   0.00000  Uiso   1.00
H444   H     0.38464   0.41491   0.09723   0.00000  Uiso   1.00
H445   H     0.42153   0.48710   0.10678   0.00000  Uiso   1.00
H446   H     0.37934   0.48378   0.08492   0.00000  Uiso   1.00
H447   H     0.39821   0.55288   0.07670   0.00000  Uiso   1.00
H448   H     0.56725   0.35059   0.07113   0.00000  Uiso   1.00
H449   H     0.53364   0.34422   0.03787   0.00000  Uiso   1.00
H450   H     0.58406   0.65536   0.02322   0.00000  Uiso   1.00
H451   H     0.59267   0.38164   0.48931   0.00000  Uiso   1.00
H452   H     0.62365   0.39457   0.02417   0.00000  Uiso   1.00
O453   O     0.50000   0.50000   0.25000   0.00000  Uiso   1.00
O454   O     0.49027   0.45726   0.16625   0.00000  Uiso   1.00
O455   O     0.46020   0.53979   0.33749   0.00000  Uiso   1.00
O456   O     0.54421   0.50826   0.15877   0.00000  Uiso   1.00
O457   O     0.50532   0.49468   0.33749   0.00000  Uiso   1.00
O458   O     0.39601   0.55024   0.04913   0.00000  Uiso   1.00
O459   O     0.35785   0.52539   0.20687   0.00000  Uiso   1.00
O460   O     0.54618   0.34138   0.20898   0.00000  Uiso   1.00
O461   O     0.45113   0.66288   0.29334   0.00000  Uiso   1.00
O462   O     0.58544   0.42192   0.09978   0.00000  Uiso   1.00
O463   O     0.60086   0.43877   0.45705   0.00000  Uiso   1.00
O464   O     0.51182   0.41434   0.27821   0.00000  Uiso   1.00
O465   O     0.47914   0.59469   0.26767   0.00000  Uiso   1.00
O466   O     0.40785   0.46584   0.23607   0.00000  Uiso   1.00
O467   O     0.60119   0.52512   0.21806   0.00000  Uiso   1.00
O468   O     0.40323   0.52293   0.27820   0.00000  Uiso   1.00
O469   O     0.58773   0.48610   0.26768   0.00000  Uiso   1.00
O470   O     0.47133   0.40236   0.23607   0.00000  Uiso   1.00
O471   O     0.53771   0.58860   0.21806   0.00000  Uiso   1.00
Zn472  Zn    0.52577   0.47423   0.28278   0.00000  Uiso   1.00
Zn473  Zn    0.46792   0.45711   0.22258   0.00000  Uiso   1.00
Zn474  Zn    0.54500   0.52997   0.21188   0.00000  Uiso   1.00
Zn475  Zn    0.46131   0.53868   0.28277   0.00000  Uiso   1.00
C476   C     0.71952   0.49347   0.25881   0.00000  Uiso   1.00
C477   C     0.87094   0.47017   0.45949   0.00000  Uiso   1.00
C478   C     0.89397   0.45016   0.47796   0.00000  Uiso   1.00
C479   C     0.94775   0.50656   0.24137   0.00000  Uiso   1.00
C480   C     0.87892   0.44765   0.01927   0.00000  Uiso   1.00
C481   C     0.84424   0.47048   0.04125   0.00000  Uiso   1.00
C482   C     0.89962   0.42670   0.04015   0.00000  Uiso   1.00
C483   C     0.89444   0.43885   0.08100   0.00000  Uiso   1.00
C484   C     0.84064   0.48313   0.08133   0.00000  Uiso   1.00
C485   C     0.99381   0.50738   0.23789   0.00000  Uiso   1.00
C486   C     0.67397   0.49049   0.26463   0.00000  Uiso   1.00
C487   C     0.76644   0.55101   0.42423   0.00000  Uiso   1.00
C488   C     0.84679   0.65586   0.23800   0.00000  Uiso   1.00
C489   C     0.81776   0.34597   0.26336   0.00000  Uiso   1.00
C490   C     0.82241   0.38976   0.25927   0.00000  Uiso   1.00
C491   C     0.84342   0.61108   0.24135   0.00000  Uiso   1.00
C492   C     0.85491   0.47862   0.14399   0.00000  Uiso   1.00
C493   C     0.81195   0.52117   0.35657   0.00000  Uiso   1.00
C494   C     0.79909   0.52632   0.40076   0.00000  Uiso   1.00
C495   C     0.86514   0.46791   0.10115   0.00000  Uiso   1.00
C496   C     0.74638   0.54225   0.46401   0.00000  Uiso   1.00
C497   C     0.92374   0.38892   0.02115   0.00000  Uiso   1.00
C498   C     0.81752   0.50218   0.41969   0.00000  Uiso   1.00
C499   C     0.90068   0.34922   0.03969   0.00000  Uiso   1.00
C500   C     0.97820   0.47076   0.30144   0.00000  Uiso   1.00
C501   C     0.66836   0.45699   0.32840   0.00000  Uiso   1.00
C502   C     0.69840   0.54698   0.48209   0.00000  Uiso   1.00
C503   C     0.67106   0.52549   0.45499   0.00000  Uiso   1.00
C504   C     0.75346   0.58686   0.40834   0.00000  Uiso   1.00
C505   C     0.79106   0.62067   0.39691   0.00000  Uiso   1.00
C506   C     0.74608   0.47590   0.07903   0.00000  Uiso   1.00
C507   C     0.74320   0.42835   0.07228   0.00000  Uiso   1.00
C508   C     0.80660   0.50354   0.46118   0.00000  Uiso   1.00
C509   C     0.76969   0.52305   0.48386   0.00000  Uiso   1.00
C510   C     0.83127   0.48541   0.48042   0.00000  Uiso   1.00
C511   C     0.81678   0.48394   0.02200   0.00000  Uiso   1.00
C512   C     0.77549   0.49643   0.04289   0.00000  Uiso   1.00
C513   C     0.75720   0.52273   0.02552   0.00000  Uiso   1.00
H514   H     0.82060   0.50713   0.09709   0.00000  Uiso   1.00
H515   H     0.67683   0.53517   0.18929   0.00000  Uiso   1.00
H516   H     0.69054   0.43369   0.31176   0.00000  Uiso   1.00
H517   H     0.68662   0.48419   0.34087   0.00000  Uiso   1.00
H518   H     0.97782   0.44238   0.35347   0.00000  Uiso   1.00
H519   H     0.95642   0.49360   0.32000   0.00000  Uiso   1.00
H520   H     0.95895   0.44252   0.29182   0.00000  Uiso   1.00
H521   H     0.89796   0.65355   0.19261   0.00000  Uiso   1.00
H522   H     0.76733   0.35232   0.30843   0.00000  Uiso   1.00
H523   H     0.91384   0.43436   0.12760   0.00000  Uiso   1.00
H524   H     0.93994   0.44251   0.42862   0.00000  Uiso   1.00
H525   H     0.84047   0.48200   0.40130   0.00000  Uiso   1.00
H526   H     0.67641   0.54197   0.42840   0.00000  Uiso   1.00
H527   H     0.67849   0.49281   0.44547   0.00000  Uiso   1.00
H528   H     0.96978   0.52513   0.47142   0.00000  Uiso   1.00
H529   H     0.68484   0.53133   0.00949   0.00000  Uiso   1.00
H530   H     0.69299   0.58030   0.48986   0.00000  Uiso   1.00
H531   H     0.81829   0.60850   0.37318   0.00000  Uiso   1.00
H532   H     0.78031   0.64642   0.38597   0.00000  Uiso   1.00
H533   H     0.80248   0.63341   0.42323   0.00000  Uiso   1.00
H534   H     0.73978   0.57571   0.38315   0.00000  Uiso   1.00
H535   H     0.72784   0.60258   0.43104   0.00000  Uiso   1.00
H536   H     0.88582   0.47470   0.42876   0.00000  Uiso   1.00
H537   H     0.73455   0.41706   0.04426   0.00000  Uiso   1.00
H538   H     0.77405   0.41706   0.07094   0.00000  Uiso   1.00
H539   H     0.71798   0.41491   0.09723   0.00000  Uiso   1.00
H540   H     0.75486   0.48710   0.10678   0.00000  Uiso   1.00
H541   H     0.71267   0.48378   0.08492   0.00000  Uiso   1.00
H542   H     0.73154   0.55288   0.07670   0.00000  Uiso   1.00
H543   H     0.90058   0.35059   0.07113   0.00000  Uiso   1.00
H544   H     0.86697   0.34422   0.03787   0.00000  Uiso   1.00
H545   H     0.91739   0.65536   0.02322   0.00000  Uiso   1.00
H546   H     0.92600   0.38164   0.48931   0.00000  Uiso   1.00
H547   H     0.95698   0.39457   0.02417   0.00000  Uiso   1.00
O548   O     0.83333   0.50000   0.25000   0.00000  Uiso   1.00
O549   O     0.82360   0.45726   0.16625   0.00000  Uiso   1.00
O550   O     0.79354   0.53979   0.33749   0.00000  Uiso   1.00
O551   O     0.87755   0.50826   0.15877   0.00000  Uiso   1.00
O552   O     0.83865   0.49468   0.33749   0.00000  Uiso   1.00
O553   O     0.72934   0.55024   0.04913   0.00000  Uiso   1.00
O554   O     0.69119   0.52539   0.20687   0.00000  Uiso   1.00
O555   O     0.87951   0.34138   0.20898   0.00000  Uiso   1.00
O556   O     0.78447   0.66288   0.29334   0.00000  Uiso   1.00
O557   O     0.91877   0.42192   0.09978   0.00000  Uiso   1.00
O558   O     0.93419   0.43877   0.45705   0.00000  Uiso   1.00
O559   O     0.84515   0.41434   0.27821   0.00000  Uiso   1.00
O560   O     0.81247   0.59469   0.26767   0.00000  Uiso   1.00
O561   O     0.74119   0.46584   0.23607   0.00000  Uiso   1.00
O562   O     0.93452   0.52512   0.21806   0.00000  Uiso   1.00
O563   O     0.73656   0.52293   0.27820   0.00000  Uiso   1.00
O564   O     0.92106   0.48610   0.26768   0.00000  Uiso   1.00
O565   O     0.80467   0.40236   0.23607   0.00000  Uiso   1.00
O566   O     0.87104   0.58860   0.21806   0.00000  Uiso   1.00
Zn567  Zn    0.85910   0.47423   0.28278   0.00000  Uiso   1.00
Zn568  Zn    0.80125   0.45711   0.22258   0.00000  Uiso   1.00
Zn569  Zn    0.87833   0.52997   0.21188   0.00000  Uiso   1.00
Zn570  Zn    0.79465   0.53868   0.28277   0.00000  Uiso   1.00
C571   C     0.05286   0.82680   0.25881   0.00000  Uiso   1.00
C572   C     0.20427   0.80350   0.45949   0.00000  Uiso   1.00
C573   C     0.22731   0.78350   0.47796   0.00000  Uiso   1.00
C574   C     0.28108   0.83990   0.24137   0.00000  Uiso   1.00
C575   C     0.21226   0.78098   0.01927   0.00000  Uiso   1.00
C576   C     0.17757   0.80381   0.04125   0.00000  Uiso   1.00
C577   C     0.23295   0.76003   0.04015   0.00000  Uiso   1.00
C578   C     0.22778   0.77218   0.08100   0.00000  Uiso   1.00
C579   C     0.17397   0.81646   0.08133   0.00000  Uiso   1.00
C580   C     0.32714   0.84072   0.23789   0.00000  Uiso   1.00
C581   C     0.00730   0.82383   0.26463   0.00000  Uiso   1.00
C582   C     0.09977   0.88434   0.42423   0.00000  Uiso   1.00
C583   C     0.18012   0.98919   0.23800   0.00000  Uiso   1.00
C584   C     0.15109   0.67930   0.26336   0.00000  Uiso   1.00
C585   C     0.15575   0.72310   0.25927   0.00000  Uiso   1.00
C586   C     0.17675   0.94442   0.24135   0.00000  Uiso   1.00
C587   C     0.18824   0.81196   0.14399   0.00000  Uiso   1.00
C588   C     0.14528   0.85450   0.35657   0.00000  Uiso   1.00
C589   C     0.13242   0.85966   0.40076   0.00000  Uiso   1.00
C590   C     0.19847   0.80124   0.10115   0.00000  Uiso   1.00
C591   C     0.07971   0.87558   0.46401   0.00000  Uiso   1.00
C592   C     0.25707   0.72225   0.02115   0.00000  Uiso   1.00
C593   C     0.15085   0.83552   0.41969   0.00000  Uiso   1.00
C594   C     0.23401   0.68255   0.03969   0.00000  Uiso   1.00
C595   C     0.31154   0.80410   0.30144   0.00000  Uiso   1.00
C596   C     0.00169   0.79032   0.32840   0.00000  Uiso   1.00
C597   C     0.03173   0.88031   0.48209   0.00000  Uiso   1.00
C598   C     0.00440   0.85882   0.45499   0.00000  Uiso   1.00
C599   C     0.08679   0.92019   0.40834   0.00000  Uiso   1.00
C600   C     0.12439   0.95401   0.39691   0.00000  Uiso   1.00
C601   C     0.07942   0.80923   0.07903   0.00000  Uiso   1.00
C602   C     0.07654   0.76168   0.07228   0.00000  Uiso   1.00
C603   C     0.13993   0.83687   0.46118   0.00000  Uiso   1.00
C604   C     0.10302   0.85638   0.48386   0.00000  Uiso   1.00
C605   C     0.16460   0.81874   0.48042   0.00000  Uiso   1.00
C606   C     0.15011   0.81727   0.02200   0.00000  Uiso   1.00
C607   C     0.10883   0.82976   0.04289   0.00000  Uiso   1.00
C608   C     0.09053   0.85607   0.02552   0.00000  Uiso   1.00
H609   H     0.15394   0.84047   0.09709   0.00000  Uiso   1.00
H610   H     0.01016   0.86850   0.18929   0.00000  Uiso   1.00
H611   H     0.02387   0.76702   0.31176   0.00000  Uiso   1.00
H612   H     0.01995   0.81752   0.34087   0.00000  Uiso   1.00
H613   H     0.31115   0.77571   0.35347   0.00000  Uiso   1.00
H614   H     0.28976   0.82693   0.32000   0.00000  Uiso   1.00
H615   H     0.29228   0.77585   0.29182   0.00000  Uiso   1.00
H616   H     0.23129   0.98688   0.19261   0.00000  Uiso   1.00
H617   H     0.10067   0.68566   0.30843   0.00000  Uiso   1.00
H618   H     0.24718   0.76769   0.12760   0.00000  Uiso   1.00
H619   H     0.27327   0.77584   0.42862   0.00000  Uiso   1.00
H620   H     0.17381   0.81533   0.40130   0.00000  Uiso   1.00
H621   H     0.00975   0.87530   0.42840   0.00000  Uiso   1.00
H622   H     0.01182   0.82615   0.44547   0.00000  Uiso   1.00
H623   H     0.30311   0.85846   0.47142   0.00000  Uiso   1.00
H624   H     0.01817   0.86466   0.00949   0.00000  Uiso   1.00
H625   H     0.02633   0.91364   0.48986   0.00000  Uiso   1.00
H626   H     0.15163   0.94183   0.37318   0.00000  Uiso   1.00
H627   H     0.11365   0.97976   0.38597   0.00000  Uiso   1.00
H628   H     0.13582   0.96674   0.42323   0.00000  Uiso   1.00
H629   H     0.07312   0.90904   0.38315   0.00000  Uiso   1.00
H630   H     0.06117   0.93591   0.43104   0.00000  Uiso   1.00
H631   H     0.21915   0.80803   0.42876   0.00000  Uiso   1.00
H632   H     0.06789   0.75039   0.04426   0.00000  Uiso   1.00
H633   H     0.10738   0.75040   0.07094   0.00000  Uiso   1.00
H634   H     0.05131   0.74824   0.09723   0.00000  Uiso   1.00
H635   H     0.08820   0.82043   0.10678   0.00000  Uiso   1.00
H636   H     0.04601   0.81711   0.08492   0.00000  Uiso   1.00
H637   H     0.06488   0.88621   0.07670   0.00000  Uiso   1.00
H638   H     0.23392   0.68392   0.07113   0.00000  Uiso   1.00
H639   H     0.20031   0.67755   0.03787   0.00000  Uiso   1.00
H640   H     0.25072   0.98869   0.02322   0.00000  Uiso   1.00
H641   H     0.25934   0.71498   0.48931   0.00000  Uiso   1.00
H642   H     0.29032   0.72790   0.02417   0.00000  Uiso   1.00
O643   O     0.16667   0.83333   0.25000   0.00000  Uiso   1.00
O644   O     0.15693   0.79060   0.16625   0.00000  Uiso   1.00
O645   O     0.12687   0.87313   0.33749   0.00000  Uiso   1.00
O646   O     0.21088   0.84159   0.15877   0.00000  Uiso   1.00
O647   O     0.17198   0.82802   0.33749   0.00000  Uiso   1.00
O648   O     0.06267   0.88357   0.04913   0.00000  Uiso   1.00
O649   O     0.02452   0.85873   0.20687   0.00000  Uiso   1.00
O650   O     0.21285   0.67471   0.20898   0.00000  Uiso   1.00
O651   O     0.11780   0.99621   0.29334   0.00000  Uiso   1.00
O652   O     0.25210   0.75525   0.09978   0.00000  Uiso   1.00
O653   O     0.26752   0.77210   0.45705   0.00000  Uiso   1.00
O654   O     0.17849   0.74768   0.27821   0.00000  Uiso   1.00
O655   O     0.14581   0.92803   0.26767   0.00000  Uiso   1.00
O656   O     0.07452   0.79917   0.23607   0.00000  Uiso   1.00
O657   O     0.26785   0.85845   0.21806   0.00000  Uiso   1.00
O658   O     0.06990   0.85627   0.27820   0.00000  Uiso   1.00
O659   O     0.25440   0.81944   0.26768   0.00000  Uiso   1.00
O660   O     0.13800   0.73570   0.23607   0.00000  Uiso   1.00
O661   O     0.20437   0.92193   0.21806   0.00000  Uiso   1.00
Zn662  Zn    0.19244   0.80756   0.28278   0.00000  Uiso   1.00
Zn663  Zn    0.13459   0.79044   0.22258   0.00000  Uiso   1.00
Zn664  Zn    0.21166   0.86331   0.21188   0.00000  Uiso   1.00
Zn665  Zn    0.12798   0.87202   0.28277   0.00000  Uiso   1.00
C666   C     0.38619   0.82680   0.25881   0.00000  Uiso   1.00
C667   C     0.53761   0.80350   0.45949   0.00000  Uiso   1.00
C668   C     0.56064   0.78350   0.47796   0.00000  Uiso   1.00
C669   C     0.61441   0.83990   0.24137   0.00000  Uiso   1.00
C670   C     0.54559   0.78098   0.01927   0.00000  Uiso   1.00
C671   C     0.51090   0.80381   0.04125   0.00000  Uiso   1.00
C672   C     0.56628   0.76003   0.04015   0.00000  Uiso   1.00
C673   C     0.56111   0.77218   0.08100   0.00000  Uiso   1.00
C674   C     0.50731   0.81646   0.08133   0.00000  Uiso   1.00
C675   C     0.66048   0.84072   0.23789   0.00000  Uiso   1.00
C676   C     0.34064   0.82383   0.26463   0.00000  Uiso   1.00
C677   C     0.43310   0.88434   0.42423   0.00000  Uiso   1.00
C678   C     0.51346   0.98919   0.23800   0.00000  Uiso   1.00
C679   C     0.48442   0.67930   0.26336   0.00000  Uiso   1.00
C680   C     0.48908   0.72310   0.25927   0.00000  Uiso   1.00
C681   C     0.51009   0.94442   0.24135   0.00000  Uiso   1.00
C682   C     0.52157   0.81196   0.14399   0.00000  Uiso   1.00
C683   C     0.47862   0.85450   0.35657   0.00000  Uiso   1.00
C684   C     0.46576   0.85966   0.40076   0.00000  Uiso   1.00
C685   C     0.53180   0.80124   0.10115   0.00000  Uiso   1.00
C686   C     0.41304   0.87558   0.46401   0.00000  Uiso   1.00
C687   C     0.59040   0.72225   0.02115   0.00000  Uiso   1.00
C688   C     0.48418   0.83552   0.41969   0.00000  Uiso   1.00
C689   C     0.56734   0.68255   0.03969   0.00000  Uiso   1.00
C690   C     0.64487   0.80410   0.30144   0.00000  Uiso   1.00
C691   C     0.33502   0.79032   0.32840   0.00000  Uiso   1.00
C692   C     0.36506   0.88031   0.48209   0.00000  Uiso   1.00
C693   C     0.33773   0.85882   0.45499   0.00000  Uiso   1.00
C694   C     0.42013   0.92019   0.40834   0.00000  Uiso   1.00
C695   C     0.45772   0.95401   0.39691   0.00000  Uiso   1.00
C696   C     0.41275   0.80923   0.07903   0.00000  Uiso   1.00
C697   C     0.40987   0.76168   0.07228   0.00000  Uiso   1.00
C698   C     0.47327   0.83687   0.46118   0.00000  Uiso   1.00
C699   C     0.43636   0.85638   0.48386   0.00000  Uiso   1.00
C700   C     0.49793   0.81874   0.48042   0.00000  Uiso   1.00
C701   C     0.48344   0.81727   0.02200   0.00000  Uiso   1.00
C702   C     0.44216   0.82976   0.04289   0.00000  Uiso   1.00
C703   C     0.42387   0.85607   0.02552   0.00000  Uiso   1.00
H704   H     0.48727   0.84047   0.09709   0.00000  Uiso   1.00
H705   H     0.34349   0.86850   0.18929   0.00000  Uiso   1.00
H706   H     0.35720   0.76702   0.31176   0.00000  Uiso   1.00
H707   H     0.35329   0.81752   0.34087   0.00000  Uiso   1.00
H708   H     0.64449   0.77571   0.35347   0.00000  Uiso   1.00
H709   H     0.62309   0.82693   0.32000   0.00000  Uiso   1.00
H710   H     0.62561   0.77585   0.29182   0.00000  Uiso   1.00
H711   H     0.56463   0.98688   0.19261   0.00000  Uiso   1.00
H712   H     0.43400   0.68566   0.30843   0.00000  Uiso   1.00
H713   H     0.58051   0.76769   0.12760   0.00000  Uiso   1.00
H714   H     0.60660   0.77584   0.42862   0.00000  Uiso   1.00
H715   H     0.50714   0.81533   0.40130   0.00000  Uiso   1.00
H716   H     0.34308   0.87530   0.42840   0.00000  Uiso   1.00
H717   H     0.34515   0.82615   0.44547   0.00000  Uiso   1.00
H718   H     0.63645   0.85846   0.47142   0.00000  Uiso   1.00
H719   H     0.35150   0.86466   0.00949   0.00000  Uiso   1.00
H720   H     0.35966   0.91364   0.48986   0.00000  Uiso   1.00
H721   H     0.48496   0.94183   0.37318   0.00000  Uiso   1.00
H722   H     0.44698   0.97976   0.38597   0.00000  Uiso   1.00
H723   H     0.46915   0.96674   0.42323   0.00000  Uiso   1.00
H724   H     0.40645   0.90904   0.38315   0.00000  Uiso   1.00
H725   H     0.39451   0.93591   0.43104   0.00000  Uiso   1.00
H726   H     0.55249   0.80803   0.42876   0.00000  Uiso   1.00
H727   H     0.40122   0.75039   0.04426   0.00000  Uiso   1.00
H728   H     0.44072   0.75040   0.07094   0.00000  Uiso   1.00
H729   H     0.38464   0.74824   0.09723   0.00000  Uiso   1.00
H730   H     0.42153   0.82043   0.10678   0.00000  Uiso   1.00
H731   H     0.37934   0.81711   0.08492   0.00000  Uiso   1.00
H732   H     0.39821   0.88621   0.07670   0.00000  Uiso   1.00
H733   H     0.56725   0.68392   0.07113   0.00000  Uiso   1.00
H734   H     0.53364   0.67755   0.03787   0.00000  Uiso   1.00
H735   H     0.58406   0.98869   0.02322   0.00000  Uiso   1.00
H736   H     0.59267   0.71498   0.48931   0.00000  Uiso   1.00
H737   H     0.62365   0.72790   0.02417   0.00000  Uiso   1.00
O738   O     0.50000   0.83333   0.25000   0.00000  Uiso   1.00
O739   O     0.49027   0.79060   0.16625   0.00000  Uiso   1.00
O740   O     0.46020   0.87313   0.33749   0.00000  Uiso   1.00
O741   O     0.54421   0.84159   0.15877   0.00000  Uiso   1.00
O742   O     0.50532   0.82802   0.33749   0.00000  Uiso   1.00
O743   O     0.39601   0.88357   0.04913   0.00000  Uiso   1.00
O744   O     0.35785   0.85873   0.20687   0.00000  Uiso   1.00
O745   O     0.54618   0.67471   0.20898   0.00000  Uiso   1.00
O746   O     0.45113   0.99621   0.29334   0.00000  Uiso   1.00
O747   O     0.58544   0.75525   0.09978   0.00000  Uiso   1.00
O748   O     0.60086   0.77210   0.45705   0.00000  Uiso   1.00
O749   O     0.51182   0.74768   0.27821   0.00000  Uiso   1.00
O750   O     0.47914   0.92803   0.26767   0.00000  Uiso   1.00
O751   O     0.40785   0.79917   0.23607   0.00000  Uiso   1.00
O752   O     0.60119   0.85845   0.21806   0.00000  Uiso   1.00
O753   O     0.40323   0.85627   0.27820   0.00000  Uiso   1.00
O754   O     0.58773   0.81944   0.26768   0.00000  Uiso   1.00
O755   O     0.47133   0.73570   0.23607   0.00000  Uiso   1.00
O756   O     0.53771   0.92193   0.21806   0.00000  Uiso   1.00
Zn757  Zn    0.52577   0.80756   0.28278   0.00000  Uiso   1.00
Zn758  Zn    0.46792   0.79044   0.22258   0.00000  Uiso   1.00
Zn759  Zn    0.54500   0.86331   0.21188   0.00000  Uiso   1.00
Zn760  Zn    0.46131   0.87202   0.28277   0.00000  Uiso   1.00
C761   C     0.71952   0.82680   0.25881   0.00000  Uiso   1.00
C762   C     0.87094   0.80350   0.45949   0.00000  Uiso   1.00
C763   C     0.89397   0.78350   0.47796   0.00000  Uiso   1.00
C764   C     0.94775   0.83990   0.24137   0.00000  Uiso   1.00
C765   C     0.87892   0.78098   0.01927   0.00000  Uiso   1.00
C766   C     0.84424   0.80381   0.04125   0.00000  Uiso   1.00
C767   C     0.89962   0.76003   0.04015   0.00000  Uiso   1.00
C768   C     0.89444   0.77218   0.08100   0.00000  Uiso   1.00
C769   C     0.84064   0.81646   0.08133   0.00000  Uiso   1.00
C770   C     0.99381   0.84072   0.23789   0.00000  Uiso   1.00
C771   C     0.67397   0.82383   0.26463   0.00000  Uiso   1.00
C772   C     0.76644   0.88434   0.42423   0.00000  Uiso   1.00
C773   C     0.84679   0.98919   0.23800   0.00000  Uiso   1.00
C774   C     0.81776   0.67930   0.26336   0.00000  Uiso   1.00
C775   C     0.82241   0.72310   0.25927   0.00000  Uiso   1.00
C776   C     0.84342   0.94442   0.24135   0.00000  Uiso   1.00
C777   C     0.85491   0.81196   0.14399   0.00000  Uiso   1.00
C778   C     0.81195   0.85450   0.35657   0.00000  Uiso   1.00
C779   C     0.79909   0.85966   0.40076   0.00000  Uiso   1.00
C780   C     0.86514   0.80124   0.10115   0.00000  Uiso   1.00
C781   C     0.74638   0.87558   0.46401   0.00000  Uiso   1.00
C782   C     0.92374   0.72225   0.02115   0.00000  Uiso   1.00
C783   C     0.81752   0.83552   0.41969   0.00000  Uiso   1.00
C784   C     0.90068   0.68255   0.03969   0.00000  Uiso   1.00
C785   C     0.97820   0.80410   0.30144   0.00000  Uiso   1.00
C786   C     0.66836   0.79032   0.32840   0.00000  Uiso   1.00
C787   C     0.69840   0.88031   0.48209   0.00000  Uiso   1.00
C788   C     0.67106   0.85882   0.45499   0.00000  Uiso   1.00
C789   C     0.75346   0.92019   0.40834   0.00000  Uiso   1.00
C790   C     0.79106   0.95401   0.39691   0.00000  Uiso   1.00
C791   C     0.74608   0.80923   0.07903   0.00000  Uiso   1.00
C792   C     0.74320   0.76168   0.07228   0.00000  Uiso   1.00
C793   C     0.80660   0.83687   0.46118   0.00000  Uiso   1.00
C794   C     0.76969   0.85638   0.48386   0.00000  Uiso   1.00
C795   C     0.83127   0.81874   0.48042   0.00000  Uiso   1.00
C796   C     0.81678   0.81727   0.02200   0.00000  Uiso   1.00
C797   C     0.77549   0.82976   0.04289   0.00000  Uiso   1.00
C798   C     0.75720   0.85607   0.02552   0.00000  Uiso   1.00
H799   H     0.82060   0.84047   0.09709   0.00000  Uiso   1.00
H800   H     0.67683   0.86850   0.18929   0.00000  Uiso   1.00
H801   H     0.69054   0.76702   0.31176   0.00000  Uiso   1.00
H802   H     0.68662   0.81752   0.34087   0.00000  Uiso   1.00
H803   H     0.97782   0.77571   0.35347   0.00000  Uiso   1.00
H804   H     0.95642   0.82693   0.32000   0.00000  Uiso   1.00
H805   H     0.95895   0.77585   0.29182   0.00000  Uiso   1.00
H806   H     0.89796   0.98688   0.19261   0.00000  Uiso   1.00
H807   H     0.76733   0.68566   0.30843   0.00000  Uiso   1.00
H808   H     0.91384   0.76769   0.12760   0.00000  Uiso   1.00
H809   H     0.93994   0.77584   0.42862   0.00000  Uiso   1.00
H810   H     0.84047   0.81533   0.40130   0.00000  Uiso   1.00
H811   H     0.67641   0.87530   0.42840   0.00000  Uiso   1.00
H812   H     0.67849   0.82615   0.44547   0.00000  Uiso   1.00
H813   H     0.96978   0.85846   0.47142   0.00000  Uiso   1.00
H814   H     0.68484   0.86466   0.00949   0.00000  Uiso   1.00
H815   H     0.69299   0.91364   0.48986   0.00000  Uiso   1.00
H816   H     0.81829   0.94183   0.37318   0.00000  Uiso   1.00
H817   H     0.78031   0.97976   0.38597   0.00000  Uiso   1.00
H818   H     0.80248   0.96674   0.42323   0.00000  Uiso   1.00
H819   H     0.73978   0.90904   0.38315   0.00000  Uiso   1.00
H820   H     0.72784   0.93591   0.43104   0.00000  Uiso   1.00
H821   H     0.88582   0.80803   0.42876   0.00000  Uiso   1.00
H822   H     0.73455   0.75039   0.04426   0.00000  Uiso   1.00
H823   H     0.77405   0.75040   0.07094   0.00000  Uiso   1.00
H824   H     0.71798   0.74824   0.09723   0.00000  Uiso   1.00
H825   H     0.75486   0.82043   0.10678   0.00000  Uiso   1.00
H826   H     0.71267   0.81711   0.08492   0.00000  Uiso   1.00
H827   H     0.73154   0.88621   0.07670   0.00000  Uiso   1.00
H828   H     0.90058   0.68392   0.07113   0.00000  Uiso   1.00
H829   H     0.86697   0.67755   0.03787   0.00000  Uiso   1.00
H830   H     0.91739   0.98869   0.02322   0.00000  Uiso   1.00
H831   H     0.92600   0.71498   0.48931   0.00000  Uiso   1.00
H832   H     0.95698   0.72790   0.02417   0.00000  Uiso   1.00
O833   O     0.83333   0.83333   0.25000   0.00000  Uiso   1.00
O834   O     0.82360   0.79060   0.16625   0.00000  Uiso   1.00
O835   O     0.79354   0.87313   0.33749   0.00000  Uiso   1.00
O836   O     0.87755   0.84159   0.15877   0.00000  Uiso   1.00
O837   O     0.83865   0.82802   0.33749   0.00000  Uiso   1.00
O838   O     0.72934   0.88357   0.04913   0.00000  Uiso   1.00
O839   O     0.69119   0.85873   0.20687   0.00000  Uiso   1.00
O840   O     0.87951   0.67471   0.20898   0.00000  Uiso   1.00
O841   O     0.78447   0.99621   0.29334   0.00000  Uiso   1.00
O842   O     0.91877   0.75525   0.09978   0.00000  Uiso   1.00
O843   O     0.93419   0.77210   0.45705   0.00000  Uiso   1.00
O844   O     0.84515   0.74768   0.27821   0.00000  Uiso   1.00
O845   O     0.81247   0.92803   0.26767   0.00000  Uiso   1.00
O846   O     0.74119   0.79917   0.23607   0.00000  Uiso   1.00
O847   O     0.93452   0.85845   0.21806   0.00000  Uiso   1.00
O848   O     0.73656   0.85627   0.27820   0.00000  Uiso   1.00
O849   O     0.92106   0.81944   0.26768   0.00000  Uiso   1.00
O850   O     0.80467   0.73570   0.23607   0.00000  Uiso   1.00
O851   O     0.87104   0.92193   0.21806   0.00000  Uiso   1.00
Zn852  Zn    0.85910   0.80756   0.28278   0.00000  Uiso   1.00
Zn853  Zn    0.80125   0.79044   0.22258   0.00000  Uiso   1.00
Zn854  Zn    0.87833   0.86331   0.21188   0.00000  Uiso   1.00
Zn855  Zn    0.79465   0.87202   0.28277   0.00000  Uiso   1.00
C856   C     0.05286   0.16013   0.75881   0.00000  Uiso   1.00
C857   C     0.20427   0.13683   0.95949   0.00000  Uiso   1.00
C858   C     0.22731   0.11683   0.97796   0.00000  Uiso   1.00
C859   C     0.28108   0.17323   0.74137   0.00000  Uiso   1.00
C860   C     0.21226   0.11432   0.51927   0.00000  Uiso   1.00
C861   C     0.17757   0.13714   0.54125   0.00000  Uiso   1.00
C862   C     0.23295   0.09336   0.54015   0.00000  Uiso   1.00
C863   C     0.22778   0.10552   0.58100   0.00000  Uiso   1.00
C864   C     0.17397   0.14980   0.58133   0.00000  Uiso   1.00
C865   C     0.32714   0.17405   0.73789   0.00000  Uiso   1.00
C866   C     0.00730   0.15716   0.76463   0.00000  Uiso   1.00
C867   C     0.09977   0.21767   0.92423   0.00000  Uiso   1.00
C868   C     0.18012   0.32252   0.73800   0.00000  Uiso   1.00
C869   C     0.15109   0.01264   0.76336   0.00000  Uiso   1.00
C870   C     0.15575   0.05643   0.75927   0.00000  Uiso   1.00
C871   C     0.17675   0.27775   0.74135   0.00000  Uiso   1.00
C872   C     0.18824   0.14529   0.64399   0.00000  Uiso   1.00
C873   C     0.14528   0.18784   0.85657   0.00000  Uiso   1.00
C874   C     0.13242   0.19299   0.90076   0.00000  Uiso   1.00
C875   C     0.19847   0.13457   0.60115   0.00000  Uiso   1.00
C876   C     0.07971   0.20891   0.96401   0.00000  Uiso   1.00
C877   C     0.25707   0.05558   0.52115   0.00000  Uiso   1.00
C878   C     0.15085   0.16885   0.91969   0.00000  Uiso   1.00
C879   C     0.23401   0.01589   0.53969   0.00000  Uiso   1.00
C880   C     0.31154   0.13743   0.80144   0.00000  Uiso   1.00
C881   C     0.00169   0.12366   0.82840   0.00000  Uiso   1.00
C882   C     0.03173   0.21364   0.98209   0.00000  Uiso   1.00
C883   C     0.00440   0.19215   0.95499   0.00000  Uiso   1.00
C884   C     0.08679   0.25353   0.90834   0.00000  Uiso   1.00
C885   C     0.12439   0.28734   0.89691   0.00000  Uiso   1.00
C886   C     0.07942   0.14256   0.57903   0.00000  Uiso   1.00
C887   C     0.07654   0.09501   0.57228   0.00000  Uiso   1.00
C888   C     0.13993   0.17021   0.96118   0.00000  Uiso   1.00
C889   C     0.10302   0.18972   0.98386   0.00000  Uiso   1.00
C890   C     0.16460   0.15207   0.98042   0.00000  Uiso   1.00
C891   C     0.15011   0.15061   0.52200   0.00000  Uiso   1.00
C892   C     0.10883   0.16310   0.54289   0.00000  Uiso   1.00
C893   C     0.09053   0.18940   0.52552   0.00000  Uiso   1.00
H894   H     0.15394   0.17380   0.59709   0.00000  Uiso   1.00
H895   H     0.01016   0.20184   0.68929   0.00000  Uiso   1.00
H896   H     0.02387   0.10035   0.81176   0.00000  Uiso   1.00
H897   H     0.01995   0.15085   0.84087   0.00000  Uiso   1.00
H898   H     0.31115   0.10904   0.85347   0.00000  Uiso   1.00
H899   H     0.28976   0.16027   0.82000   0.00000  Uiso   1.00
H900   H     0.29228   0.10918   0.79182   0.00000  Uiso   1.00
H901   H     0.23129   0.32022   0.69261   0.00000  Uiso   1.00
H902   H     0.10067   0.01899   0.80843   0.00000  Uiso   1.00
H903   H     0.24718   0.10103   0.62760   0.00000  Uiso   1.00
H904   H     0.27327   0.10918   0.92862   0.00000  Uiso   1.00
H905   H     0.17381   0.14867   0.90130   0.00000  Uiso   1.00
H906   H     0.00975   0.20864   0.92840   0.00000  Uiso   1.00
H907   H     0.01182   0.15948   0.94547   0.00000  Uiso   1.00
H908   H     0.30311   0.19179   0.97142   0.00000  Uiso   1.00
H909   H     0.01817   0.19799   0.50949   0.00000  Uiso   1.00
H910   H     0.02633   0.24697   0.98986   0.00000  Uiso   1.00
H911   H     0.15163   0.27516   0.87318   0.00000  Uiso   1.00
H912   H     0.11365   0.31309   0.88597   0.00000  Uiso   1.00
H913   H     0.13582   0.30007   0.92323   0.00000  Uiso   1.00
H914   H     0.07312   0.24238   0.88315   0.00000  Uiso   1.00
H915   H     0.06117   0.26924   0.93104   0.00000  Uiso   1.00
H916   H     0.21915   0.14137   0.92876   0.00000  Uiso   1.00
H917   H     0.06789   0.08372   0.54426   0.00000  Uiso   1.00
H918   H     0.10738   0.08373   0.57094   0.00000  Uiso   1.00
H919   H     0.05131   0.08157   0.59723   0.00000  Uiso   1.00
H920   H     0.08820   0.15377   0.60678   0.00000  Uiso   1.00
H921   H     0.04601   0.15044   0.58492   0.00000  Uiso   1.00
H922   H     0.06488   0.21954   0.57670   0.00000  Uiso   1.00
H923   H     0.23392   0.01726   0.57113   0.00000  Uiso   1.00
H924   H     0.20031   0.01088   0.53787   0.00000  Uiso   1.00
H925   H     0.25072   0.32202   0.52322   0.00000  Uiso   1.00
H926   H     0.25934   0.04831   0.98931   0.00000  Uiso   1.00
H927   H     0.29032   0.06124   0.52417   0.00000  Uiso   1.00
O928   O     0.16667   0.16667   0.75000   0.00000  Uiso   1.00
O929   O     0.15693   0.12393   0.66625   0.00000  Uiso   1.00
O930   O     0.12687   0.20646   0.83749   0.00000  Uiso   1.00
O931   O     0.21088   0.17493   0.65877   0.00000  Uiso   1.00
O932   O     0.17198   0.16135   0.83749   0.00000  Uiso   1.00
O933   O     0.06267   0.21691   0.54913   0.00000  Uiso   1.00
O934   O     0.02452   0.19206   0.70687   0.00000  Uiso   1.00
O935   O     0.21285   0.00804   0.70898   0.00000  Uiso   1.00
O936   O     0.11780   0.32954   0.79334   0.00000  Uiso   1.00
O937   O     0.25210   0.08859   0.59978   0.00000  Uiso   1.00
O938   O     0.26752   0.10543   0.95705   0.00000  Uiso   1.00
O939   O     0.17849   0.08101   0.77821   0.00000  Uiso   1.00
O940   O     0.14581   0.26136   0.76767   0.00000  Uiso   1.00
O941   O     0.07452   0.13251   0.73607   0.00000  Uiso   1.00
O942   O     0.26785   0.19179   0.71806   0.00000  Uiso   1.00
O943   O     0.06990   0.18960   0.77820   0.00000  Uiso   1.00
O944   O     0.25440   0.15277   0.76768   0.00000  Uiso   1.00
O945   O     0.13800   0.06903   0.73607   0.00000  Uiso   1.00
O946   O     0.20437   0.25527   0.71806   0.00000  Uiso   1.00
Zn947  Zn    0.19244   0.14090   0.78278   0.00000  Uiso   1.00
Zn948  Zn    0.13459   0.12378   0.72258   0.00000  Uiso   1.00
Zn949  Zn    0.21166   0.19664   0.71188   0.00000  Uiso   1.00
Zn950  Zn    0.12798   0.20535   0.78277   0.00000  Uiso   1.00
C951   C     0.38619   0.16013   0.75881   0.00000  Uiso   1.00
C952   C     0.53761   0.13683   0.95949   0.00000  Uiso   1.00
C953   C     0.56064   0.11683   0.97796   0.00000  Uiso   1.00
C954   C     0.61441   0.17323   0.74137   0.00000  Uiso   1.00
C955   C     0.54559   0.11432   0.51927   0.00000  Uiso   1.00
C956   C     0.51090   0.13714   0.54125   0.00000  Uiso   1.00
C957   C     0.56628   0.09336   0.54015   0.00000  Uiso   1.00
C958   C     0.56111   0.10552   0.58100   0.00000  Uiso   1.00
C959   C     0.50731   0.14980   0.58133   0.00000  Uiso   1.00
C960   C     0.66048   0.17405   0.73789   0.00000  Uiso   1.00
C961   C     0.34064   0.15716   0.76463   0.00000  Uiso   1.00
C962   C     0.43310   0.21767   0.92423   0.00000  Uiso   1.00
C963   C     0.51346   0.32252   0.73800   0.00000  Uiso   1.00
C964   C     0.48442   0.01264   0.76336   0.00000  Uiso   1.00
C965   C     0.48908   0.05643   0.75927   0.00000  Uiso   1.00
C966   C     0.51009   0.27775   0.74135   0.00000  Uiso   1.00
C967   C     0.52157   0.14529   0.64399   0.00000  Uiso   1.00
C968   C     0.47862   0.18784   0.85657   0.00000  Uiso   1.00
C969   C     0.46576   0.19299   0.90076   0.00000  Uiso   1.00
C970   C     0.53180   0.13457   0.60115   0.00000  Uiso   1.00
C971   C     0.41304   0.20891   0.96401   0.00000  Uiso   1.00
C972   C     0.59040   0.05558   0.52115   0.00000  Uiso   1.00
C973   C     0.48418   0.16885   0.91969   0.00000  Uiso   1.00
C974   C     0.56734   0.01589   0.53969   0.00000  Uiso   1.00
C975   C     0.64487   0.13743   0.80144   0.00000  Uiso   1.00
C976   C     0.33502   0.12366   0.82840   0.00000  Uiso   1.00
C977   C     0.36506   0.21364   0.98209   0.00000  Uiso   1.00
C978   C     0.33773   0.19215   0.95499   0.00000  Uiso   1.00
C979   C     0.42013   0.25353   0.90834   0.00000  Uiso   1.00
C980   C     0.45772   0.28734   0.89691   0.00000  Uiso   1.00
C981   C     0.41275   0.14256   0.57903   0.00000  Uiso   1.00
C982   C     0.40987   0.09501   0.57228   0.00000  Uiso   1.00
C983   C     0.47327   0.17021   0.96118   0.00000  Uiso   1.00
C984   C     0.43636   0.18972   0.98386   0.00000  Uiso   1.00
C985   C     0.49793   0.15207   0.98042   0.00000  Uiso   1.00
C986   C     0.48344   0.15061   0.52200   0.00000  Uiso   1.00
C987   C     0.44216   0.16310   0.54289   0.00000  Uiso   1.00
C988   C     0.42387   0.18940   0.52552   0.00000  Uiso   1.00
H989   H     0.48727   0.17380   0.59709   0.00000  Uiso   1.00
H990   H     0.34349   0.20184   0.68929   0.00000  Uiso   1.00
H991   H     0.35720   0.10035   0.81176   0.00000  Uiso   1.00
H992   H     0.35329   0.15085   0.84087   0.00000  Uiso   1.00
H993   H     0.64449   0.10904   0.85347   0.00000  Uiso   1.00
H994   H     0.62309   0.16027   0.82000   0.00000  Uiso   1.00
H995   H     0.62561   0.10918   0.79182   0.00000  Uiso   1.00
H996   H     0.56463   0.32022   0.69261   0.00000  Uiso   1.00
H997   H     0.43400   0.01899   0.80843   0.00000  Uiso   1.00
H998   H     0.58051   0.10103   0.62760   0.00000  Uiso   1.00
H999   H     0.60660   0.10918   0.92862   0.00000  Uiso   1.00
H1000  H     0.50714   0.14867   0.90130   0.00000  Uiso   1.00
H1001  H     0.34308   0.20864   0.92840   0.00000  Uiso   1.00
H1002  H     0.34515   0.15948   0.94547   0.00000  Uiso   1.00
H1003  H     0.63645   0.19179   0.97142   0.00000  Uiso   1.00
H1004  H     0.35150   0.19799   0.50949   0.00000  Uiso   1.00
H1005  H     0.35966   0.24697   0.98986   0.00000  Uiso   1.00
H1006  H     0.48496   0.27516   0.87318   0.00000  Uiso   1.00
H1007  H     0.44698   0.31309   0.88597   0.00000  Uiso   1.00
H1008  H     0.46915   0.30007   0.92323   0.00000  Uiso   1.00
H1009  H     0.40645   0.24238   0.88315   0.00000  Uiso   1.00
H1010  H     0.39451   0.26924   0.93104   0.00000  Uiso   1.00
H1011  H     0.55249   0.14137   0.92876   0.00000  Uiso   1.00
H1012  H     0.40122   0.08372   0.54426   0.00000  Uiso   1.00
H1013  H     0.44072   0.08373   0.57094   0.00000  Uiso   1.00
H1014  H     0.38464   0.08157   0.59723   0.00000  Uiso   1.00
H1015  H     0.42153   0.15377   0.60678   0.00000  Uiso   1.00
H1016  H     0.37934   0.15044   0.58492   0.00000  Uiso   1.00
H1017  H     0.39821   0.21954   0.57670   0.00000  Uiso   1.00
H1018  H     0.56725   0.01726   0.57113   0.00000  Uiso   1.00
H1019  H     0.53364   0.01088   0.53787   0.00000  Uiso   1.00
H1020  H     0.58406   0.32202   0.52322   0.00000  Uiso   1.00
H1021  H     0.59267   0.04831   0.98931   0.00000  Uiso   1.00
H1022  H     0.62365   0.06124   0.52417   0.00000  Uiso   1.00
O1023  O     0.50000   0.16667   0.75000   0.00000  Uiso   1.00
O1024  O     0.49027   0.12393   0.66625   0.00000  Uiso   1.00
O1025  O     0.46020   0.20646   0.83749   0.00000  Uiso   1.00
O1026  O     0.54421   0.17493   0.65877   0.00000  Uiso   1.00
O1027  O     0.50532   0.16135   0.83749   0.00000  Uiso   1.00
O1028  O     0.39601   0.21691   0.54913   0.00000  Uiso   1.00
O1029  O     0.35785   0.19206   0.70687   0.00000  Uiso   1.00
O1030  O     0.54618   0.00804   0.70898   0.00000  Uiso   1.00
O1031  O     0.45113   0.32954   0.79334   0.00000  Uiso   1.00
O1032  O     0.58544   0.08859   0.59978   0.00000  Uiso   1.00
O1033  O     0.60086   0.10543   0.95705   0.00000  Uiso   1.00
O1034  O     0.51182   0.08101   0.77821   0.00000  Uiso   1.00
O1035  O     0.47914   0.26136   0.76767   0.00000  Uiso   1.00
O1036  O     0.40785   0.13251   0.73607   0.00000  Uiso   1.00
O1037  O     0.60119   0.19179   0.71806   0.00000  Uiso   1.00
O1038  O     0.40323   0.18960   0.77820   0.00000  Uiso   1.00
O1039  O     0.58773   0.15277   0.76768   0.00000  Uiso   1.00
O1040  O     0.47133   0.06903   0.73607   0.00000  Uiso   1.00
O1041  O     0.53771   0.25527   0.71806   0.00000  Uiso   1.00
Zn1042 Zn    0.52577   0.14090   0.78278   0.00000  Uiso   1.00
Zn1043 Zn    0.46792   0.12378   0.72258   0.00000  Uiso   1.00
Zn1044 Zn    0.54500   0.19664   0.71188   0.00000  Uiso   1.00
Zn1045 Zn    0.46131   0.20535   0.78277   0.00000  Uiso   1.00
C1046  C     0.71952   0.16013   0.75881   0.00000  Uiso   1.00
C1047  C     0.87094   0.13683   0.95949   0.00000  Uiso   1.00
C1048  C     0.89397   0.11683   0.97796   0.00000  Uiso   1.00
C1049  C     0.94775   0.17323   0.74137   0.00000  Uiso   1.00
C1050  C     0.87892   0.11432   0.51927   0.00000  Uiso   1.00
C1051  C     0.84424   0.13714   0.54125   0.00000  Uiso   1.00
C1052  C     0.89962   0.09336   0.54015   0.00000  Uiso   1.00
C1053  C     0.89444   0.10552   0.58100   0.00000  Uiso   1.00
C1054  C     0.84064   0.14980   0.58133   0.00000  Uiso   1.00
C1055  C     0.99381   0.17405   0.73789   0.00000  Uiso   1.00
C1056  C     0.67397   0.15716   0.76463   0.00000  Uiso   1.00
C1057  C     0.76644   0.21767   0.92423   0.00000  Uiso   1.00
C1058  C     0.84679   0.32252   0.73800   0.00000  Uiso   1.00
C1059  C     0.81776   0.01264   0.76336   0.00000  Uiso   1.00
C1060  C     0.82241   0.05643   0.75927   0.00000  Uiso   1.00
C1061  C     0.84342   0.27775   0.74135   0.00000  Uiso   1.00
C1062  C     0.85491   0.14529   0.64399   0.00000  Uiso   1.00
C1063  C     0.81195   0.18784   0.85657   0.00000  Uiso   1.00
C1064  C     0.79909   0.19299   0.90076   0.00000  Uiso   1.00
C1065  C     0.86514   0.13457   0.60115   0.00000  Uiso   1.00
C1066  C     0.74638   0.20891   0.96401   0.00000  Uiso   1.00
C1067  C     0.92374   0.05558   0.52115   0.00000  Uiso   1.00
C1068  C     0.81752   0.16885   0.91969   0.00000  Uiso   1.00
C1069  C     0.90068   0.01589   0.53969   0.00000  Uiso   1.00
C1070  C     0.97820   0.13743   0.80144   0.00000  Uiso   1.00
C1071  C     0.66836   0.12366   0.82840   0.00000  Uiso   1.00
C1072  C     0.69840   0.21364   0.98209   0.00000  Uiso   1.00
C1073  C     0.67106   0.19215   0.95499   0.00000  Uiso   1.00
C1074  C     0.75346   0.25353   0.90834   0.00000  Uiso   1.00
C1075  C     0.79106   0.28734   0.89691   0.00000  Uiso   1.00
C1076  C     0.74608   0.14256   0.57903   0.00000  Uiso   1.00
C1077  C     0.74320   0.09501   0.57228   0.00000  Uiso   1.00
C1078  C     0.80660   0.17021   0.96118   0.00000  Uiso   1.00
C1079  C     0.76969   0.18972   0.98386   0.00000  Uiso   1.00
C1080  C     0.83127   0.15207   0.98042   0.00000  Uiso   1.00
C1081  C     0.81678   0.15061   0.52200   0.00000  Uiso   1.00
C1082  C     0.77549   0.16310   0.54289   0.00000  Uiso   1.00
C1083  C     0.75720   0.18940   0.52552   0.00000  Uiso   1.00
H1084  H     0.82060   0.17380   0.59709   0.00000  Uiso   1.00
H1085  H     0.67683   0.20184   0.68929   0.00000  Uiso   1.00
H1086  H     0.69054   0.10035   0.81176   0.00000  Uiso   1.00
H1087  H     0.68662   0.15085   0.84087   0.00000  Uiso   1.00
H1088  H     0.97782   0.10904   0.85347   0.00000  Uiso   1.00
H1089  H     0.95642   0.16027   0.82000   0.00000  Uiso   1.00
H1090  H     0.95895   0.10918   0.79182   0.00000  Uiso   1.00
H1091  H     0.89796   0.32022   0.69261   0.00000  Uiso   1.00
H1092  H     0.76733   0.01899   0.80843   0.00000  Uiso   1.00
H1093  H     0.91384   0.10103   0.62760   0.00000  Uiso   1.00
H1094  H     0.93994   0.10918   0.92862   0.00000  Uiso   1.00
H1095  H     0.84047   0.14867   0.90130   0.00000  Uiso   1.00
H1096  H     0.67641   0.20864   0.92840   0.00000  Uiso   1.00
H1097  H     0.67849   0.15948   0.94547   0.00000  Uiso   1.00
H1098  H     0.96978   0.19179   0.97142   0.00000  Uiso   1.00
H1099  H     0.68484   0.19799   0.50949   0.00000  Uiso   1.00
H1100  H     0.69299   0.24697   0.98986   0.00000  Uiso   1.00
H1101  H     0.81829   0.27516   0.87318   0.00000  Uiso   1.00
H1102  H     0.78031   0.31309   0.88597   0.00000  Uiso   1.00
H1103  H     0.80248   0.30007   0.92323   0.00000  Uiso   1.00
H1104  H     0.73978   0.24238   0.88315   0.00000  Uiso   1.00
H1105  H     0.72784   0.26924   0.93104   0.00000  Uiso   1.00
H1106  H     0.88582   0.14137   0.92876   0.00000  Uiso   1.00
H1107  H     0.73455   0.08372   0.54426   0.00000  Uiso   1.00
H1108  H     0.77405   0.08373   0.57094   0.00000  Uiso   1.00
H1109  H     0.71798   0.08157   0.59723   0.00000  Uiso   1.00
H1110  H     0.75486   0.15377   0.60678   0.00000  Uiso   1.00
H1111  H     0.71267   0.15044   0.58492   0.00000  Uiso   1.00
H1112  H     0.73154   0.21954   0.57670   0.00000  Uiso   1.00
H1113  H     0.90058   0.01726   0.57113   0.00000  Uiso   1.00
H1114  H     0.86697   0.01088   0.53787   0.00000  Uiso   1.00
H1115  H     0.91739   0.32202   0.52322   0.00000  Uiso   1.00
H1116  H     0.92600   0.04831   0.98931   0.00000  Uiso   1.00
H1117  H     0.95698   0.06124   0.52417   0.00000  Uiso   1.00
O1118  O     0.83333   0.16667   0.75000   0.00000  Uiso   1.00
O1119  O     0.82360   0.12393   0.66625   0.00000  Uiso   1.00
O1120  O     0.79354   0.20646   0.83749   0.00000  Uiso   1.00
O1121  O     0.87755   0.17493   0.65877   0.00000  Uiso   1.00
O1122  O     0.83865   0.16135   0.83749   0.00000  Uiso   1.00
O1123  O     0.72934   0.21691   0.54913   0.00000  Uiso   1.00
O1124  O     0.69119   0.19206   0.70687   0.00000  Uiso   1.00
O1125  O     0.87951   0.00804   0.70898   0.00000  Uiso   1.00
O1126  O     0.78447   0.32954   0.79334   0.00000  Uiso   1.00
O1127  O     0.91877   0.08859   0.59978   0.00000  Uiso   1.00
O1128  O     0.93419   0.10543   0.95705   0.00000  Uiso   1.00
O1129  O     0.84515   0.08101   0.77821   0.00000  Uiso   1.00
O1130  O     0.81247   0.26136   0.76767   0.00000  Uiso   1.00
O1131  O     0.74119   0.13251   0.73607   0.00000  Uiso   1.00
O1132  O     0.93452   0.19179   0.71806   0.00000  Uiso   1.00
O1133  O     0.73656   0.18960   0.77820   0.00000  Uiso   1.00
O1134  O     0.92106   0.15277   0.76768   0.00000  Uiso   1.00
O1135  O     0.80467   0.06903   0.73607   0.00000  Uiso   1.00
O1136  O     0.87104   0.25527   0.71806   0.00000  Uiso   1.00
Zn1137 Zn    0.85910   0.14090   0.78278   0.00000  Uiso   1.00
Zn1138 Zn    0.80125   0.12378   0.72258   0.00000  Uiso   1.00
Zn1139 Zn    0.87833   0.19664   0.71188   0.00000  Uiso   1.00
Zn1140 Zn    0.79465   0.20535   0.78277   0.00000  Uiso   1.00
C1141  C     0.05286   0.49347   0.75881   0.00000  Uiso   1.00
C1142  C     0.20427   0.47017   0.95949   0.00000  Uiso   1.00
C1143  C     0.22731   0.45016   0.97796   0.00000  Uiso   1.00
C1144  C     0.28108   0.50656   0.74137   0.00000  Uiso   1.00
C1145  C     0.21226   0.44765   0.51927   0.00000  Uiso   1.00
C1146  C     0.17757   0.47048   0.54125   0.00000  Uiso   1.00
C1147  C     0.23295   0.42670   0.54015   0.00000  Uiso   1.00
C1148  C     0.22778   0.43885   0.58100   0.00000  Uiso   1.00
C1149  C     0.17397   0.48313   0.58133   0.00000  Uiso   1.00
C1150  C     0.32714   0.50738   0.73789   0.00000  Uiso   1.00
C1151  C     0.00730   0.49049   0.76463   0.00000  Uiso   1.00
C1152  C     0.09977   0.55101   0.92423   0.00000  Uiso   1.00
C1153  C     0.18012   0.65586   0.73800   0.00000  Uiso   1.00
C1154  C     0.15109   0.34597   0.76336   0.00000  Uiso   1.00
C1155  C     0.15575   0.38976   0.75927   0.00000  Uiso   1.00
C1156  C     0.17675   0.61108   0.74135   0.00000  Uiso   1.00
C1157  C     0.18824   0.47862   0.64399   0.00000  Uiso   1.00
C1158  C     0.14528   0.52117   0.85657   0.00000  Uiso   1.00
C1159  C     0.13242   0.52632   0.90076   0.00000  Uiso   1.00
C1160  C     0.19847   0.46791   0.60115   0.00000  Uiso   1.00
C1161  C     0.07971   0.54225   0.96401   0.00000  Uiso   1.00
C1162  C     0.25707   0.38892   0.52115   0.00000  Uiso   1.00
C1163  C     0.15085   0.50218   0.91969   0.00000  Uiso   1.00
C1164  C     0.23401   0.34922   0.53969   0.00000  Uiso   1.00
C1165  C     0.31154   0.47076   0.80144   0.00000  Uiso   1.00
C1166  C     0.00169   0.45699   0.82840   0.00000  Uiso   1.00
C1167  C     0.03173   0.54698   0.98209   0.00000  Uiso   1.00
C1168  C     0.00440   0.52549   0.95499   0.00000  Uiso   1.00
C1169  C     0.08679   0.58686   0.90834   0.00000  Uiso   1.00
C1170  C     0.12439   0.62067   0.89691   0.00000  Uiso   1.00
C1171  C     0.07942   0.47590   0.57903   0.00000  Uiso   1.00
C1172  C     0.07654   0.42835   0.57228   0.00000  Uiso   1.00
C1173  C     0.13993   0.50354   0.96118   0.00000  Uiso   1.00
C1174  C     0.10302   0.52305   0.98386   0.00000  Uiso   1.00
C1175  C     0.16460   0.48541   0.98042   0.00000  Uiso   1.00
C1176  C     0.15011   0.48394   0.52200   0.00000  Uiso   1.00
C1177  C     0.10883   0.49643   0.54289   0.00000  Uiso   1.00
C1178  C     0.09053   0.52273   0.52552   0.00000  Uiso   1.00
H1179  H     0.15394   0.50713   0.59709   0.00000  Uiso   1.00
H1180  H     0.01016   0.53517   0.68929   0.00000  Uiso   1.00
H1181  H     0.02387   0.43369   0.81176   0.00000  Uiso   1.00
H1182  H     0.01995   0.48419   0.84087   0.00000  Uiso   1.00
H1183  H     0.31115   0.44238   0.85347   0.00000  Uiso   1.00
H1184  H     0.28976   0.49360   0.82000   0.00000  Uiso   1.00
H1185  H     0.29228   0.44252   0.79182   0.00000  Uiso   1.00
H1186  H     0.23129   0.65355   0.69261   0.00000  Uiso   1.00
H1187  H     0.10067   0.35232   0.80843   0.00000  Uiso   1.00
H1188  H     0.24718   0.43436   0.62760   0.00000  Uiso   1.00
H1189  H     0.27327   0.44251   0.92862   0.00000  Uiso   1.00
H1190  H     0.17381   0.48200   0.90130   0.00000  Uiso   1.00
H1191  H     0.00975   0.54197   0.92840   0.00000  Uiso   1.00
H1192  H     0.01182   0.49281   0.94547   0.00000  Uiso   1.00
H1193  H     0.30311   0.52513   0.97142   0.00000  Uiso   1.00
H1194  H     0.01817   0.53133   0.50949   0.00000  Uiso   1.00
H1195  H     0.02633   0.58030   0.98986   0.00000  Uiso   1.00
H1196  H     0.15163   0.60850   0.87318   0.00000  Uiso   1.00
H1197  H     0.11365   0.64642   0.88597   0.00000  Uiso   1.00
H1198  H     0.13582   0.63341   0.92323   0.00000  Uiso   1.00
H1199  H     0.07312   0.57571   0.88315   0.00000  Uiso   1.00
H1200  H     0.06117   0.60258   0.93104   0.00000  Uiso   1.00
H1201  H     0.21915   0.47470   0.92876   0.00000  Uiso   1.00
H1202  H     0.06789   0.41706   0.54426   0.00000  Uiso   1.00
H1203  H     0.10738   0.41706   0.57094   0.00000  Uiso   1.00
H1204  H     0.05131   0.41491   0.59723   0.00000  Uiso   1.00
H1205  H     0.08820   0.48710   0.60678   0.00000  Uiso   1.00
H1206  H     0.04601   0.48378   0.58492   0.00000  Uiso   1.00
H1207  H     0.06488   0.55288   0.57670   0.00000  Uiso   1.00
H1208  H     0.23392   0.35059   0.57113   0.00000  Uiso   1.00
H1209  H     0.20031   0.34422   0.53787   0.00000  Uiso   1.00
H1210  H     0.25072   0.65536   0.52322   0.00000  Uiso   1.00
H1211  H     0.25934   0.38164   0.98931   0.00000  Uiso   1.00
H1212  H     0.29032   0.39457   0.52417   0.00000  Uiso   1.00
O1213  O     0.16667   0.50000   0.75000   0.00000  Uiso   1.00
O1214  O     0.15693   0.45726   0.66625   0.00000  Uiso   1.00
O1215  O     0.12687   0.53979   0.83749   0.00000  Uiso   1.00
O1216  O     0.21088   0.50826   0.65877   0.00000  Uiso   1.00
O1217  O     0.17198   0.49468   0.83749   0.00000  Uiso   1.00
O1218  O     0.06267   0.55024   0.54913   0.00000  Uiso   1.00
O1219  O     0.02452   0.52539   0.70687   0.00000  Uiso   1.00
O1220  O     0.21285   0.34138   0.70898   0.00000  Uiso   1.00
O1221  O     0.11780   0.66288   0.79334   0.00000  Uiso   1.00
O1222  O     0.25210   0.42192   0.59978   0.00000  Uiso   1.00
O1223  O     0.26752   0.43877   0.95705   0.00000  Uiso   1.00
O1224  O     0.17849   0.41434   0.77821   0.00000  Uiso   1.00
O1225  O     0.14581   0.59469   0.76767   0.00000  Uiso   1.00
O1226  O     0.07452   0.46584   0.73607   0.00000  Uiso   1.00
O1227  O     0.26785   0.52512   0.71806   0.00000  Uiso   1.00
O1228  O     0.06990   0.52293   0.77820   0.00000  Uiso   1.00
O1229  O     0.25440   0.48610   0.76768   0.00000  Uiso   1.00
O1230  O     0.13800   0.40236   0.73607   0.00000  Uiso   1.00
O1231  O     0.20437   0.58860   0.71806   0.00000  Uiso   1.00
Zn1232 Zn    0.19244   0.47423   0.78278   0.00000  Uiso   1.00
Zn1233 Zn    0.13459   0.45711   0.72258   0.00000  Uiso   1.00
Zn1234 Zn    0.21166   0.52997   0.71188   0.00000  Uiso   1.00
Zn1235 Zn    0.12798   0.53868   0.78277   0.00000  Uiso   1.00
C1236  C     0.38619   0.49347   0.75881   0.00000  Uiso   1.00
C1237  C     0.53761   0.47017   0.95949   0.00000  Uiso   1.00
C1238  C     0.56064   0.45016   0.97796   0.00000  Uiso   1.00
C1239  C     0.61441   0.50656   0.74137   0.00000  Uiso   1.00
C1240  C     0.54559   0.44765   0.51927   0.00000  Uiso   1.00
C1241  C     0.51090   0.47048   0.54125   0.00000  Uiso   1.00
C1242  C     0.56628   0.42670   0.54015   0.00000  Uiso   1.00
C1243  C     0.56111   0.43885   0.58100   0.00000  Uiso   1.00
C1244  C     0.50731   0.48313   0.58133   0.00000  Uiso   1.00
C1245  C     0.66048   0.50738   0.73789   0.00000  Uiso   1.00
C1246  C     0.34064   0.49049   0.76463   0.00000  Uiso   1.00
C1247  C     0.43310   0.55101   0.92423   0.00000  Uiso   1.00
C1248  C     0.51346   0.65586   0.73800   0.00000  Uiso   1.00
C1249  C     0.48442   0.34597   0.76336   0.00000  Uiso   1.00
C1250  C     0.48908   0.38976   0.75927   0.00000  Uiso   1.00
C1251  C     0.51009   0.61108   0.74135   0.00000  Uiso   1.00
C1252  C     0.52157   0.47862   0.64399   0.00000  Uiso   1.00
C1253  C     0.47862   0.52117   0.85657   0.00000  Uiso   1.00
C1254  C     0.46576   0.52632   0.90076   0.00000  Uiso   1.00
C1255  C     0.53180   0.46791   0.60115   0.00000  Uiso   1.00
C1256  C     0.41304   0.54225   0.96401   0.00000  Uiso   1.00
C1257  C     0.59040   0.38892   0.52115   0.00000  Uiso   1.00
C1258  C     0.48418   0.50218   0.91969   0.00000  Uiso   1.00
C1259  C     0.56734   0.34922   0.53969   0.00000  Uiso   1.00
C1260  C     0.64487   0.47076   0.80144   0.00000  Uiso   1.00
C1261  C     0.33502   0.45699   0.82840   0.00000  Uiso   1.00
C1262  C     0.36506   0.54698   0.98209   0.00000  Uiso   1.00
C1263  C     0.33773   0.52549   0.95499   0.00000  Uiso   1.00
C1264  C     0.42013   0.58686   0.90834   0.00000  Uiso   1.00
C1265  C     0.45772   0.62067   0.89691   0.00000  Uiso   1.00
C1266  C     0.41275   0.47590   0.57903   0.00000  Uiso   1.00
C1267  C     0.40987   0.42835   0.57228   0.00000  Uiso   1.00
C1268  C     0.47327   0.50354   0.96118   0.00000  Uiso   1.00
C1269  C     0.43636   0.52305   0.98386   0.00000  Uiso   1.00
C1270  C     0.49793   0.48541   0.98042   0.00000  Uiso   1.00
C1271  C     0.48344   0.48394   0.52200   0.00000  Uiso   1.00
C1272  C     0.44216   0.49643   0.54289   0.00000  Uiso   1.00
C1273  C     0.42387   0.52273   0.52552   0.00000  Uiso   1.00
H1274  H     0.48727   0.50713   0.59709   0.00000  Uiso   1.00
H1275  H     0.34349   0.53517   0.68929   0.00000  Uiso   1.00
H1276  H     0.35720   0.43369   0.81176   0.00000  Uiso   1.00
H1277  H     0.35329   0.48419   0.84087   0.00000  Uiso   1.00
H1278  H     0.64449   0.44238   0.85347   0.00000  Uiso   1.00
H1279  H     0.62309   0.49360   0.82000   0.00000  Uiso   1.00
H1280  H     0.62561   0.44252   0.79182   0.00000  Uiso   1.00
H1281  H     0.56463   0.65355   0.69261   0.00000  Uiso   1.00
H1282  H     0.43400   0.35232   0.80843   0.00000  Uiso   1.00
H1283  H     0.58051   0.43436   0.62760   0.00000  Uiso   1.00
H1284  H     0.60660   0.44251   0.92862   0.00000  Uiso   1.00
H1285  H     0.50714   0.48200   0.90130   0.00000  Uiso   1.00
H1286  H     0.34308   0.54197   0.92840   0.00000  Uiso   1.00
H1287  H     0.34515   0.49281   0.94547   0.00000  Uiso   1.00
H1288  H     0.63645   0.52513   0.97142   0.00000  Uiso   1.00
H1289  H     0.35150   0.53133   0.50949   0.00000  Uiso   1.00
H1290  H     0.35966   0.58030   0.98986   0.00000  Uiso   1.00
H1291  H     0.48496   0.60850   0.87318   0.00000  Uiso   1.00
H1292  H     0.44698   0.64642   0.88597   0.00000  Uiso   1.00
H1293  H     0.46915   0.63341   0.92323   0.00000  Uiso   1.00
H1294  H     0.40645   0.57571   0.88315   0.00000  Uiso   1.00
H1295  H     0.39451   0.60258   0.93104   0.00000  Uiso   1.00
H1296  H     0.55249   0.47470   0.92876   0.00000  Uiso   1.00
H1297  H     0.40122   0.41706   0.54426   0.00000  Uiso   1.00
H1298  H     0.44072   0.41706   0.57094   0.00000  Uiso   1.00
H1299  H     0.38464   0.41491   0.59723   0.00000  Uiso   1.00
H1300  H     0.42153   0.48710   0.60678   0.00000  Uiso   1.00
H1301  H     0.37934   0.48378   0.58492   0.00000  Uiso   1.00
H1302  H     0.39821   0.55288   0.57670   0.00000  Uiso   1.00
H1303  H     0.56725   0.35059   0.57113   0.00000  Uiso   1.00
H1304  H     0.53364   0.34422   0.53787   0.00000  Uiso   1.00
H1305  H     0.58406   0.65536   0.52322   0.00000  Uiso   1.00
H1306  H     0.59267   0.38164   0.98931   0.00000  Uiso   1.00
H1307  H     0.62365   0.39457   0.52417   0.00000  Uiso   1.00
O1308  O     0.50000   0.50000   0.75000   0.00000  Uiso   1.00
O1309  O     0.49027   0.45726   0.66625   0.00000  Uiso   1.00
O1310  O     0.46020   0.53979   0.83749   0.00000  Uiso   1.00
O1311  O     0.54421   0.50826   0.65877   0.00000  Uiso   1.00
O1312  O     0.50532   0.49468   0.83749   0.00000  Uiso   1.00
O1313  O     0.39601   0.55024   0.54913   0.00000  Uiso   1.00
O1314  O     0.35785   0.52539   0.70687   0.00000  Uiso   1.00
O1315  O     0.54618   0.34138   0.70898   0.00000  Uiso   1.00
O1316  O     0.45113   0.66288   0.79334   0.00000  Uiso   1.00
O1317  O     0.58544   0.42192   0.59978   0.00000  Uiso   1.00
O1318  O     0.60086   0.43877   0.95705   0.00000  Uiso   1.00
O1319  O     0.51182   0.41434   0.77821   0.00000  Uiso   1.00
O1320  O     0.47914   0.59469   0.76767   0.00000  Uiso   1.00
O1321  O     0.40785   0.46584   0.73607   0.00000  Uiso   1.00
O1322  O     0.60119   0.52512   0.71806   0.00000  Uiso   1.00
O1323  O     0.40323   0.52293   0.77820   0.00000  Uiso   1.00
O1324  O     0.58773   0.48610   0.76768   0.00000  Uiso   1.00
O1325  O     0.47133   0.40236   0.73607   0.00000  Uiso   1.00
O1326  O     0.53771   0.58860   0.71806   0.00000  Uiso   1.00
Zn1327 Zn    0.52577   0.47423   0.78278   0.00000  Uiso   1.00
Zn1328 Zn    0.46792   0.45711   0.72258   0.00000  Uiso   1.00
Zn1329 Zn    0.54500   0.52997   0.71188   0.00000  Uiso   1.00
Zn1330 Zn    0.46131   0.53868   0.78277   0.00000  Uiso   1.00
C1331  C     0.71952   0.49347   0.75881   0.00000  Uiso   1.00
C1332  C     0.87094   0.47017   0.95949   0.00000  Uiso   1.00
C1333  C     0.89397   0.45016   0.97796   0.00000  Uiso   1.00
C1334  C     0.94775   0.50656   0.74137   0.00000  Uiso   1.00
C1335  C     0.87892   0.44765   0.51927   0.00000  Uiso   1.00
C1336  C     0.84424   0.47048   0.54125   0.00000  Uiso   1.00
C1337  C     0.89962   0.42670   0.54015   0.00000  Uiso   1.00
C1338  C     0.89444   0.43885   0.58100   0.00000  Uiso   1.00
C1339  C     0.84064   0.48313   0.58133   0.00000  Uiso   1.00
C1340  C     0.99381   0.50738   0.73789   0.00000  Uiso   1.00
C1341  C     0.67397   0.49049   0.76463   0.00000  Uiso   1.00
C1342  C     0.76644   0.55101   0.92423   0.00000  Uiso   1.00
C1343  C     0.84679   0.65586   0.73800   0.00000  Uiso   1.00
C1344  C     0.81776   0.34597   0.76336   0.00000  Uiso   1.00
C1345  C     0.82241   0.38976   0.75927   0.00000  Uiso   1.00
C1346  C     0.84342   0.61108   0.74135   0.00000  Uiso   1.00
C1347  C     0.85491   0.47862   0.64399   0.00000  Uiso   1.00
C1348  C     0.81195   0.52117   0.85657   0.00000  Uiso   1.00
C1349  C     0.79909   0.52632   0.90076   0.00000  Uiso   1.00
C1350  C     0.86514   0.46791   0.60115   0.00000  Uiso   1.00
C1351  C     0.74638   0.54225   0.96401   0.00000  Uiso   1.00
C1352  C     0.92374   0.38892   0.52115   0.00000  Uiso   1.00
C1353  C     0.81752   0.50218   0.91969   0.00000  Uiso   1.00
C1354  C     0.90068   0.34922   0.53969   0.00000  Uiso   1.00
C1355  C     0.97820   0.47076   0.80144   0.00000  Uiso   1.00
C1356  C     0.66836   0.45699   0.82840   0.00000  Uiso   1.00
C1357  C     0.69840   0.54698   0.98209   0.00000  Uiso   1.00
C1358  C     0.67106   0.52549   0.95499   0.00000  Uiso   1.00
C1359  C     0.75346   0.58686   0.90834   0.00000  Uiso   1.00
C1360  C     0.79106   0.62067   0.89691   0.00000  Uiso   1.00
C1361  C     0.74608   0.47590   0.57903   0.00000  Uiso   1.00
C1362  C     0.74320   0.42835   0.57228   0.00000  Uiso   1.00
C1363  C     0.80660   0.50354   0.96118   0.00000  Uiso   1.00
C1364  C     0.76969   0.52305   0.98386   0.00000  Uiso   1.00
C1365  C     0.83127   0.48541   0.98042   0.00000  Uiso   1.00
C1366  C     0.81678   0.48394   0.52200   0.00000  Uiso   1.00
C1367  C     0.77549   0.49643   0.54289   0.00000  Uiso   1.00
C1368  C     0.75720   0.52273   0.52552   0.00000  Uiso   1.00
H1369  H     0.82060   0.50713   0.59709   0.00000  Uiso   1.00
H1370  H     0.67683   0.53517   0.68929   0.00000  Uiso   1.00
H1371  H     0.69054   0.43369   0.81176   0.00000  Uiso   1.00
H1372  H     0.68662   0.48419   0.84087   0.00000  Uiso   1.00
H1373  H     0.97782   0.44238   0.85347   0.00000  Uiso   1.00
H1374  H     0.95642   0.49360   0.82000   0.00000  Uiso   1.00
H1375  H     0.95895   0.44252   0.79182   0.00000  Uiso   1.00
H1376  H     0.89796   0.65355   0.69261   0.00000  Uiso   1.00
H1377  H     0.76733   0.35232   0.80843   0.00000  Uiso   1.00
H1378  H     0.91384   0.43436   0.62760   0.00000  Uiso   1.00
H1379  H     0.93994   0.44251   0.92862   0.00000  Uiso   1.00
H1380  H     0.84047   0.48200   0.90130   0.00000  Uiso   1.00
H1381  H     0.67641   0.54197   0.92840   0.00000  Uiso   1.00
H1382  H     0.67849   0.49281   0.94547   0.00000  Uiso   1.00
H1383  H     0.96978   0.52513   0.97142   0.00000  Uiso   1.00
H1384  H     0.68484   0.53133   0.50949   0.00000  Uiso   1.00
H1385  H     0.69299   0.58030   0.98986   0.00000  Uiso   1.00
H1386  H     0.81829   0.60850   0.87318   0.00000  Uiso   1.00
H1387  H     0.78031   0.64642   0.88597   0.00000  Uiso   1.00
H1388  H     0.80248   0.63341   0.92323   0.00000  Uiso   1.00
H1389  H     0.73978   0.57571   0.88315   0.00000  Uiso   1.00
H1390  H     0.72784   0.60258   0.93104   0.00000  Uiso   1.00
H1391  H     0.88582   0.47470   0.92876   0.00000  Uiso   1.00
H1392  H     0.73455   0.41706   0.54426   0.00000  Uiso   1.00
H1393  H     0.77405   0.41706   0.57094   0.00000  Uiso   1.00
H1394  H     0.71798   0.41491   0.59723   0.00000  Uiso   1.00
H1395  H     0.75486   0.48710   0.60678   0.00000  Uiso   1.00
H1396  H     0.71267   0.48378   0.58492   0.00000  Uiso   1.00
H1397  H     0.73154   0.55288   0.57670   0.00000  Uiso   1.00
H1398  H     0.90058   0.35059   0.57113   0.00000  Uiso   1.00
H1399  H     0.86697   0.34422   0.53787   0.00000  Uiso   1.00
H1400  H     0.91739   0.65536   0.52322   0.00000  Uiso   1.00
H1401  H     0.92600   0.38164   0.98931   0.00000  Uiso   1.00
H1402  H     0.95698   0.39457   0.52417   0.00000  Uiso   1.00
O1403  O     0.83333   0.50000   0.75000   0.00000  Uiso   1.00
O1404  O     0.82360   0.45726   0.66625   0.00000  Uiso   1.00
O1405  O     0.79354   0.53979   0.83749   0.00000  Uiso   1.00
O1406  O     0.87755   0.50826   0.65877   0.00000  Uiso   1.00
O1407  O     0.83865   0.49468   0.83749   0.00000  Uiso   1.00
O1408  O     0.72934   0.55024   0.54913   0.00000  Uiso   1.00
O1409  O     0.69119   0.52539   0.70687   0.00000  Uiso   1.00
O1410  O     0.87951   0.34138   0.70898   0.00000  Uiso   1.00
O1411  O     0.78447   0.66288   0.79334   0.00000  Uiso   1.00
O1412  O     0.91877   0.42192   0.59978   0.00000  Uiso   1.00
O1413  O     0.93419   0.43877   0.95705   0.00000  Uiso   1.00
O1414  O     0.84515   0.41434   0.77821   0.00000  Uiso   1.00
O1415  O     0.81247   0.59469   0.76767   0.00000  Uiso   1.00
O1416  O     0.74119   0.46584   0.73607   0.00000  Uiso   1.00
O1417  O     0.93452   0.52512   0.71806   0.00000  Uiso   1.00
O1418  O     0.73656   0.52293   0.77820   0.00000  Uiso   1.00
O1419  O     0.92106   0.48610   0.76768   0.00000  Uiso   1.00
O1420  O     0.80467   0.40236   0.73607   0.00000  Uiso   1.00
O1421  O     0.87104   0.58860   0.71806   0.00000  Uiso   1.00
Zn1422 Zn    0.85910   0.47423   0.78278   0.00000  Uiso   1.00
Zn1423 Zn    0.80125   0.45711   0.72258   0.00000  Uiso   1.00
Zn1424 Zn    0.87833   0.52997   0.71188   0.00000  Uiso   1.00
Zn1425 Zn    0.79465   0.53868   0.78277   0.00000  Uiso   1.00
C1426  C     0.05286   0.82680   0.75881   0.00000  Uiso   1.00
C1427  C     0.20427   0.80350   0.95949   0.00000  Uiso   1.00
C1428  C     0.22731   0.78350   0.97796   0.00000  Uiso   1.00
C1429  C     0.28108   0.83990   0.74137   0.00000  Uiso   1.00
C1430  C     0.21226   0.78098   0.51927   0.00000  Uiso   1.00
C1431  C     0.17757   0.80381   0.54125   0.00000  Uiso   1.00
C1432  C     0.23295   0.76003   0.54015   0.00000  Uiso   1.00
C1433  C     0.22778   0.77218   0.58100   0.00000  Uiso   1.00
C1434  C     0.17397   0.81646   0.58133   0.00000  Uiso   1.00
C1435  C     0.32714   0.84072   0.73789   0.00000  Uiso   1.00
C1436  C     0.00730   0.82383   0.76463   0.00000  Uiso   1.00
C1437  C     0.09977   0.88434   0.92423   0.00000  Uiso   1.00
C1438  C     0.18012   0.98919   0.73800   0.00000  Uiso   1.00
C1439  C     0.15109   0.67930   0.76336   0.00000  Uiso   1.00
C1440  C     0.15575   0.72310   0.75927   0.00000  Uiso   1.00
C1441  C     0.17675   0.94442   0.74135   0.00000  Uiso   1.00
C1442  C     0.18824   0.81196   0.64399   0.00000  Uiso   1.00
C1443  C     0.14528   0.85450   0.85657   0.00000  Uiso   1.00
C1444  C     0.13242   0.85966   0.90076   0.00000  Uiso   1.00
C1445  C     0.19847   0.80124   0.60115   0.00000  Uiso   1.00
C1446  C     0.07971   0.87558   0.96401   0.00000  Uiso   1.00
C1447  C     0.25707   0.72225   0.52115   0.00000  Uiso   1.00
C1448  C     0.15085   0.83552   0.91969   0.00000  Uiso   1.00
C1449  C     0.23401   0.68255   0.53969   0.00000  Uiso   1.00
C1450  C     0.31154   0.80410   0.80144   0.00000  Uiso   1.00
C1451  C     0.00169   0.79032   0.82840   0.00000  Uiso   1.00
C1452  C     0.03173   0.88031   0.98209   0.00000  Uiso   1.00
C1453  C     0.00440   0.85882   0.95499   0.00000  Uiso   1.00
C1454  C     0.08679   0.92019   0.90834   0.00000  Uiso   1.00
C1455  C     0.12439   0.95401   0.89691   0.00000  Uiso   1.00
C1456  C     0.07942   0.80923   0.57903   0.00000  Uiso   1.00
C1457  C     0.07654   0.76168   0.57228   0.00000  Uiso   1.00
C1458  C     0.13993   0.83687   0.96118   0.00000  Uiso   1.00
C1459  C     0.10302   0.85638   0.98386   0.00000  Uiso   1.00
C1460  C     0.16460   0.81874   0.98042   0.00000  Uiso   1.00
C1461  C     0.15011   0.81727   0.52200   0.00000  Uiso   1.00
C1462  C     0.10883   0.82976   0.54289   0.00000  Uiso   1.00
C1463  C     0.09053   0.85607   0.52552   0.00000  Uiso   1.00
H1464  H     0.15394   0.84047   0.59709   0.00000  Uiso   1.00
H1465  H     0.01016   0.86850   0.68929   0.00000  Uiso   1.00
H1466  H     0.02387   0.76702   0.81176   0.00000  Uiso   1.00
H1467  H     0.01995   0.81752   0.84087   0.00000  Uiso   1.00
H1468  H     0.31115   0.77571   0.85347   0.00000  Uiso   1.00
H1469  H     0.28976   0.82693   0.82000   0.00000  Uiso   1.00
H1470  H     0.29228   0.77585   0.79182   0.00000  Uiso   1.00
H1471  H     0.23129   0.98688   0.69261   0.00000  Uiso   1.00
H1472  H     0.10067   0.68566   0.80843   0.00000  Uiso   1.00
H1473  H     0.24718   0.76769   0.62760   0.00000  Uiso   1.00
H1474  H     0.27327   0.77584   0.92862   0.00000  Uiso   1.00
H1475  H     0.17381   0.81533   0.90130   0.00000  Uiso   1.00
H1476  H     0.00975   0.87530   0.92840   0.00000  Uiso   1.00
H1477  H     0.01182   0.82615   0.94547   0.00000  Uiso   1.00
H1478  H     0.30311   0.85846   0.97142   0.00000  Uiso   1.00
H1479  H     0.01817   0.86466   0.50949   0.00000  Uiso   1.00
H1480  H     0.02633   0.91364   0.98986   0.00000  Uiso   1.00
H1481  H     0.15163   0.94183   0.87318   0.00000  Uiso   1.00
H1482  H     0.11365   0.97976   0.88597   0.00000  Uiso   1.00
H1483  H     0.13582   0.96674   0.92323   0.00000  Uiso   1.00
H1484  H     0.07312   0.90904   0.88315   0.00000  Uiso   1.00
H1485  H     0.06117   0.93591   0.93104   0.00000  Uiso   1.00
H1486  H     0.21915   0.80803   0.92876   0.00000  Uiso   1.00
H1487  H     0.06789   0.75039   0.54426   0.00000  Uiso   1.00
H1488  H     0.10738   0.75040   0.57094   0.00000  Uiso   1.00
H1489  H     0.05131   0.74824   0.59723   0.00000  Uiso   1.00
H1490  H     0.08820   0.82043   0.60678   0.00000  Uiso   1.00
H1491  H     0.04601   0.81711   0.58492   0.00000  Uiso   1.00
H1492  H     0.06488   0.88621   0.57670   0.00000  Uiso   1.00
H1493  H     0.23392   0.68392   0.57113   0.00000  Uiso   1.00
H1494  H     0.20031   0.67755   0.53787   0.00000  Uiso   1.00
H1495  H     0.25072   0.98869   0.52322   0.00000  Uiso   1.00
H1496  H     0.25934   0.71498   0.98931   0.00000  Uiso   1.00
H1497  H     0.29032   0.72790   0.52417   0.00000  Uiso   1.00
O1498  O     0.16667   0.83333   0.75000   0.00000  Uiso   1.00
O1499  O     0.15693   0.79060   0.66625   0.00000  Uiso   1.00
O1500  O     0.12687   0.87313   0.83749   0.00000  Uiso   1.00
O1501  O     0.21088   0.84159   0.65877   0.00000  Uiso   1.00
O1502  O     0.17198   0.82802   0.83749   0.00000  Uiso   1.00
O1503  O     0.06267   0.88357   0.54913   0.00000  Uiso   1.00
O1504  O     0.02452   0.85873   0.70687   0.00000  Uiso   1.00
O1505  O     0.21285   0.67471   0.70898   0.00000  Uiso   1.00
O1506  O     0.11780   0.99621   0.79334   0.00000  Uiso   1.00
O1507  O     0.25210   0.75525   0.59978   0.00000  Uiso   1.00
O1508  O     0.26752   0.77210   0.95705   0.00000  Uiso   1.00
O1509  O     0.17849   0.74768   0.77821   0.00000  Uiso   1.00
O1510  O     0.14581   0.92803   0.76767   0.00000  Uiso   1.00
O1511  O     0.07452   0.79917   0.73607   0.00000  Uiso   1.00
O1512  O     0.26785   0.85845   0.71806   0.00000  Uiso   1.00
O1513  O     0.06990   0.85627   0.77820   0.00000  Uiso   1.00
O1514  O     0.25440   0.81944   0.76768   0.00000  Uiso   1.00
O1515  O     0.13800   0.73570   0.73607   0.00000  Uiso   1.00
O1516  O     0.20437   0.92193   0.71806   0.00000  Uiso   1.00
Zn1517 Zn    0.19244   0.80756   0.78278   0.00000  Uiso   1.00
Zn1518 Zn    0.13459   0.79044   0.72258   0.00000  Uiso   1.00
Zn1519 Zn    0.21166   0.86331   0.71188   0.00000  Uiso   1.00
Zn1520 Zn    0.12798   0.87202   0.78277   0.00000  Uiso   1.00
C1521  C     0.38619   0.82680   0.75881   0.00000  Uiso   1.00
C1522  C     0.53761   0.80350   0.95949   0.00000  Uiso   1.00
C1523  C     0.56064   0.78350   0.97796   0.00000  Uiso   1.00
C1524  C     0.61441   0.83990   0.74137   0.00000  Uiso   1.00
C1525  C     0.54559   0.78098   0.51927   0.00000  Uiso   1.00
C1526  C     0.51090   0.80381   0.54125   0.00000  Uiso   1.00
C1527  C     0.56628   0.76003   0.54015   0.00000  Uiso   1.00
C1528  C     0.56111   0.77218   0.58100   0.00000  Uiso   1.00
C1529  C     0.50731   0.81646   0.58133   0.00000  Uiso   1.00
C1530  C     0.66048   0.84072   0.73789   0.00000  Uiso   1.00
C1531  C     0.34064   0.82383   0.76463   0.00000  Uiso   1.00
C1532  C     0.43310   0.88434   0.92423   0.00000  Uiso   1.00
C1533  C     0.51346   0.98919   0.73800   0.00000  Uiso   1.00
C1534  C     0.48442   0.67930   0.76336   0.00000  Uiso   1.00
C1535  C     0.48908   0.72310   0.75927   0.00000  Uiso   1.00
C1536  C     0.51009   0.94442   0.74135   0.00000  Uiso   1.00
C1537  C     0.52157   0.81196   0.64399   0.00000  Uiso   1.00
C1538  C     0.47862   0.85450   0.85657   0.00000  Uiso   1.00
C1539  C     0.46576   0.85966   0.90076   0.00000  Uiso   1.00
C1540  C     0.53180   0.80124   0.60115   0.00000  Uiso   1.00
C1541  C     0.41304   0.87558   0.96401   0.00000  Uiso   1.00
C1542  C     0.59040   0.72225   0.52115   0.00000  Uiso   1.00
C1543  C     0.48418   0.83552   0.91969   0.00000  Uiso   1.00
C1544  C     0.56734   0.68255   0.53969   0.00000  Uiso   1.00
C1545  C     0.64487   0.80410   0.80144   0.00000  Uiso   1.00
C1546  C     0.33502   0.79032   0.82840   0.00000  Uiso   1.00
C1547  C     0.36506   0.88031   0.98209   0.00000  Uiso   1.00
C1548  C     0.33773   0.85882   0.95499   0.00000  Uiso   1.00
C1549  C     0.42013   0.92019   0.90834   0.00000  Uiso   1.00
C1550  C     0.45772   0.95401   0.89691   0.00000  Uiso   1.00
C1551  C     0.41275   0.80923   0.57903   0.00000  Uiso   1.00
C1552  C     0.40987   0.76168   0.57228   0.00000  Uiso   1.00
C1553  C     0.47327   0.83687   0.96118   0.00000  Uiso   1.00
C1554  C     0.43636   0.85638   0.98386   0.00000  Uiso   1.00
C1555  C     0.49793   0.81874   0.98042   0.00000  Uiso   1.00
C1556  C     0.48344   0.81727   0.52200   0.00000  Uiso   1.00
C1557  C     0.44216   0.82976   0.54289   0.00000  Uiso   1.00
C1558  C     0.42387   0.85607   0.52552   0.00000  Uiso   1.00
H1559  H     0.48727   0.84047   0.59709   0.00000  Uiso   1.00
H1560  H     0.34349   0.86850   0.68929   0.00000  Uiso   1.00
H1561  H     0.35720   0.76702   0.81176   0.00000  Uiso   1.00
H1562  H     0.35329   0.81752   0.84087   0.00000  Uiso   1.00
H1563  H     0.64449   0.77571   0.85347   0.00000  Uiso   1.00
H1564  H     0.62309   0.82693   0.82000   0.00000  Uiso   1.00
H1565  H     0.62561   0.77585   0.79182   0.00000  Uiso   1.00
H1566  H     0.56463   0.98688   0.69261   0.00000  Uiso   1.00
H1567  H     0.43400   0.68566   0.80843   0.00000  Uiso   1.00
H1568  H     0.58051   0.76769   0.62760   0.00000  Uiso   1.00
H1569  H     0.60660   0.77584   0.92862   0.00000  Uiso   1.00
H1570  H     0.50714   0.81533   0.90130   0.00000  Uiso   1.00
H1571  H     0.34308   0.87530   0.92840   0.00000  Uiso   1.00
H1572  H     0.34515   0.82615   0.94547   0.00000  Uiso   1.00
H1573  H     0.63645   0.85846   0.97142   0.00000  Uiso   1.00
H1574  H     0.35150   0.86466   0.50949   0.00000  Uiso   1.00
H1575  H     0.35966   0.91364   0.98986   0.00000  Uiso   1.00
H1576  H     0.48496   0.94183   0.87318   0.00000  Uiso   1.00
H1577  H     0.44698   0.97976   0.88597   0.00000  Uiso   1.00
H1578  H     0.46915   0.96674   0.92323   0.00000  Uiso   1.00
H1579  H     0.40645   0.90904   0.88315   0.00000  Uiso   1.00
H1580  H     0.39451   0.93591   0.93104   0.00000  Uiso   1.00
H1581  H     0.55249   0.80803   0.92876   0.00000  Uiso   1.00
H1582  H     0.40122   0.75039   0.54426   0.00000  Uiso   1.00
H1583  H     0.44072   0.75040   0.57094   0.00000  Uiso   1.00
H1584  H     0.38464   0.74824   0.59723   0.00000  Uiso   1.00
H1585  H     0.42153   0.82043   0.60678   0.00000  Uiso   1.00
H1586  H     0.37934   0.81711   0.58492   0.00000  Uiso   1.00
H1587  H     0.39821   0.88621   0.57670   0.00000  Uiso   1.00
H1588  H     0.56725   0.68392   0.57113   0.00000  Uiso   1.00
H1589  H     0.53364   0.67755   0.53787   0.00000  Uiso   1.00
H1590  H     0.58406   0.98869   0.52322   0.00000  Uiso   1.00
H1591  H     0.59267   0.71498   0.98931   0.00000  Uiso   1.00
H1592  H     0.62365   0.72790   0.52417   0.00000  Uiso   1.00
O1593  O     0.50000   0.83333   0.75000   0.00000  Uiso   1.00
O1594  O     0.49027   0.79060   0.66625   0.00000  Uiso   1.00
O1595  O     0.46020   0.87313   0.83749   0.00000  Uiso   1.00
O1596  O     0.54421   0.84159   0.65877   0.00000  Uiso   1.00
O1597  O     0.50532   0.82802   0.83749   0.00000  Uiso   1.00
O1598  O     0.39601   0.88357   0.54913   0.00000  Uiso   1.00
O1599  O     0.35785   0.85873   0.70687   0.00000  Uiso   1.00
O1600  O     0.54618   0.67471   0.70898   0.00000  Uiso   1.00
O1601  O     0.45113   0.99621   0.79334   0.00000  Uiso   1.00
O1602  O     0.58544   0.75525   0.59978   0.00000  Uiso   1.00
O1603  O     0.60086   0.77210   0.95705   0.00000  Uiso   1.00
O1604  O     0.51182   0.74768   0.77821   0.00000  Uiso   1.00
O1605  O     0.47914   0.92803   0.76767   0.00000  Uiso   1.00
O1606  O     0.40785   0.79917   0.73607   0.00000  Uiso   1.00
O1607  O     0.60119   0.85845   0.71806   0.00000  Uiso   1.00
O1608  O     0.40323   0.85627   0.77820   0.00000  Uiso   1.00
O1609  O     0.58773   0.81944   0.76768   0.00000  Uiso   1.00
O1610  O     0.47133   0.73570   0.73607   0.00000  Uiso   1.00
O1611  O     0.53771   0.92193   0.71806   0.00000  Uiso   1.00
Zn1612 Zn    0.52577   0.80756   0.78278   0.00000  Uiso   1.00
Zn1613 Zn    0.46792   0.79044   0.72258   0.00000  Uiso   1.00
Zn1614 Zn    0.54500   0.86331   0.71188   0.00000  Uiso   1.00
Zn1615 Zn    0.46131   0.87202   0.78277   0.00000  Uiso   1.00
C1616  C     0.71952   0.82680   0.75881   0.00000  Uiso   1.00
C1617  C     0.87094   0.80350   0.95949   0.00000  Uiso   1.00
C1618  C     0.89397   0.78350   0.97796   0.00000  Uiso   1.00
C1619  C     0.94775   0.83990   0.74137   0.00000  Uiso   1.00
C1620  C     0.87892   0.78098   0.51927   0.00000  Uiso   1.00
C1621  C     0.84424   0.80381   0.54125   0.00000  Uiso   1.00
C1622  C     0.89962   0.76003   0.54015   0.00000  Uiso   1.00
C1623  C     0.89444   0.77218   0.58100   0.00000  Uiso   1.00
C1624  C     0.84064   0.81646   0.58133   0.00000  Uiso   1.00
C1625  C     0.99381   0.84072   0.73789   0.00000  Uiso   1.00
C1626  C     0.67397   0.82383   0.76463   0.00000  Uiso   1.00
C1627  C     0.76644   0.88434   0.92423   0.00000  Uiso   1.00
C1628  C     0.84679   0.98919   0.73800   0.00000  Uiso   1.00
C1629  C     0.81776   0.67930   0.76336   0.00000  Uiso   1.00
C1630  C     0.82241   0.72310   0.75927   0.00000  Uiso   1.00
C1631  C     0.84342   0.94442   0.74135   0.00000  Uiso   1.00
C1632  C     0.85491   0.81196   0.64399   0.00000  Uiso   1.00
C1633  C     0.81195   0.85450   0.85657   0.00000  Uiso   1.00
C1634  C     0.79909   0.85966   0.90076   0.00000  Uiso   1.00
C1635  C     0.86514   0.80124   0.60115   0.00000  Uiso   1.00
C1636  C     0.74638   0.87558   0.96401   0.00000  Uiso   1.00
C1637  C     0.92374   0.72225   0.52115   0.00000  Uiso   1.00
C1638  C     0.81752   0.83552   0.91969   0.00000  Uiso   1.00
C1639  C     0.90068   0.68255   0.53969   0.00000  Uiso   1.00
C1640  C     0.97820   0.80410   0.80144   0.00000  Uiso   1.00
C1641  C     0.66836   0.79032   0.82840   0.00000  Uiso   1.00
C1642  C     0.69840   0.88031   0.98209   0.00000  Uiso   1.00
C1643  C     0.67106   0.85882   0.95499   0.00000  Uiso   1.00
C1644  C     0.75346   0.92019   0.90834   0.00000  Uiso   1.00
C1645  C     0.79106   0.95401   0.89691   0.00000  Uiso   1.00
C1646  C     0.74608   0.80923   0.57903   0.00000  Uiso   1.00
C1647  C     0.74320   0.76168   0.57228   0.00000  Uiso   1.00
C1648  C     0.80660   0.83687   0.96118   0.00000  Uiso   1.00
C1649  C     0.76969   0.85638   0.98386   0.00000  Uiso   1.00
C1650  C     0.83127   0.81874   0.98042   0.00000  Uiso   1.00
C1651  C     0.81678   0.81727   0.52200   0.00000  Uiso   1.00
C1652  C     0.77549   0.82976   0.54289   0.00000  Uiso   1.00
C1653  C     0.75720   0.85607   0.52552   0.00000  Uiso   1.00
H1654  H     0.82060   0.84047   0.59709   0.00000  Uiso   1.00
H1655  H     0.67683   0.86850   0.68929   0.00000  Uiso   1.00
H1656  H     0.69054   0.76702   0.81176   0.00000  Uiso   1.00
H1657  H     0.68662   0.81752   0.84087   0.00000  Uiso   1.00
H1658  H     0.97782   0.77571   0.85347   0.00000  Uiso   1.00
H1659  H     0.95642   0.82693   0.82000   0.00000  Uiso   1.00
H1660  H     0.95895   0.77585   0.79182   0.00000  Uiso   1.00
H1661  H     0.89796   0.98688   0.69261   0.00000  Uiso   1.00
H1662  H     0.76733   0.68566   0.80843   0.00000  Uiso   1.00
H1663  H     0.91384   0.76769   0.62760   0.00000  Uiso   1.00
H1664  H     0.93994   0.77584   0.92862   0.00000  Uiso   1.00
H1665  H     0.84047   0.81533   0.90130   0.00000  Uiso   1.00
H1666  H     0.67641   0.87530   0.92840   0.00000  Uiso   1.00
H1667  H     0.67849   0.82615   0.94547   0.00000  Uiso   1.00
H1668  H     0.96978   0.85846   0.97142   0.00000  Uiso   1.00
H1669  H     0.68484   0.86466   0.50949   0.00000  Uiso   1.00
H1670  H     0.69299   0.91364   0.98986   0.00000  Uiso   1.00
H1671  H     0.81829   0.94183   0.87318   0.00000  Uiso   1.00
H1672  H     0.78031   0.97976   0.88597   0.00000  Uiso   1.00
H1673  H     0.80248   0.96674   0.92323   0.00000  Uiso   1.00
H1674  H     0.73978   0.90904   0.88315   0.00000  Uiso   1.00
H1675  H     0.72784   0.93591   0.93104   0.00000  Uiso   1.00
H1676  H     0.88582   0.80803   0.92876   0.00000  Uiso   1.00
H1677  H     0.73455   0.75039   0.54426   0.00000  Uiso   1.00
H1678  H     0.77405   0.75040   0.57094   0.00000  Uiso   1.00
H1679  H     0.71798   0.74824   0.59723   0.00000  Uiso   1.00
H1680  H     0.75486   0.82043   0.60678   0.00000  Uiso   1.00
H1681  H     0.71267   0.81711   0.58492   0.00000  Uiso   1.00
H1682  H     0.73154   0.88621   0.57670   0.00000  Uiso   1.00
H1683  H     0.90058   0.68392   0.57113   0.00000  Uiso   1.00
H1684  H     0.86697   0.67755   0.53787   0.00000  Uiso   1.00
H1685  H     0.91739   0.98869   0.52322   0.00000  Uiso   1.00
H1686  H     0.92600   0.71498   0.98931   0.00000  Uiso   1.00
H1687  H     0.95698   0.72790   0.52417   0.00000  Uiso   1.00
O1688  O     0.83333   0.83333   0.75000   0.00000  Uiso   1.00
O1689  O     0.82360   0.79060   0.66625   0.00000  Uiso   1.00
O1690  O     0.79354   0.87313   0.83749   0.00000  Uiso   1.00
O1691  O     0.87755   0.84159   0.65877   0.00000  Uiso   1.00
O1692  O     0.83865   0.82802   0.83749   0.00000  Uiso   1.00
O1693  O     0.72934   0.88357   0.54913   0.00000  Uiso   1.00
O1694  O     0.69119   0.85873   0.70687   0.00000  Uiso   1.00
O1695  O     0.87951   0.67471   0.70898   0.00000  Uiso   1.00
O1696  O     0.78447   0.99621   0.79334   0.00000  Uiso   1.00
O1697  O     0.91877   0.75525   0.59978   0.00000  Uiso   1.00
O1698  O     0.93419   0.77210   0.95705   0.00000  Uiso   1.00
O1699  O     0.84515   0.74768   0.77821   0.00000  Uiso   1.00
O1700  O     0.81247   0.92803   0.76767   0.00000  Uiso   1.00
O1701  O     0.74119   0.79917   0.73607   0.00000  Uiso   1.00
O1702  O     0.93452   0.85845   0.71806   0.00000  Uiso   1.00
O1703  O     0.73656   0.85627   0.77820   0.00000  Uiso   1.00
O1704  O     0.92106   0.81944   0.76768   0.00000  Uiso   1.00
O1705  O     0.80467   0.73570   0.73607   0.00000  Uiso   1.00
O1706  O     0.87104   0.92193   0.71806   0.00000  Uiso   1.00
Zn1707 Zn    0.85910   0.80756   0.78278   0.00000  Uiso   1.00
Zn1708 Zn    0.80125   0.79044   0.72258   0.00000  Uiso   1.00
Zn1709 Zn    0.87833   0.86331   0.71188   0.00000  Uiso   1.00
Zn1710 Zn    0.79465   0.87202   0.78277   0.00000  Uiso   1.00
loop_
_geom_bond_atom_site_label_1
_geom_bond_atom_site_label_2
_geom_bond_distance
_geom_bond_site_symmetry_2
_ccdc_geom_bond_type
C1     C11     1.435   .     S
C1     O88     1.263   .     A
C1     O86     1.269   .     A
C2     C35     1.414   .     A
C2     H61     1.077   .     S
C2     C3      1.404   .     A
C3     O83     1.383   .     S
C3     C860    1.412   .     S
C4     O87     1.288   .     A
C4     C10     1.473   .     S
C4     O89     1.268   .     A
C5     C6      1.418   .     A
C5     C7      1.428   .     A
C5     C858    1.412   1_554 S
C6     C9      1.398   .     A
C6     C36     1.422   .     A
C7     C8      1.413   .     A
C7     C22     1.527   .     S
C8     O82     1.385   .     S
C8     C20     1.413   .     A
C9     H39     1.079   .     S
C9     C20     1.387   .     A
C10    C106    1.363   .     S
C10    O174    1.389   .     S
C11    C200    1.363   1_455 S
C11    C215    1.535   1_455 S
C12    C29     1.526   .     S
C12    C21     1.420   .     A
C12    C19     1.421   .     A
C13    C16     1.467   .     S
C13    C299    1.346   .     S
C13    O365    1.388   .     S
C14    C15     1.438   .     S
C14    C583    1.346   1_545 S
C14    O651    1.385   1_545 S
C15    O84     1.273   .     A
C15    O90     1.274   .     A
C16    O85     1.270   .     A
C16    O91     1.273   .     A
C17    C20     1.459   .     S
C17    O76     1.281   .     A
C17    O74     1.278   .     A
C18    O75     1.283   .     A
C18    C19     1.490   .     S
C18    O77     1.294   .     A
C19    C23     1.397   .     A
C21    C27     1.534   .     S
C21    C34     1.429   .     A
C22    H72     1.111   .     S
C22    C24     1.532   .     S
C22    H926    1.103   1_554 S
C23    C33     1.404   .     A
C23    H50     1.076   .     S
C24    H69     1.111   .     S
C24    H68     1.108   .     S
C24    H640    1.111   1_545 S
C25    H44     1.112   .     S
C25    H45     1.111   .     S
C25    C106    1.535   .     S
C25    C121    1.534   .     S
C26    H42     1.111   .     S
C26    H41     1.111   .     S
C26    C215    1.534   1_455 S
C26    H233    1.110   1_455 S
C27    H55     1.110   .     S
C27    C28     1.533   .     S
C27    H909    1.105   .     S
C28    H51     1.107   .     S
C28    H52     1.111   .     S
C28    H243    1.111   1_455 S
C29    C30     1.530   .     S
C29    H59     1.108   .     S
C29    H60     1.107   .     S
C30    H57     1.111   .     S
C30    H56     1.109   .     S
C30    H58     1.111   .     S
C31    H66     1.112   .     S
C31    C37     1.532   .     S
C31    C32     1.530   .     S
C31    H65     1.104   .     S
C32    H64     1.111   .     S
C32    H63     1.109   .     S
C32    H62     1.111   .     S
C33    C34     1.421   .     A
C33    C35     1.427   .     A
C34    C893    1.413   .     S
C35    C891    1.415   .     S
C36    C37     1.424   .     A
C36    C890    1.415   1_554 S
C37    C38     1.408   .     A
C38    O78     1.384   .     S
C38    C889    1.413   1_554 S
H40    O79     0.990   .     S
H43    C121    1.110   .     S
H46    O365    0.990   .     S
H47    O651    0.992   1_545 S
H48    O82     0.989   .     S
H49    O83     0.991   .     S
H53    C123    1.111   .     S
H54    C882    1.105   1_554 S
H67    O78     0.992   .     S
H70    C309    1.111   .     S
H71    C877    1.103   .     S
O73    Zn93    1.951   .     S
O73    Zn94    1.934   .     S
O73    Zn92    1.953   .     S
O73    Zn95    1.931   .     S
O74    Zn93    1.915   .     S
O75    Zn95    1.924   .     S
O76    Zn94    1.923   .     S
O77    Zn92    1.913   .     S
O79    C200    1.389   1_455 S
O80    C583    1.388   1_545 S
O80    H616    0.990   1_545 S
O81    C299    1.385   .     S
O81    H332    0.992   .     S
O84    Zn92    1.937   .     S
O85    Zn95    1.936   .     S
O86    Zn93    1.935   .     S
O87    Zn94    1.945   .     S
O88    Zn95    1.945   .     S
O89    Zn92    1.936   .     S
O90    Zn93    1.938   .     S
O91    Zn94    1.935   .     S
C96    C106    1.435   .     S
C96    O183    1.263   .     A
C96    O181    1.269   .     A
C97    C130    1.414   .     A
C97    H156    1.077   .     S
C97    C98     1.404   .     A
C98    O178    1.383   .     S
C98    C955    1.412   .     S
C99    O182    1.288   .     A
C99    C105    1.473   .     S
C99    O184    1.268   .     A
C100   C101    1.418   .     A
C100   C102    1.428   .     A
C100   C953    1.412   1_554 S
C101   C104    1.398   .     A
C101   C131    1.422   .     A
C102   C103    1.413   .     A
C102   C117    1.527   .     S
C103   O177    1.385   .     S
C103   C115    1.413   .     A
C104   H134    1.079   .     S
C104   C115    1.387   .     A
C105   C201    1.363   .     S
C105   O269    1.389   .     S
C107   C124    1.526   .     S
C107   C116    1.420   .     A
C107   C114    1.421   .     A
C108   C111    1.467   .     S
C108   C394    1.346   .     S
C108   O460    1.388   .     S
C109   C110    1.438   .     S
C109   C678    1.346   1_545 S
C109   O746    1.385   1_545 S
C110   O179    1.273   .     A
C110   O185    1.274   .     A
C111   O180    1.270   .     A
C111   O186    1.273   .     A
C112   C115    1.459   .     S
C112   O171    1.281   .     A
C112   O169    1.278   .     A
C113   O170    1.283   .     A
C113   C114    1.490   .     S
C113   O172    1.294   .     A
C114   C118    1.397   .     A
C116   C122    1.534   .     S
C116   C129    1.429   .     A
C117   H167    1.111   .     S
C117   C119    1.532   .     S
C117   H1021   1.103   1_554 S
C118   C128    1.404   .     A
C118   H145    1.076   .     S
C119   H164    1.111   .     S
C119   H163    1.108   .     S
C119   H735    1.111   1_545 S
C120   H139    1.112   .     S
C120   H140    1.111   .     S
C120   C201    1.535   .     S
C120   C216    1.534   .     S
C121   H137    1.111   .     S
C121   H136    1.111   .     S
C122   H150    1.110   .     S
C122   C123    1.533   .     S
C122   H1004   1.105   .     S
C123   H146    1.107   .     S
C123   H147    1.111   .     S
C124   C125    1.530   .     S
C124   H154    1.108   .     S
C124   H155    1.107   .     S
C125   H152    1.111   .     S
C125   H151    1.109   .     S
C125   H153    1.111   .     S
C126   H161    1.112   .     S
C126   C132    1.532   .     S
C126   C127    1.530   .     S
C126   H160    1.104   .     S
C127   H159    1.111   .     S
C127   H158    1.109   .     S
C127   H157    1.111   .     S
C128   C129    1.421   .     A
C128   C130    1.427   .     A
C129   C988    1.413   .     S
C130   C986    1.415   .     S
C131   C132    1.424   .     A
C131   C985    1.415   1_554 S
C132   C133    1.408   .     A
C133   O173    1.384   .     S
C133   C984    1.413   1_554 S
H135   O174    0.990   .     S
H138   C216    1.110   .     S
H141   O460    0.990   .     S
H142   O746    0.992   1_545 S
H143   O177    0.989   .     S
H144   O178    0.991   .     S
H148   C218    1.111   .     S
H149   C977    1.105   1_554 S
H162   O173    0.992   .     S
H165   C404    1.111   .     S
H166   C972    1.103   .     S
O168   Zn188   1.951   .     S
O168   Zn189   1.934   .     S
O168   Zn187   1.953   .     S
O168   Zn190   1.931   .     S
O169   Zn188   1.915   .     S
O170   Zn190   1.924   .     S
O171   Zn189   1.923   .     S
O172   Zn187   1.913   .     S
O175   C678    1.388   1_545 S
O175   H711    0.990   1_545 S
O176   C394    1.385   .     S
O176   H427    0.992   .     S
O179   Zn187   1.937   .     S
O180   Zn190   1.936   .     S
O181   Zn188   1.935   .     S
O182   Zn189   1.945   .     S
O183   Zn190   1.945   .     S
O184   Zn187   1.936   .     S
O185   Zn188   1.938   .     S
O186   Zn189   1.935   .     S
C191   C201    1.435   .     S
C191   O278    1.263   .     A
C191   O276    1.269   .     A
C192   C225    1.414   .     A
C192   H251    1.077   .     S
C192   C193    1.404   .     A
C193   O273    1.383   .     S
C193   C1050   1.412   .     S
C194   O277    1.288   .     A
C194   C200    1.473   .     S
C194   O279    1.268   .     A
C195   C196    1.418   .     A
C195   C197    1.428   .     A
C195   C1048   1.412   1_554 S
C196   C199    1.398   .     A
C196   C226    1.422   .     A
C197   C198    1.413   .     A
C197   C212    1.527   .     S
C198   O272    1.385   .     S
C198   C210    1.413   .     A
C199   H229    1.079   .     S
C199   C210    1.387   .     A
C200   C11     1.363   1_655 S
C200   O79     1.389   1_655 S
C202   C219    1.526   .     S
C202   C211    1.420   .     A
C202   C209    1.421   .     A
C203   C206    1.467   .     S
C203   C489    1.346   .     S
C203   O555    1.388   .     S
C204   C205    1.438   .     S
C204   C773    1.346   1_545 S
C204   O841    1.385   1_545 S
C205   O274    1.273   .     A
C205   O280    1.274   .     A
C206   O275    1.270   .     A
C206   O281    1.273   .     A
C207   C210    1.459   .     S
C207   O266    1.281   .     A
C207   O264    1.278   .     A
C208   O265    1.283   .     A
C208   C209    1.490   .     S
C208   O267    1.294   .     A
C209   C213    1.397   .     A
C211   C217    1.534   .     S
C211   C224    1.429   .     A
C212   H262    1.111   .     S
C212   C214    1.532   .     S
C212   H1116   1.103   1_554 S
C213   C223    1.404   .     A
C213   H240    1.076   .     S
C214   H259    1.111   .     S
C214   H258    1.108   .     S
C214   H830    1.111   1_545 S
C215   H234    1.112   .     S
C215   H235    1.111   .     S
C215   C11     1.535   1_655 S
C215   C26     1.534   1_655 S
C216   H232    1.111   .     S
C216   H231    1.111   .     S
C217   H245    1.110   .     S
C217   C218    1.533   .     S
C217   H1099   1.105   .     S
C218   H241    1.107   .     S
C218   H242    1.111   .     S
C219   C220    1.530   .     S
C219   H249    1.108   .     S
C219   H250    1.107   .     S
C220   H247    1.111   .     S
C220   H246    1.109   .     S
C220   H248    1.111   .     S
C221   H256    1.112   .     S
C221   C227    1.532   .     S
C221   C222    1.530   .     S
C221   H255    1.104   .     S
C222   H254    1.111   .     S
C222   H253    1.109   .     S
C222   H252    1.111   .     S
C223   C224    1.421   .     A
C223   C225    1.427   .     A
C224   C1083   1.413   .     S
C225   C1081   1.415   .     S
C226   C227    1.424   .     A
C226   C1080   1.415   1_554 S
C227   C228    1.408   .     A
C228   O268    1.384   .     S
C228   C1079   1.413   1_554 S
H230   O269    0.990   .     S
H233   C26     1.110   1_655 S
H236   O555    0.990   .     S
H237   O841    0.992   1_545 S
H238   O272    0.989   .     S
H239   O273    0.991   .     S
H243   C28     1.111   1_655 S
H244   C1072   1.105   1_554 S
H257   O268    0.992   .     S
H260   C499    1.111   .     S
H261   C1067   1.103   .     S
O263   Zn283   1.951   .     S
O263   Zn284   1.934   .     S
O263   Zn282   1.953   .     S
O263   Zn285   1.931   .     S
O264   Zn283   1.915   .     S
O265   Zn285   1.924   .     S
O266   Zn284   1.923   .     S
O267   Zn282   1.913   .     S
O270   C773    1.388   1_545 S
O270   H806    0.990   1_545 S
O271   C489    1.385   .     S
O271   H522    0.992   .     S
O274   Zn282   1.937   .     S
O275   Zn285   1.936   .     S
O276   Zn283   1.935   .     S
O277   Zn284   1.945   .     S
O278   Zn285   1.945   .     S
O279   Zn282   1.936   .     S
O280   Zn283   1.938   .     S
O281   Zn284   1.935   .     S
C286   C296    1.435   .     S
C286   O373    1.263   .     A
C286   O371    1.269   .     A
C287   C320    1.414   .     A
C287   H346    1.077   .     S
C287   C288    1.404   .     A
C288   O368    1.383   .     S
C288   C1145   1.412   .     S
C289   O372    1.288   .     A
C289   C295    1.473   .     S
C289   O374    1.268   .     A
C290   C291    1.418   .     A
C290   C292    1.428   .     A
C290   C1143   1.412   1_554 S
C291   C294    1.398   .     A
C291   C321    1.422   .     A
C292   C293    1.413   .     A
C292   C307    1.527   .     S
C293   O367    1.385   .     S
C293   C305    1.413   .     A
C294   H324    1.079   .     S
C294   C305    1.387   .     A
C295   C391    1.363   .     S
C295   O459    1.389   .     S
C296   C485    1.363   1_455 S
C296   C500    1.535   1_455 S
C297   C314    1.526   .     S
C297   C306    1.420   .     A
C297   C304    1.421   .     A
C298   C301    1.467   .     S
C298   C584    1.346   .     S
C298   O650    1.388   .     S
C299   C300    1.438   .     S
C300   O369    1.273   .     A
C300   O375    1.274   .     A
C301   O370    1.270   .     A
C301   O376    1.273   .     A
C302   C305    1.459   .     S
C302   O361    1.281   .     A
C302   O359    1.278   .     A
C303   O360    1.283   .     A
C303   C304    1.490   .     S
C303   O362    1.294   .     A
C304   C308    1.397   .     A
C306   C312    1.534   .     S
C306   C319    1.429   .     A
C307   H357    1.111   .     S
C307   C309    1.532   .     S
C307   H1211   1.103   1_554 S
C308   C318    1.404   .     A
C308   H335    1.076   .     S
C309   H354    1.111   .     S
C309   H353    1.108   .     S
C310   H329    1.112   .     S
C310   H330    1.111   .     S
C310   C391    1.535   .     S
C310   C406    1.534   .     S
C311   H327    1.111   .     S
C311   H326    1.111   .     S
C311   C500    1.534   1_455 S
C311   H518    1.110   1_455 S
C312   H340    1.110   .     S
C312   C313    1.533   .     S
C312   H1194   1.105   .     S
C313   H336    1.107   .     S
C313   H337    1.111   .     S
C313   H528    1.111   1_455 S
C314   C315    1.530   .     S
C314   H344    1.108   .     S
C314   H345    1.107   .     S
C315   H342    1.111   .     S
C315   H341    1.109   .     S
C315   H343    1.111   .     S
C316   H351    1.112   .     S
C316   C322    1.532   .     S
C316   C317    1.530   .     S
C316   H350    1.104   .     S
C317   H349    1.111   .     S
C317   H348    1.109   .     S
C317   H347    1.111   .     S
C318   C319    1.421   .     A
C318   C320    1.427   .     A
C319   C1178   1.413   .     S
C320   C1176   1.415   .     S
C321   C322    1.424   .     A
C321   C1175   1.415   1_554 S
C322   C323    1.408   .     A
C323   O363    1.384   .     S
C323   C1174   1.413   1_554 S
H325   O364    0.990   .     S
H328   C406    1.110   .     S
H331   O650    0.990   .     S
H333   O367    0.989   .     S
H334   O368    0.991   .     S
H338   C408    1.111   .     S
H339   C1167   1.105   1_554 S
H352   O363    0.992   .     S
H355   C594    1.111   .     S
H356   C1162   1.103   .     S
O358   Zn378   1.951   .     S
O358   Zn379   1.934   .     S
O358   Zn377   1.953   .     S
O358   Zn380   1.931   .     S
O359   Zn378   1.915   .     S
O360   Zn380   1.924   .     S
O361   Zn379   1.923   .     S
O362   Zn377   1.913   .     S
O364   C485    1.389   1_455 S
O366   C584    1.385   .     S
O366   H617    0.992   .     S
O369   Zn377   1.937   .     S
O370   Zn380   1.936   .     S
O371   Zn378   1.935   .     S
O372   Zn379   1.945   .     S
O373   Zn380   1.945   .     S
O374   Zn377   1.936   .     S
O375   Zn378   1.938   .     S
O376   Zn379   1.935   .     S
C381   C391    1.435   .     S
C381   O468    1.263   .     A
C381   O466    1.269   .     A
C382   C415    1.414   .     A
C382   H441    1.077   .     S
C382   C383    1.404   .     A
C383   O463    1.383   .     S
C383   C1240   1.412   .     S
C384   O467    1.288   .     A
C384   C390    1.473   .     S
C384   O469    1.268   .     A
C385   C386    1.418   .     A
C385   C387    1.428   .     A
C385   C1238   1.412   1_554 S
C386   C389    1.398   .     A
C386   C416    1.422   .     A
C387   C388    1.413   .     A
C387   C402    1.527   .     S
C388   O462    1.385   .     S
C388   C400    1.413   .     A
C389   H419    1.079   .     S
C389   C400    1.387   .     A
C390   C486    1.363   .     S
C390   O554    1.389   .     S
C392   C409    1.526   .     S
C392   C401    1.420   .     A
C392   C399    1.421   .     A
C393   C396    1.467   .     S
C393   C679    1.346   .     S
C393   O745    1.388   .     S
C394   C395    1.438   .     S
C395   O464    1.273   .     A
C395   O470    1.274   .     A
C396   O465    1.270   .     A
C396   O471    1.273   .     A
C397   C400    1.459   .     S
C397   O456    1.281   .     A
C397   O454    1.278   .     A
C398   O455    1.283   .     A
C398   C399    1.490   .     S
C398   O457    1.294   .     A
C399   C403    1.397   .     A
C401   C407    1.534   .     S
C401   C414    1.429   .     A
C402   H452    1.111   .     S
C402   C404    1.532   .     S
C402   H1306   1.103   1_554 S
C403   C413    1.404   .     A
C403   H430    1.076   .     S
C404   H449    1.111   .     S
C404   H448    1.108   .     S
C405   H424    1.112   .     S
C405   H425    1.111   .     S
C405   C486    1.535   .     S
C405   C501    1.534   .     S
C406   H422    1.111   .     S
C406   H421    1.111   .     S
C407   H435    1.110   .     S
C407   C408    1.533   .     S
C407   H1289   1.105   .     S
C408   H431    1.107   .     S
C408   H432    1.111   .     S
C409   C410    1.530   .     S
C409   H439    1.108   .     S
C409   H440    1.107   .     S
C410   H437    1.111   .     S
C410   H436    1.109   .     S
C410   H438    1.111   .     S
C411   H446    1.112   .     S
C411   C417    1.532   .     S
C411   C412    1.530   .     S
C411   H445    1.104   .     S
C412   H444    1.111   .     S
C412   H443    1.109   .     S
C412   H442    1.111   .     S
C413   C414    1.421   .     A
C413   C415    1.427   .     A
C414   C1273   1.413   .     S
C415   C1271   1.415   .     S
C416   C417    1.424   .     A
C416   C1270   1.415   1_554 S
C417   C418    1.408   .     A
C418   O458    1.384   .     S
C418   C1269   1.413   1_554 S
H420   O459    0.990   .     S
H423   C501    1.110   .     S
H426   O745    0.990   .     S
H428   O462    0.989   .     S
H429   O463    0.991   .     S
H433   C503    1.111   .     S
H434   C1262   1.105   1_554 S
H447   O458    0.992   .     S
H450   C689    1.111   .     S
H451   C1257   1.103   .     S
O453   Zn473   1.951   .     S
O453   Zn474   1.934   .     S
O453   Zn472   1.953   .     S
O453   Zn475   1.931   .     S
O454   Zn473   1.915   .     S
O455   Zn475   1.924   .     S
O456   Zn474   1.923   .     S
O457   Zn472   1.913   .     S
O461   C679    1.385   .     S
O461   H712    0.992   .     S
O464   Zn472   1.937   .     S
O465   Zn475   1.936   .     S
O466   Zn473   1.935   .     S
O467   Zn474   1.945   .     S
O468   Zn475   1.945   .     S
O469   Zn472   1.936   .     S
O470   Zn473   1.938   .     S
O471   Zn474   1.935   .     S
C476   C486    1.435   .     S
C476   O563    1.263   .     A
C476   O561    1.269   .     A
C477   C510    1.414   .     A
C477   H536    1.077   .     S
C477   C478    1.404   .     A
C478   O558    1.383   .     S
C478   C1335   1.412   .     S
C479   O562    1.288   .     A
C479   C485    1.473   .     S
C479   O564    1.268   .     A
C480   C481    1.418   .     A
C480   C482    1.428   .     A
C480   C1333   1.412   1_554 S
C481   C484    1.398   .     A
C481   C511    1.422   .     A
C482   C483    1.413   .     A
C482   C497    1.527   .     S
C483   O557    1.385   .     S
C483   C495    1.413   .     A
C484   H514    1.079   .     S
C484   C495    1.387   .     A
C485   C296    1.363   1_655 S
C485   O364    1.389   1_655 S
C487   C504    1.526   .     S
C487   C496    1.420   .     A
C487   C494    1.421   .     A
C488   C491    1.467   .     S
C488   C774    1.346   .     S
C488   O840    1.388   .     S
C489   C490    1.438   .     S
C490   O559    1.273   .     A
C490   O565    1.274   .     A
C491   O560    1.270   .     A
C491   O566    1.273   .     A
C492   C495    1.459   .     S
C492   O551    1.281   .     A
C492   O549    1.278   .     A
C493   O550    1.283   .     A
C493   C494    1.490   .     S
C493   O552    1.294   .     A
C494   C498    1.397   .     A
C496   C502    1.534   .     S
C496   C509    1.429   .     A
C497   H547    1.111   .     S
C497   C499    1.532   .     S
C497   H1401   1.103   1_554 S
C498   C508    1.404   .     A
C498   H525    1.076   .     S
C499   H544    1.111   .     S
C499   H543    1.108   .     S
C500   H519    1.112   .     S
C500   H520    1.111   .     S
C500   C296    1.535   1_655 S
C500   C311    1.534   1_655 S
C501   H517    1.111   .     S
C501   H516    1.111   .     S
C502   H530    1.110   .     S
C502   C503    1.533   .     S
C502   H1384   1.105   .     S
C503   H526    1.107   .     S
C503   H527    1.111   .     S
C504   C505    1.530   .     S
C504   H534    1.108   .     S
C504   H535    1.107   .     S
C505   H532    1.111   .     S
C505   H531    1.109   .     S
C505   H533    1.111   .     S
C506   H541    1.112   .     S
C506   C512    1.532   .     S
C506   C507    1.530   .     S
C506   H540    1.104   .     S
C507   H539    1.111   .     S
C507   H538    1.109   .     S
C507   H537    1.111   .     S
C508   C509    1.421   .     A
C508   C510    1.427   .     A
C509   C1368   1.413   .     S
C510   C1366   1.415   .     S
C511   C512    1.424   .     A
C511   C1365   1.415   1_554 S
C512   C513    1.408   .     A
C513   O553    1.384   .     S
C513   C1364   1.413   1_554 S
H515   O554    0.990   .     S
H518   C311    1.110   1_655 S
H521   O840    0.990   .     S
H523   O557    0.989   .     S
H524   O558    0.991   .     S
H528   C313    1.111   1_655 S
H529   C1357   1.105   1_554 S
H542   O553    0.992   .     S
H545   C784    1.111   .     S
H546   C1352   1.103   .     S
O548   Zn568   1.951   .     S
O548   Zn569   1.934   .     S
O548   Zn567   1.953   .     S
O548   Zn570   1.931   .     S
O549   Zn568   1.915   .     S
O550   Zn570   1.924   .     S
O551   Zn569   1.923   .     S
O552   Zn567   1.913   .     S
O556   C774    1.385   .     S
O556   H807    0.992   .     S
O559   Zn567   1.937   .     S
O560   Zn570   1.936   .     S
O561   Zn568   1.935   .     S
O562   Zn569   1.945   .     S
O563   Zn570   1.945   .     S
O564   Zn567   1.936   .     S
O565   Zn568   1.938   .     S
O566   Zn569   1.935   .     S
C571   C581    1.435   .     S
C571   O658    1.263   .     A
C571   O656    1.269   .     A
C572   C605    1.414   .     A
C572   H631    1.077   .     S
C572   C573    1.404   .     A
C573   O653    1.383   .     S
C573   C1430   1.412   .     S
C574   O657    1.288   .     A
C574   C580    1.473   .     S
C574   O659    1.268   .     A
C575   C576    1.418   .     A
C575   C577    1.428   .     A
C575   C1428   1.412   1_554 S
C576   C579    1.398   .     A
C576   C606    1.422   .     A
C577   C578    1.413   .     A
C577   C592    1.527   .     S
C578   O652    1.385   .     S
C578   C590    1.413   .     A
C579   H609    1.079   .     S
C579   C590    1.387   .     A
C580   C676    1.363   .     S
C580   O744    1.389   .     S
C581   C770    1.363   1_455 S
C581   C785    1.535   1_455 S
C582   C599    1.526   .     S
C582   C591    1.420   .     A
C582   C589    1.421   .     A
C583   C586    1.467   .     S
C583   C14     1.346   1_565 S
C583   O80     1.388   1_565 S
C584   C585    1.438   .     S
C585   O654    1.273   .     A
C585   O660    1.274   .     A
C586   O655    1.270   .     A
C586   O661    1.273   .     A
C587   C590    1.459   .     S
C587   O646    1.281   .     A
C587   O644    1.278   .     A
C588   O645    1.283   .     A
C588   C589    1.490   .     S
C588   O647    1.294   .     A
C589   C593    1.397   .     A
C591   C597    1.534   .     S
C591   C604    1.429   .     A
C592   H642    1.111   .     S
C592   C594    1.532   .     S
C592   H1496   1.103   1_554 S
C593   C603    1.404   .     A
C593   H620    1.076   .     S
C594   H639    1.111   .     S
C594   H638    1.108   .     S
C595   H614    1.112   .     S
C595   H615    1.111   .     S
C595   C676    1.535   .     S
C595   C691    1.534   .     S
C596   H612    1.111   .     S
C596   H611    1.111   .     S
C596   C785    1.534   1_455 S
C596   H803    1.110   1_455 S
C597   H625    1.110   .     S
C597   C598    1.533   .     S
C597   H1479   1.105   .     S
C598   H621    1.107   .     S
C598   H622    1.111   .     S
C598   H813    1.111   1_455 S
C599   C600    1.530   .     S
C599   H629    1.108   .     S
C599   H630    1.107   .     S
C600   H627    1.111   .     S
C600   H626    1.109   .     S
C600   H628    1.111   .     S
C601   H636    1.112   .     S
C601   C607    1.532   .     S
C601   C602    1.530   .     S
C601   H635    1.104   .     S
C602   H634    1.111   .     S
C602   H633    1.109   .     S
C602   H632    1.111   .     S
C603   C604    1.421   .     A
C603   C605    1.427   .     A
C604   C1463   1.413   .     S
C605   C1461   1.415   .     S
C606   C607    1.424   .     A
C606   C1460   1.415   1_554 S
C607   C608    1.408   .     A
C608   O648    1.384   .     S
C608   C1459   1.413   1_554 S
H610   O649    0.990   .     S
H613   C691    1.110   .     S
H616   O80     0.990   1_565 S
H618   O652    0.989   .     S
H619   O653    0.991   .     S
H623   C693    1.111   .     S
H624   C1452   1.105   1_554 S
H637   O648    0.992   .     S
H640   C24     1.111   1_565 S
H641   C1447   1.103   .     S
O643   Zn663   1.951   .     S
O643   Zn664   1.934   .     S
O643   Zn662   1.953   .     S
O643   Zn665   1.931   .     S
O644   Zn663   1.915   .     S
O645   Zn665   1.924   .     S
O646   Zn664   1.923   .     S
O647   Zn662   1.913   .     S
O649   C770    1.389   1_455 S
O651   C14     1.385   1_565 S
O651   H47     0.992   1_565 S
O654   Zn662   1.937   .     S
O655   Zn665   1.936   .     S
O656   Zn663   1.935   .     S
O657   Zn664   1.945   .     S
O658   Zn665   1.945   .     S
O659   Zn662   1.936   .     S
O660   Zn663   1.938   .     S
O661   Zn664   1.935   .     S
C666   C676    1.435   .     S
C666   O753    1.263   .     A
C666   O751    1.269   .     A
C667   C700    1.414   .     A
C667   H726    1.077   .     S
C667   C668    1.404   .     A
C668   O748    1.383   .     S
C668   C1525   1.412   .     S
C669   O752    1.288   .     A
C669   C675    1.473   .     S
C669   O754    1.268   .     A
C670   C671    1.418   .     A
C670   C672    1.428   .     A
C670   C1523   1.412   1_554 S
C671   C674    1.398   .     A
C671   C701    1.422   .     A
C672   C673    1.413   .     A
C672   C687    1.527   .     S
C673   O747    1.385   .     S
C673   C685    1.413   .     A
C674   H704    1.079   .     S
C674   C685    1.387   .     A
C675   C771    1.363   .     S
C675   O839    1.389   .     S
C677   C694    1.526   .     S
C677   C686    1.420   .     A
C677   C684    1.421   .     A
C678   C681    1.467   .     S
C678   C109    1.346   1_565 S
C678   O175    1.388   1_565 S
C679   C680    1.438   .     S
C680   O749    1.273   .     A
C680   O755    1.274   .     A
C681   O750    1.270   .     A
C681   O756    1.273   .     A
C682   C685    1.459   .     S
C682   O741    1.281   .     A
C682   O739    1.278   .     A
C683   O740    1.283   .     A
C683   C684    1.490   .     S
C683   O742    1.294   .     A
C684   C688    1.397   .     A
C686   C692    1.534   .     S
C686   C699    1.429   .     A
C687   H737    1.111   .     S
C687   C689    1.532   .     S
C687   H1591   1.103   1_554 S
C688   C698    1.404   .     A
C688   H715    1.076   .     S
C689   H734    1.111   .     S
C689   H733    1.108   .     S
C690   H709    1.112   .     S
C690   H710    1.111   .     S
C690   C771    1.535   .     S
C690   C786    1.534   .     S
C691   H707    1.111   .     S
C691   H706    1.111   .     S
C692   H720    1.110   .     S
C692   C693    1.533   .     S
C692   H1574   1.105   .     S
C693   H716    1.107   .     S
C693   H717    1.111   .     S
C694   C695    1.530   .     S
C694   H724    1.108   .     S
C694   H725    1.107   .     S
C695   H722    1.111   .     S
C695   H721    1.109   .     S
C695   H723    1.111   .     S
C696   H731    1.112   .     S
C696   C702    1.532   .     S
C696   C697    1.530   .     S
C696   H730    1.104   .     S
C697   H729    1.111   .     S
C697   H728    1.109   .     S
C697   H727    1.111   .     S
C698   C699    1.421   .     A
C698   C700    1.427   .     A
C699   C1558   1.413   .     S
C700   C1556   1.415   .     S
C701   C702    1.424   .     A
C701   C1555   1.415   1_554 S
C702   C703    1.408   .     A
C703   O743    1.384   .     S
C703   C1554   1.413   1_554 S
H705   O744    0.990   .     S
H708   C786    1.110   .     S
H711   O175    0.990   1_565 S
H713   O747    0.989   .     S
H714   O748    0.991   .     S
H718   C788    1.111   .     S
H719   C1547   1.105   1_554 S
H732   O743    0.992   .     S
H735   C119    1.111   1_565 S
H736   C1542   1.103   .     S
O738   Zn758   1.951   .     S
O738   Zn759   1.934   .     S
O738   Zn757   1.953   .     S
O738   Zn760   1.931   .     S
O739   Zn758   1.915   .     S
O740   Zn760   1.924   .     S
O741   Zn759   1.923   .     S
O742   Zn757   1.913   .     S
O746   C109    1.385   1_565 S
O746   H142    0.992   1_565 S
O749   Zn757   1.937   .     S
O750   Zn760   1.936   .     S
O751   Zn758   1.935   .     S
O752   Zn759   1.945   .     S
O753   Zn760   1.945   .     S
O754   Zn757   1.936   .     S
O755   Zn758   1.938   .     S
O756   Zn759   1.935   .     S
C761   C771    1.435   .     S
C761   O848    1.263   .     A
C761   O846    1.269   .     A
C762   C795    1.414   .     A
C762   H821    1.077   .     S
C762   C763    1.404   .     A
C763   O843    1.383   .     S
C763   C1620   1.412   .     S
C764   O847    1.288   .     A
C764   C770    1.473   .     S
C764   O849    1.268   .     A
C765   C766    1.418   .     A
C765   C767    1.428   .     A
C765   C1618   1.412   1_554 S
C766   C769    1.398   .     A
C766   C796    1.422   .     A
C767   C768    1.413   .     A
C767   C782    1.527   .     S
C768   O842    1.385   .     S
C768   C780    1.413   .     A
C769   H799    1.079   .     S
C769   C780    1.387   .     A
C770   C581    1.363   1_655 S
C770   O649    1.389   1_655 S
C772   C789    1.526   .     S
C772   C781    1.420   .     A
C772   C779    1.421   .     A
C773   C776    1.467   .     S
C773   C204    1.346   1_565 S
C773   O270    1.388   1_565 S
C774   C775    1.438   .     S
C775   O844    1.273   .     A
C775   O850    1.274   .     A
C776   O845    1.270   .     A
C776   O851    1.273   .     A
C777   C780    1.459   .     S
C777   O836    1.281   .     A
C777   O834    1.278   .     A
C778   O835    1.283   .     A
C778   C779    1.490   .     S
C778   O837    1.294   .     A
C779   C783    1.397   .     A
C781   C787    1.534   .     S
C781   C794    1.429   .     A
C782   H832    1.111   .     S
C782   C784    1.532   .     S
C782   H1686   1.103   1_554 S
C783   C793    1.404   .     A
C783   H810    1.076   .     S
C784   H829    1.111   .     S
C784   H828    1.108   .     S
C785   H804    1.112   .     S
C785   H805    1.111   .     S
C785   C581    1.535   1_655 S
C785   C596    1.534   1_655 S
C786   H802    1.111   .     S
C786   H801    1.111   .     S
C787   H815    1.110   .     S
C787   C788    1.533   .     S
C787   H1669   1.105   .     S
C788   H811    1.107   .     S
C788   H812    1.111   .     S
C789   C790    1.530   .     S
C789   H819    1.108   .     S
C789   H820    1.107   .     S
C790   H817    1.111   .     S
C790   H816    1.109   .     S
C790   H818    1.111   .     S
C791   H826    1.112   .     S
C791   C797    1.532   .     S
C791   C792    1.530   .     S
C791   H825    1.104   .     S
C792   H824    1.111   .     S
C792   H823    1.109   .     S
C792   H822    1.111   .     S
C793   C794    1.421   .     A
C793   C795    1.427   .     A
C794   C1653   1.413   .     S
C795   C1651   1.415   .     S
C796   C797    1.424   .     A
C796   C1650   1.415   1_554 S
C797   C798    1.408   .     A
C798   O838    1.384   .     S
C798   C1649   1.413   1_554 S
H800   O839    0.990   .     S
H803   C596    1.110   1_655 S
H806   O270    0.990   1_565 S
H808   O842    0.989   .     S
H809   O843    0.991   .     S
H813   C598    1.111   1_655 S
H814   C1642   1.105   1_554 S
H827   O838    0.992   .     S
H830   C214    1.111   1_565 S
H831   C1637   1.103   .     S
O833   Zn853   1.951   .     S
O833   Zn854   1.934   .     S
O833   Zn852   1.953   .     S
O833   Zn855   1.931   .     S
O834   Zn853   1.915   .     S
O835   Zn855   1.924   .     S
O836   Zn854   1.923   .     S
O837   Zn852   1.913   .     S
O841   C204    1.385   1_565 S
O841   H237    0.992   1_565 S
O844   Zn852   1.937   .     S
O845   Zn855   1.936   .     S
O846   Zn853   1.935   .     S
O847   Zn854   1.945   .     S
O848   Zn855   1.945   .     S
O849   Zn852   1.936   .     S
O850   Zn853   1.938   .     S
O851   Zn854   1.935   .     S
C856   C866    1.435   .     S
C856   O943    1.263   .     A
C856   O941    1.269   .     A
C857   C890    1.414   .     A
C857   H916    1.077   .     S
C857   C858    1.404   .     A
C858   O938    1.383   .     S
C858   C5      1.412   1_556 S
C859   O942    1.288   .     A
C859   C865    1.473   .     S
C859   O944    1.268   .     A
C860   C861    1.418   .     A
C860   C862    1.428   .     A
C861   C864    1.398   .     A
C861   C891    1.422   .     A
C862   C863    1.413   .     A
C862   C877    1.527   .     S
C863   O937    1.385   .     S
C863   C875    1.413   .     A
C864   H894    1.079   .     S
C864   C875    1.387   .     A
C865   C961    1.363   .     S
C865   O1029   1.389   .     S
C866   C1055   1.363   1_455 S
C866   C1070   1.535   1_455 S
C867   C884    1.526   .     S
C867   C876    1.420   .     A
C867   C874    1.421   .     A
C868   C871    1.467   .     S
C868   C1154   1.346   .     S
C868   O1220   1.388   .     S
C869   C870    1.438   .     S
C869   C1438   1.346   1_545 S
C869   O1506   1.385   1_545 S
C870   O939    1.273   .     A
C870   O945    1.274   .     A
C871   O940    1.270   .     A
C871   O946    1.273   .     A
C872   C875    1.459   .     S
C872   O931    1.281   .     A
C872   O929    1.278   .     A
C873   O930    1.283   .     A
C873   C874    1.490   .     S
C873   O932    1.294   .     A
C874   C878    1.397   .     A
C876   C882    1.534   .     S
C876   C889    1.429   .     A
C877   H927    1.111   .     S
C877   C879    1.532   .     S
C878   C888    1.404   .     A
C878   H905    1.076   .     S
C879   H924    1.111   .     S
C879   H923    1.108   .     S
C879   H1495   1.111   1_545 S
C880   H899    1.112   .     S
C880   H900    1.111   .     S
C880   C961    1.535   .     S
C880   C976    1.534   .     S
C881   H897    1.111   .     S
C881   H896    1.111   .     S
C881   C1070   1.534   1_455 S
C881   H1088   1.110   1_455 S
C882   H910    1.110   .     S
C882   C883    1.533   .     S
C882   H54     1.105   1_556 S
C883   H906    1.107   .     S
C883   H907    1.111   .     S
C883   H1098   1.111   1_455 S
C884   C885    1.530   .     S
C884   H914    1.108   .     S
C884   H915    1.107   .     S
C885   H912    1.111   .     S
C885   H911    1.109   .     S
C885   H913    1.111   .     S
C886   H921    1.112   .     S
C886   C892    1.532   .     S
C886   C887    1.530   .     S
C886   H920    1.104   .     S
C887   H919    1.111   .     S
C887   H918    1.109   .     S
C887   H917    1.111   .     S
C888   C889    1.421   .     A
C888   C890    1.427   .     A
C889   C38     1.413   1_556 S
C890   C36     1.415   1_556 S
C891   C892    1.424   .     A
C892   C893    1.408   .     A
C893   O933    1.384   .     S
H895   O934    0.990   .     S
H898   C976    1.110   .     S
H901   O1220   0.990   .     S
H902   O1506   0.992   1_545 S
H903   O937    0.989   .     S
H904   O938    0.991   .     S
H908   C978    1.111   .     S
H922   O933    0.992   .     S
H925   C1164   1.111   .     S
H926   C22     1.103   1_556 S
O928   Zn948   1.951   .     S
O928   Zn949   1.934   .     S
O928   Zn947   1.953   .     S
O928   Zn950   1.931   .     S
O929   Zn948   1.915   .     S
O930   Zn950   1.924   .     S
O931   Zn949   1.923   .     S
O932   Zn947   1.913   .     S
O934   C1055   1.389   1_455 S
O935   C1438   1.388   1_545 S
O935   H1471   0.990   1_545 S
O936   C1154   1.385   .     S
O936   H1187   0.992   .     S
O939   Zn947   1.937   .     S
O940   Zn950   1.936   .     S
O941   Zn948   1.935   .     S
O942   Zn949   1.945   .     S
O943   Zn950   1.945   .     S
O944   Zn947   1.936   .     S
O945   Zn948   1.938   .     S
O946   Zn949   1.935   .     S
C951   C961    1.435   .     S
C951   O1038   1.263   .     A
C951   O1036   1.269   .     A
C952   C985    1.414   .     A
C952   H1011   1.077   .     S
C952   C953    1.404   .     A
C953   O1033   1.383   .     S
C953   C100    1.412   1_556 S
C954   O1037   1.288   .     A
C954   C960    1.473   .     S
C954   O1039   1.268   .     A
C955   C956    1.418   .     A
C955   C957    1.428   .     A
C956   C959    1.398   .     A
C956   C986    1.422   .     A
C957   C958    1.413   .     A
C957   C972    1.527   .     S
C958   O1032   1.385   .     S
C958   C970    1.413   .     A
C959   H989    1.079   .     S
C959   C970    1.387   .     A
C960   C1056   1.363   .     S
C960   O1124   1.389   .     S
C962   C979    1.526   .     S
C962   C971    1.420   .     A
C962   C969    1.421   .     A
C963   C966    1.467   .     S
C963   C1249   1.346   .     S
C963   O1315   1.388   .     S
C964   C965    1.438   .     S
C964   C1533   1.346   1_545 S
C964   O1601   1.385   1_545 S
C965   O1034   1.273   .     A
C965   O1040   1.274   .     A
C966   O1035   1.270   .     A
C966   O1041   1.273   .     A
C967   C970    1.459   .     S
C967   O1026   1.281   .     A
C967   O1024   1.278   .     A
C968   O1025   1.283   .     A
C968   C969    1.490   .     S
C968   O1027   1.294   .     A
C969   C973    1.397   .     A
C971   C977    1.534   .     S
C971   C984    1.429   .     A
C972   H1022   1.111   .     S
C972   C974    1.532   .     S
C973   C983    1.404   .     A
C973   H1000   1.076   .     S
C974   H1019   1.111   .     S
C974   H1018   1.108   .     S
C974   H1590   1.111   1_545 S
C975   H994    1.112   .     S
C975   H995    1.111   .     S
C975   C1056   1.535   .     S
C975   C1071   1.534   .     S
C976   H992    1.111   .     S
C976   H991    1.111   .     S
C977   H1005   1.110   .     S
C977   C978    1.533   .     S
C977   H149    1.105   1_556 S
C978   H1001   1.107   .     S
C978   H1002   1.111   .     S
C979   C980    1.530   .     S
C979   H1009   1.108   .     S
C979   H1010   1.107   .     S
C980   H1007   1.111   .     S
C980   H1006   1.109   .     S
C980   H1008   1.111   .     S
C981   H1016   1.112   .     S
C981   C987    1.532   .     S
C981   C982    1.530   .     S
C981   H1015   1.104   .     S
C982   H1014   1.111   .     S
C982   H1013   1.109   .     S
C982   H1012   1.111   .     S
C983   C984    1.421   .     A
C983   C985    1.427   .     A
C984   C133    1.413   1_556 S
C985   C131    1.415   1_556 S
C986   C987    1.424   .     A
C987   C988    1.408   .     A
C988   O1028   1.384   .     S
H990   O1029   0.990   .     S
H993   C1071   1.110   .     S
H996   O1315   0.990   .     S
H997   O1601   0.992   1_545 S
H998   O1032   0.989   .     S
H999   O1033   0.991   .     S
H1003  C1073   1.111   .     S
H1017  O1028   0.992   .     S
H1020  C1259   1.111   .     S
H1021  C117    1.103   1_556 S
O1023  Zn1043  1.951   .     S
O1023  Zn1044  1.934   .     S
O1023  Zn1042  1.953   .     S
O1023  Zn1045  1.931   .     S
O1024  Zn1043  1.915   .     S
O1025  Zn1045  1.924   .     S
O1026  Zn1044  1.923   .     S
O1027  Zn1042  1.913   .     S
O1030  C1533   1.388   1_545 S
O1030  H1566   0.990   1_545 S
O1031  C1249   1.385   .     S
O1031  H1282   0.992   .     S
O1034  Zn1042  1.937   .     S
O1035  Zn1045  1.936   .     S
O1036  Zn1043  1.935   .     S
O1037  Zn1044  1.945   .     S
O1038  Zn1045  1.945   .     S
O1039  Zn1042  1.936   .     S
O1040  Zn1043  1.938   .     S
O1041  Zn1044  1.935   .     S
C1046  C1056   1.435   .     S
C1046  O1133   1.263   .     A
C1046  O1131   1.269   .     A
C1047  C1080   1.414   .     A
C1047  H1106   1.077   .     S
C1047  C1048   1.404   .     A
C1048  O1128   1.383   .     S
C1048  C195    1.412   1_556 S
C1049  O1132   1.288   .     A
C1049  C1055   1.473   .     S
C1049  O1134   1.268   .     A
C1050  C1051   1.418   .     A
C1050  C1052   1.428   .     A
C1051  C1054   1.398   .     A
C1051  C1081   1.422   .     A
C1052  C1053   1.413   .     A
C1052  C1067   1.527   .     S
C1053  O1127   1.385   .     S
C1053  C1065   1.413   .     A
C1054  H1084   1.079   .     S
C1054  C1065   1.387   .     A
C1055  C866    1.363   1_655 S
C1055  O934    1.389   1_655 S
C1057  C1074   1.526   .     S
C1057  C1066   1.420   .     A
C1057  C1064   1.421   .     A
C1058  C1061   1.467   .     S
C1058  C1344   1.346   .     S
C1058  O1410   1.388   .     S
C1059  C1060   1.438   .     S
C1059  C1628   1.346   1_545 S
C1059  O1696   1.385   1_545 S
C1060  O1129   1.273   .     A
C1060  O1135   1.274   .     A
C1061  O1130   1.270   .     A
C1061  O1136   1.273   .     A
C1062  C1065   1.459   .     S
C1062  O1121   1.281   .     A
C1062  O1119   1.278   .     A
C1063  O1120   1.283   .     A
C1063  C1064   1.490   .     S
C1063  O1122   1.294   .     A
C1064  C1068   1.397   .     A
C1066  C1072   1.534   .     S
C1066  C1079   1.429   .     A
C1067  H1117   1.111   .     S
C1067  C1069   1.532   .     S
C1068  C1078   1.404   .     A
C1068  H1095   1.076   .     S
C1069  H1114   1.111   .     S
C1069  H1113   1.108   .     S
C1069  H1685   1.111   1_545 S
C1070  H1089   1.112   .     S
C1070  H1090   1.111   .     S
C1070  C866    1.535   1_655 S
C1070  C881    1.534   1_655 S
C1071  H1087   1.111   .     S
C1071  H1086   1.111   .     S
C1072  H1100   1.110   .     S
C1072  C1073   1.533   .     S
C1072  H244    1.105   1_556 S
C1073  H1096   1.107   .     S
C1073  H1097   1.111   .     S
C1074  C1075   1.530   .     S
C1074  H1104   1.108   .     S
C1074  H1105   1.107   .     S
C1075  H1102   1.111   .     S
C1075  H1101   1.109   .     S
C1075  H1103   1.111   .     S
C1076  H1111   1.112   .     S
C1076  C1082   1.532   .     S
C1076  C1077   1.530   .     S
C1076  H1110   1.104   .     S
C1077  H1109   1.111   .     S
C1077  H1108   1.109   .     S
C1077  H1107   1.111   .     S
C1078  C1079   1.421   .     A
C1078  C1080   1.427   .     A
C1079  C228    1.413   1_556 S
C1080  C226    1.415   1_556 S
C1081  C1082   1.424   .     A
C1082  C1083   1.408   .     A
C1083  O1123   1.384   .     S
H1085  O1124   0.990   .     S
H1088  C881    1.110   1_655 S
H1091  O1410   0.990   .     S
H1092  O1696   0.992   1_545 S
H1093  O1127   0.989   .     S
H1094  O1128   0.991   .     S
H1098  C883    1.111   1_655 S
H1112  O1123   0.992   .     S
H1115  C1354   1.111   .     S
H1116  C212    1.103   1_556 S
O1118  Zn1138  1.951   .     S
O1118  Zn1139  1.934   .     S
O1118  Zn1137  1.953   .     S
O1118  Zn1140  1.931   .     S
O1119  Zn1138  1.915   .     S
O1120  Zn1140  1.924   .     S
O1121  Zn1139  1.923   .     S
O1122  Zn1137  1.913   .     S
O1125  C1628   1.388   1_545 S
O1125  H1661   0.990   1_545 S
O1126  C1344   1.385   .     S
O1126  H1377   0.992   .     S
O1129  Zn1137  1.937   .     S
O1130  Zn1140  1.936   .     S
O1131  Zn1138  1.935   .     S
O1132  Zn1139  1.945   .     S
O1133  Zn1140  1.945   .     S
O1134  Zn1137  1.936   .     S
O1135  Zn1138  1.938   .     S
O1136  Zn1139  1.935   .     S
C1141  C1151   1.435   .     S
C1141  O1228   1.263   .     A
C1141  O1226   1.269   .     A
C1142  C1175   1.414   .     A
C1142  H1201   1.077   .     S
C1142  C1143   1.404   .     A
C1143  O1223   1.383   .     S
C1143  C290    1.412   1_556 S
C1144  O1227   1.288   .     A
C1144  C1150   1.473   .     S
C1144  O1229   1.268   .     A
C1145  C1146   1.418   .     A
C1145  C1147   1.428   .     A
C1146  C1149   1.398   .     A
C1146  C1176   1.422   .     A
C1147  C1148   1.413   .     A
C1147  C1162   1.527   .     S
C1148  O1222   1.385   .     S
C1148  C1160   1.413   .     A
C1149  H1179   1.079   .     S
C1149  C1160   1.387   .     A
C1150  C1246   1.363   .     S
C1150  O1314   1.389   .     S
C1151  C1340   1.363   1_455 S
C1151  C1355   1.535   1_455 S
C1152  C1169   1.526   .     S
C1152  C1161   1.420   .     A
C1152  C1159   1.421   .     A
C1153  C1156   1.467   .     S
C1153  C1439   1.346   .     S
C1153  O1505   1.388   .     S
C1154  C1155   1.438   .     S
C1155  O1224   1.273   .     A
C1155  O1230   1.274   .     A
C1156  O1225   1.270   .     A
C1156  O1231   1.273   .     A
C1157  C1160   1.459   .     S
C1157  O1216   1.281   .     A
C1157  O1214   1.278   .     A
C1158  O1215   1.283   .     A
C1158  C1159   1.490   .     S
C1158  O1217   1.294   .     A
C1159  C1163   1.397   .     A
C1161  C1167   1.534   .     S
C1161  C1174   1.429   .     A
C1162  H1212   1.111   .     S
C1162  C1164   1.532   .     S
C1163  C1173   1.404   .     A
C1163  H1190   1.076   .     S
C1164  H1209   1.111   .     S
C1164  H1208   1.108   .     S
C1165  H1184   1.112   .     S
C1165  H1185   1.111   .     S
C1165  C1246   1.535   .     S
C1165  C1261   1.534   .     S
C1166  H1182   1.111   .     S
C1166  H1181   1.111   .     S
C1166  C1355   1.534   1_455 S
C1166  H1373   1.110   1_455 S
C1167  H1195   1.110   .     S
C1167  C1168   1.533   .     S
C1167  H339    1.105   1_556 S
C1168  H1191   1.107   .     S
C1168  H1192   1.111   .     S
C1168  H1383   1.111   1_455 S
C1169  C1170   1.530   .     S
C1169  H1199   1.108   .     S
C1169  H1200   1.107   .     S
C1170  H1197   1.111   .     S
C1170  H1196   1.109   .     S
C1170  H1198   1.111   .     S
C1171  H1206   1.112   .     S
C1171  C1177   1.532   .     S
C1171  C1172   1.530   .     S
C1171  H1205   1.104   .     S
C1172  H1204   1.111   .     S
C1172  H1203   1.109   .     S
C1172  H1202   1.111   .     S
C1173  C1174   1.421   .     A
C1173  C1175   1.427   .     A
C1174  C323    1.413   1_556 S
C1175  C321    1.415   1_556 S
C1176  C1177   1.424   .     A
C1177  C1178   1.408   .     A
C1178  O1218   1.384   .     S
H1180  O1219   0.990   .     S
H1183  C1261   1.110   .     S
H1186  O1505   0.990   .     S
H1188  O1222   0.989   .     S
H1189  O1223   0.991   .     S
H1193  C1263   1.111   .     S
H1207  O1218   0.992   .     S
H1210  C1449   1.111   .     S
H1211  C307    1.103   1_556 S
O1213  Zn1233  1.951   .     S
O1213  Zn1234  1.934   .     S
O1213  Zn1232  1.953   .     S
O1213  Zn1235  1.931   .     S
O1214  Zn1233  1.915   .     S
O1215  Zn1235  1.924   .     S
O1216  Zn1234  1.923   .     S
O1217  Zn1232  1.913   .     S
O1219  C1340   1.389   1_455 S
O1221  C1439   1.385   .     S
O1221  H1472   0.992   .     S
O1224  Zn1232  1.937   .     S
O1225  Zn1235  1.936   .     S
O1226  Zn1233  1.935   .     S
O1227  Zn1234  1.945   .     S
O1228  Zn1235  1.945   .     S
O1229  Zn1232  1.936   .     S
O1230  Zn1233  1.938   .     S
O1231  Zn1234  1.935   .     S
C1236  C1246   1.435   .     S
C1236  O1323   1.263   .     A
C1236  O1321   1.269   .     A
C1237  C1270   1.414   .     A
C1237  H1296   1.077   .     S
C1237  C1238   1.404   .     A
C1238  O1318   1.383   .     S
C1238  C385    1.412   1_556 S
C1239  O1322   1.288   .     A
C1239  C1245   1.473   .     S
C1239  O1324   1.268   .     A
C1240  C1241   1.418   .     A
C1240  C1242   1.428   .     A
C1241  C1244   1.398   .     A
C1241  C1271   1.422   .     A
C1242  C1243   1.413   .     A
C1242  C1257   1.527   .     S
C1243  O1317   1.385   .     S
C1243  C1255   1.413   .     A
C1244  H1274   1.079   .     S
C1244  C1255   1.387   .     A
C1245  C1341   1.363   .     S
C1245  O1409   1.389   .     S
C1247  C1264   1.526   .     S
C1247  C1256   1.420   .     A
C1247  C1254   1.421   .     A
C1248  C1251   1.467   .     S
C1248  C1534   1.346   .     S
C1248  O1600   1.388   .     S
C1249  C1250   1.438   .     S
C1250  O1319   1.273   .     A
C1250  O1325   1.274   .     A
C1251  O1320   1.270   .     A
C1251  O1326   1.273   .     A
C1252  C1255   1.459   .     S
C1252  O1311   1.281   .     A
C1252  O1309   1.278   .     A
C1253  O1310   1.283   .     A
C1253  C1254   1.490   .     S
C1253  O1312   1.294   .     A
C1254  C1258   1.397   .     A
C1256  C1262   1.534   .     S
C1256  C1269   1.429   .     A
C1257  H1307   1.111   .     S
C1257  C1259   1.532   .     S
C1258  C1268   1.404   .     A
C1258  H1285   1.076   .     S
C1259  H1304   1.111   .     S
C1259  H1303   1.108   .     S
C1260  H1279   1.112   .     S
C1260  H1280   1.111   .     S
C1260  C1341   1.535   .     S
C1260  C1356   1.534   .     S
C1261  H1277   1.111   .     S
C1261  H1276   1.111   .     S
C1262  H1290   1.110   .     S
C1262  C1263   1.533   .     S
C1262  H434    1.105   1_556 S
C1263  H1286   1.107   .     S
C1263  H1287   1.111   .     S
C1264  C1265   1.530   .     S
C1264  H1294   1.108   .     S
C1264  H1295   1.107   .     S
C1265  H1292   1.111   .     S
C1265  H1291   1.109   .     S
C1265  H1293   1.111   .     S
C1266  H1301   1.112   .     S
C1266  C1272   1.532   .     S
C1266  C1267   1.530   .     S
C1266  H1300   1.104   .     S
C1267  H1299   1.111   .     S
C1267  H1298   1.109   .     S
C1267  H1297   1.111   .     S
C1268  C1269   1.421   .     A
C1268  C1270   1.427   .     A
C1269  C418    1.413   1_556 S
C1270  C416    1.415   1_556 S
C1271  C1272   1.424   .     A
C1272  C1273   1.408   .     A
C1273  O1313   1.384   .     S
H1275  O1314   0.990   .     S
H1278  C1356   1.110   .     S
H1281  O1600   0.990   .     S
H1283  O1317   0.989   .     S
H1284  O1318   0.991   .     S
H1288  C1358   1.111   .     S
H1302  O1313   0.992   .     S
H1305  C1544   1.111   .     S
H1306  C402    1.103   1_556 S
O1308  Zn1328  1.951   .     S
O1308  Zn1329  1.934   .     S
O1308  Zn1327  1.953   .     S
O1308  Zn1330  1.931   .     S
O1309  Zn1328  1.915   .     S
O1310  Zn1330  1.924   .     S
O1311  Zn1329  1.923   .     S
O1312  Zn1327  1.913   .     S
O1316  C1534   1.385   .     S
O1316  H1567   0.992   .     S
O1319  Zn1327  1.937   .     S
O1320  Zn1330  1.936   .     S
O1321  Zn1328  1.935   .     S
O1322  Zn1329  1.945   .     S
O1323  Zn1330  1.945   .     S
O1324  Zn1327  1.936   .     S
O1325  Zn1328  1.938   .     S
O1326  Zn1329  1.935   .     S
C1331  C1341   1.435   .     S
C1331  O1418   1.263   .     A
C1331  O1416   1.269   .     A
C1332  C1365   1.414   .     A
C1332  H1391   1.077   .     S
C1332  C1333   1.404   .     A
C1333  O1413   1.383   .     S
C1333  C480    1.412   1_556 S
C1334  O1417   1.288   .     A
C1334  C1340   1.473   .     S
C1334  O1419   1.268   .     A
C1335  C1336   1.418   .     A
C1335  C1337   1.428   .     A
C1336  C1339   1.398   .     A
C1336  C1366   1.422   .     A
C1337  C1338   1.413   .     A
C1337  C1352   1.527   .     S
C1338  O1412   1.385   .     S
C1338  C1350   1.413   .     A
C1339  H1369   1.079   .     S
C1339  C1350   1.387   .     A
C1340  C1151   1.363   1_655 S
C1340  O1219   1.389   1_655 S
C1342  C1359   1.526   .     S
C1342  C1351   1.420   .     A
C1342  C1349   1.421   .     A
C1343  C1346   1.467   .     S
C1343  C1629   1.346   .     S
C1343  O1695   1.388   .     S
C1344  C1345   1.438   .     S
C1345  O1414   1.273   .     A
C1345  O1420   1.274   .     A
C1346  O1415   1.270   .     A
C1346  O1421   1.273   .     A
C1347  C1350   1.459   .     S
C1347  O1406   1.281   .     A
C1347  O1404   1.278   .     A
C1348  O1405   1.283   .     A
C1348  C1349   1.490   .     S
C1348  O1407   1.294   .     A
C1349  C1353   1.397   .     A
C1351  C1357   1.534   .     S
C1351  C1364   1.429   .     A
C1352  H1402   1.111   .     S
C1352  C1354   1.532   .     S
C1353  C1363   1.404   .     A
C1353  H1380   1.076   .     S
C1354  H1399   1.111   .     S
C1354  H1398   1.108   .     S
C1355  H1374   1.112   .     S
C1355  H1375   1.111   .     S
C1355  C1151   1.535   1_655 S
C1355  C1166   1.534   1_655 S
C1356  H1372   1.111   .     S
C1356  H1371   1.111   .     S
C1357  H1385   1.110   .     S
C1357  C1358   1.533   .     S
C1357  H529    1.105   1_556 S
C1358  H1381   1.107   .     S
C1358  H1382   1.111   .     S
C1359  C1360   1.530   .     S
C1359  H1389   1.108   .     S
C1359  H1390   1.107   .     S
C1360  H1387   1.111   .     S
C1360  H1386   1.109   .     S
C1360  H1388   1.111   .     S
C1361  H1396   1.112   .     S
C1361  C1367   1.532   .     S
C1361  C1362   1.530   .     S
C1361  H1395   1.104   .     S
C1362  H1394   1.111   .     S
C1362  H1393   1.109   .     S
C1362  H1392   1.111   .     S
C1363  C1364   1.421   .     A
C1363  C1365   1.427   .     A
C1364  C513    1.413   1_556 S
C1365  C511    1.415   1_556 S
C1366  C1367   1.424   .     A
C1367  C1368   1.408   .     A
C1368  O1408   1.384   .     S
H1370  O1409   0.990   .     S
H1373  C1166   1.110   1_655 S
H1376  O1695   0.990   .     S
H1378  O1412   0.989   .     S
H1379  O1413   0.991   .     S
H1383  C1168   1.111   1_655 S
H1397  O1408   0.992   .     S
H1400  C1639   1.111   .     S
H1401  C497    1.103   1_556 S
O1403  Zn1423  1.951   .     S
O1403  Zn1424  1.934   .     S
O1403  Zn1422  1.953   .     S
O1403  Zn1425  1.931   .     S
O1404  Zn1423  1.915   .     S
O1405  Zn1425  1.924   .     S
O1406  Zn1424  1.923   .     S
O1407  Zn1422  1.913   .     S
O1411  C1629   1.385   .     S
O1411  H1662   0.992   .     S
O1414  Zn1422  1.937   .     S
O1415  Zn1425  1.936   .     S
O1416  Zn1423  1.935   .     S
O1417  Zn1424  1.945   .     S
O1418  Zn1425  1.945   .     S
O1419  Zn1422  1.936   .     S
O1420  Zn1423  1.938   .     S
O1421  Zn1424  1.935   .     S
C1426  C1436   1.435   .     S
C1426  O1513   1.263   .     A
C1426  O1511   1.269   .     A
C1427  C1460   1.414   .     A
C1427  H1486   1.077   .     S
C1427  C1428   1.404   .     A
C1428  O1508   1.383   .     S
C1428  C575    1.412   1_556 S
C1429  O1512   1.288   .     A
C1429  C1435   1.473   .     S
C1429  O1514   1.268   .     A
C1430  C1431   1.418   .     A
C1430  C1432   1.428   .     A
C1431  C1434   1.398   .     A
C1431  C1461   1.422   .     A
C1432  C1433   1.413   .     A
C1432  C1447   1.527   .     S
C1433  O1507   1.385   .     S
C1433  C1445   1.413   .     A
C1434  H1464   1.079   .     S
C1434  C1445   1.387   .     A
C1435  C1531   1.363   .     S
C1435  O1599   1.389   .     S
C1436  C1625   1.363   1_455 S
C1436  C1640   1.535   1_455 S
C1437  C1454   1.526   .     S
C1437  C1446   1.420   .     A
C1437  C1444   1.421   .     A
C1438  C1441   1.467   .     S
C1438  C869    1.346   1_565 S
C1438  O935    1.388   1_565 S
C1439  C1440   1.438   .     S
C1440  O1509   1.273   .     A
C1440  O1515   1.274   .     A
C1441  O1510   1.270   .     A
C1441  O1516   1.273   .     A
C1442  C1445   1.459   .     S
C1442  O1501   1.281   .     A
C1442  O1499   1.278   .     A
C1443  O1500   1.283   .     A
C1443  C1444   1.490   .     S
C1443  O1502   1.294   .     A
C1444  C1448   1.397   .     A
C1446  C1452   1.534   .     S
C1446  C1459   1.429   .     A
C1447  H1497   1.111   .     S
C1447  C1449   1.532   .     S
C1448  C1458   1.404   .     A
C1448  H1475   1.076   .     S
C1449  H1494   1.111   .     S
C1449  H1493   1.108   .     S
C1450  H1469   1.112   .     S
C1450  H1470   1.111   .     S
C1450  C1531   1.535   .     S
C1450  C1546   1.534   .     S
C1451  H1467   1.111   .     S
C1451  H1466   1.111   .     S
C1451  C1640   1.534   1_455 S
C1451  H1658   1.110   1_455 S
C1452  H1480   1.110   .     S
C1452  C1453   1.533   .     S
C1452  H624    1.105   1_556 S
C1453  H1476   1.107   .     S
C1453  H1477   1.111   .     S
C1453  H1668   1.111   1_455 S
C1454  C1455   1.530   .     S
C1454  H1484   1.108   .     S
C1454  H1485   1.107   .     S
C1455  H1482   1.111   .     S
C1455  H1481   1.109   .     S
C1455  H1483   1.111   .     S
C1456  H1491   1.112   .     S
C1456  C1462   1.532   .     S
C1456  C1457   1.530   .     S
C1456  H1490   1.104   .     S
C1457  H1489   1.111   .     S
C1457  H1488   1.109   .     S
C1457  H1487   1.111   .     S
C1458  C1459   1.421   .     A
C1458  C1460   1.427   .     A
C1459  C608    1.413   1_556 S
C1460  C606    1.415   1_556 S
C1461  C1462   1.424   .     A
C1462  C1463   1.408   .     A
C1463  O1503   1.384   .     S
H1465  O1504   0.990   .     S
H1468  C1546   1.110   .     S
H1471  O935    0.990   1_565 S
H1473  O1507   0.989   .     S
H1474  O1508   0.991   .     S
H1478  C1548   1.111   .     S
H1492  O1503   0.992   .     S
H1495  C879    1.111   1_565 S
H1496  C592    1.103   1_556 S
O1498  Zn1518  1.951   .     S
O1498  Zn1519  1.934   .     S
O1498  Zn1517  1.953   .     S
O1498  Zn1520  1.931   .     S
O1499  Zn1518  1.915   .     S
O1500  Zn1520  1.924   .     S
O1501  Zn1519  1.923   .     S
O1502  Zn1517  1.913   .     S
O1504  C1625   1.389   1_455 S
O1506  C869    1.385   1_565 S
O1506  H902    0.992   1_565 S
O1509  Zn1517  1.937   .     S
O1510  Zn1520  1.936   .     S
O1511  Zn1518  1.935   .     S
O1512  Zn1519  1.945   .     S
O1513  Zn1520  1.945   .     S
O1514  Zn1517  1.936   .     S
O1515  Zn1518  1.938   .     S
O1516  Zn1519  1.935   .     S
C1521  C1531   1.435   .     S
C1521  O1608   1.263   .     A
C1521  O1606   1.269   .     A
C1522  C1555   1.414   .     A
C1522  H1581   1.077   .     S
C1522  C1523   1.404   .     A
C1523  O1603   1.383   .     S
C1523  C670    1.412   1_556 S
C1524  O1607   1.288   .     A
C1524  C1530   1.473   .     S
C1524  O1609   1.268   .     A
C1525  C1526   1.418   .     A
C1525  C1527   1.428   .     A
C1526  C1529   1.398   .     A
C1526  C1556   1.422   .     A
C1527  C1528   1.413   .     A
C1527  C1542   1.527   .     S
C1528  O1602   1.385   .     S
C1528  C1540   1.413   .     A
C1529  H1559   1.079   .     S
C1529  C1540   1.387   .     A
C1530  C1626   1.363   .     S
C1530  O1694   1.389   .     S
C1532  C1549   1.526   .     S
C1532  C1541   1.420   .     A
C1532  C1539   1.421   .     A
C1533  C1536   1.467   .     S
C1533  C964    1.346   1_565 S
C1533  O1030   1.388   1_565 S
C1534  C1535   1.438   .     S
C1535  O1604   1.273   .     A
C1535  O1610   1.274   .     A
C1536  O1605   1.270   .     A
C1536  O1611   1.273   .     A
C1537  C1540   1.459   .     S
C1537  O1596   1.281   .     A
C1537  O1594   1.278   .     A
C1538  O1595   1.283   .     A
C1538  C1539   1.490   .     S
C1538  O1597   1.294   .     A
C1539  C1543   1.397   .     A
C1541  C1547   1.534   .     S
C1541  C1554   1.429   .     A
C1542  H1592   1.111   .     S
C1542  C1544   1.532   .     S
C1543  C1553   1.404   .     A
C1543  H1570   1.076   .     S
C1544  H1589   1.111   .     S
C1544  H1588   1.108   .     S
C1545  H1564   1.112   .     S
C1545  H1565   1.111   .     S
C1545  C1626   1.535   .     S
C1545  C1641   1.534   .     S
C1546  H1562   1.111   .     S
C1546  H1561   1.111   .     S
C1547  H1575   1.110   .     S
C1547  C1548   1.533   .     S
C1547  H719    1.105   1_556 S
C1548  H1571   1.107   .     S
C1548  H1572   1.111   .     S
C1549  C1550   1.530   .     S
C1549  H1579   1.108   .     S
C1549  H1580   1.107   .     S
C1550  H1577   1.111   .     S
C1550  H1576   1.109   .     S
C1550  H1578   1.111   .     S
C1551  H1586   1.112   .     S
C1551  C1557   1.532   .     S
C1551  C1552   1.530   .     S
C1551  H1585   1.104   .     S
C1552  H1584   1.111   .     S
C1552  H1583   1.109   .     S
C1552  H1582   1.111   .     S
C1553  C1554   1.421   .     A
C1553  C1555   1.427   .     A
C1554  C703    1.413   1_556 S
C1555  C701    1.415   1_556 S
C1556  C1557   1.424   .     A
C1557  C1558   1.408   .     A
C1558  O1598   1.384   .     S
H1560  O1599   0.990   .     S
H1563  C1641   1.110   .     S
H1566  O1030   0.990   1_565 S
H1568  O1602   0.989   .     S
H1569  O1603   0.991   .     S
H1573  C1643   1.111   .     S
H1587  O1598   0.992   .     S
H1590  C974    1.111   1_565 S
H1591  C687    1.103   1_556 S
O1593  Zn1613  1.951   .     S
O1593  Zn1614  1.934   .     S
O1593  Zn1612  1.953   .     S
O1593  Zn1615  1.931   .     S
O1594  Zn1613  1.915   .     S
O1595  Zn1615  1.924   .     S
O1596  Zn1614  1.923   .     S
O1597  Zn1612  1.913   .     S
O1601  C964    1.385   1_565 S
O1601  H997    0.992   1_565 S
O1604  Zn1612  1.937   .     S
O1605  Zn1615  1.936   .     S
O1606  Zn1613  1.935   .     S
O1607  Zn1614  1.945   .     S
O1608  Zn1615  1.945   .     S
O1609  Zn1612  1.936   .     S
O1610  Zn1613  1.938   .     S
O1611  Zn1614  1.935   .     S
C1616  C1626   1.435   .     S
C1616  O1703   1.263   .     A
C1616  O1701   1.269   .     A
C1617  C1650   1.414   .     A
C1617  H1676   1.077   .     S
C1617  C1618   1.404   .     A
C1618  O1698   1.383   .     S
C1618  C765    1.412   1_556 S
C1619  O1702   1.288   .     A
C1619  C1625   1.473   .     S
C1619  O1704   1.268   .     A
C1620  C1621   1.418   .     A
C1620  C1622   1.428   .     A
C1621  C1624   1.398   .     A
C1621  C1651   1.422   .     A
C1622  C1623   1.413   .     A
C1622  C1637   1.527   .     S
C1623  O1697   1.385   .     S
C1623  C1635   1.413   .     A
C1624  H1654   1.079   .     S
C1624  C1635   1.387   .     A
C1625  C1436   1.363   1_655 S
C1625  O1504   1.389   1_655 S
C1627  C1644   1.526   .     S
C1627  C1636   1.420   .     A
C1627  C1634   1.421   .     A
C1628  C1631   1.467   .     S
C1628  C1059   1.346   1_565 S
C1628  O1125   1.388   1_565 S
C1629  C1630   1.438   .     S
C1630  O1699   1.273   .     A
C1630  O1705   1.274   .     A
C1631  O1700   1.270   .     A
C1631  O1706   1.273   .     A
C1632  C1635   1.459   .     S
C1632  O1691   1.281   .     A
C1632  O1689   1.278   .     A
C1633  O1690   1.283   .     A
C1633  C1634   1.490   .     S
C1633  O1692   1.294   .     A
C1634  C1638   1.397   .     A
C1636  C1642   1.534   .     S
C1636  C1649   1.429   .     A
C1637  H1687   1.111   .     S
C1637  C1639   1.532   .     S
C1638  C1648   1.404   .     A
C1638  H1665   1.076   .     S
C1639  H1684   1.111   .     S
C1639  H1683   1.108   .     S
C1640  H1659   1.112   .     S
C1640  H1660   1.111   .     S
C1640  C1436   1.535   1_655 S
C1640  C1451   1.534   1_655 S
C1641  H1657   1.111   .     S
C1641  H1656   1.111   .     S
C1642  H1670   1.110   .     S
C1642  C1643   1.533   .     S
C1642  H814    1.105   1_556 S
C1643  H1666   1.107   .     S
C1643  H1667   1.111   .     S
C1644  C1645   1.530   .     S
C1644  H1674   1.108   .     S
C1644  H1675   1.107   .     S
C1645  H1672   1.111   .     S
C1645  H1671   1.109   .     S
C1645  H1673   1.111   .     S
C1646  H1681   1.112   .     S
C1646  C1652   1.532   .     S
C1646  C1647   1.530   .     S
C1646  H1680   1.104   .     S
C1647  H1679   1.111   .     S
C1647  H1678   1.109   .     S
C1647  H1677   1.111   .     S
C1648  C1649   1.421   .     A
C1648  C1650   1.427   .     A
C1649  C798    1.413   1_556 S
C1650  C796    1.415   1_556 S
C1651  C1652   1.424   .     A
C1652  C1653   1.408   .     A
C1653  O1693   1.384   .     S
H1655  O1694   0.990   .     S
H1658  C1451   1.110   1_655 S
H1661  O1125   0.990   1_565 S
H1663  O1697   0.989   .     S
H1664  O1698   0.991   .     S
H1668  C1453   1.111   1_655 S
H1682  O1693   0.992   .     S
H1685  C1069   1.111   1_565 S
H1686  C782    1.103   1_556 S
O1688  Zn1708  1.951   .     S
O1688  Zn1709  1.934   .     S
O1688  Zn1707  1.953   .     S
O1688  Zn1710  1.931   .     S
O1689  Zn1708  1.915   .     S
O1690  Zn1710  1.924   .     S
O1691  Zn1709  1.923   .     S
O1692  Zn1707  1.913   .     S
O1696  C1059   1.385   1_565 S
O1696  H1092   0.992   1_565 S
O1699  Zn1707  1.937   .     S
O1700  Zn1710  1.936   .     S
O1701  Zn1708  1.935   .     S
O1702  Zn1709  1.945   .     S
O1703  Zn1710  1.945   .     S
O1704  Zn1707  1.936   .     S
O1705  Zn1708  1.938   .     S
O1706  Zn1709  1.935   .     S
