data_str_m2_o1_o16_pcu_sym.19
_audit_creation_date              2020-01-03
_audit_creation_method            'Materials Studio'
_symmetry_space_group_name_H-M    'P1'
_symmetry_Int_Tables_number       1
_symmetry_cell_setting            triclinic
loop_
_symmetry_equiv_pos_as_xyz
  x,y,z
_cell_length_a                    28.5824
_cell_length_b                    32.2274
_cell_length_c                    26.8961
_cell_angle_alpha                 90.2023
_cell_angle_beta                  72.6405
_cell_angle_gamma                 90.0189
loop_
_atom_site_label
_atom_site_type_symbol
_atom_site_fract_x
_atom_site_fract_y
_atom_site_fract_z
_atom_site_U_iso_or_equiv
_atom_site_adp_type
_atom_site_occupancy
C1     C     0.16701   0.24586   0.24862   0.00000  Uiso   1.00
C2     C     0.12449   0.16981   0.40704   0.00000  Uiso   1.00
C3     C     0.16702   0.31184   0.29268   0.00000  Uiso   1.00
C4     C     0.14045   0.16616   0.35003   0.00000  Uiso   1.00
C5     C     0.16689   0.02143   0.29302   0.00000  Uiso   1.00
C6     C     0.16725   0.04290   0.24798   0.00000  Uiso   1.00
C7     C     0.16807   0.02187   0.20189   0.00000  Uiso   1.00
C8     C     0.16708   0.31173   0.20179   0.00000  Uiso   1.00
C9     C     0.16698   0.29045   0.24748   0.00000  Uiso   1.00
C10    C     0.29982   0.19326   0.28131   0.00000  Uiso   1.00
C11    C     0.01599   0.19313   0.28144   0.00000  Uiso   1.00
C12    C     0.14339   0.16811   0.49042   0.00000  Uiso   1.00
C13    C     0.03364   0.13992   0.21888   0.00000  Uiso   1.00
C14    C     0.31676   0.13916   0.21924   0.00000  Uiso   1.00
C15    C     0.16686   0.08747   0.24935   0.00000  Uiso   1.00
C16    C     0.19281   0.16598   0.15010   0.00000  Uiso   1.00
C17    C     0.25103   0.11793   0.01985   0.00000  Uiso   1.00
C18    C     0.20718   0.15906   0.09397   0.00000  Uiso   1.00
C19    C     0.08266   0.19346   0.42999   0.00000  Uiso   1.00
C20    C     0.06972   0.20318   0.48234   0.00000  Uiso   1.00
C21    C     0.09872   0.19057   0.01317   0.00000  Uiso   1.00
C22    C     0.13056   0.05171   0.14667   0.00000  Uiso   1.00
C23    C     0.15322   0.15459   0.43776   0.00000  Uiso   1.00
C24    C     0.12502   0.27969   0.15213   0.00000  Uiso   1.00
C25    C     0.31967   0.07333   0.18319   0.00000  Uiso   1.00
C26    C     0.04715   0.17151   0.09135   0.00000  Uiso   1.00
C27    C     0.17819   0.15753   0.01729   0.00000  Uiso   1.00
C28    C     0.21737   0.12976   0.49367   0.00000  Uiso   1.00
C29    C     0.22242   0.11344   0.44445   0.00000  Uiso   1.00
C30    C     0.19096   0.12560   0.41692   0.00000  Uiso   1.00
C31    C     0.17631   0.17378   0.06642   0.00000  Uiso   1.00
C32    C     0.24542   0.13194   0.07021   0.00000  Uiso   1.00
Cu33   Cu    0.11978   0.16666   0.25000   0.00000  Uiso   1.00
Cu34   Cu    0.21355   0.16667   0.25000   0.00000  Uiso   1.00
H35    H     0.26940   0.12010   0.09137   0.00000  Uiso   1.00
H36    H     0.19600   0.11110   0.37937   0.00000  Uiso   1.00
H37    H     0.16687   0.29522   0.32770   0.00000  Uiso   1.00
H38    H     0.13254   0.08270   0.12833   0.00000  Uiso   1.00
H39    H     0.09840   0.05192   0.18249   0.00000  Uiso   1.00
H40    H     0.12444   0.02867   0.11856   0.00000  Uiso   1.00
H41    H     0.09465   0.30018   0.17496   0.00000  Uiso   1.00
H42    H     0.11649   0.24710   0.16442   0.00000  Uiso   1.00
H43    H     0.12585   0.28157   0.11070   0.00000  Uiso   1.00
H44    H     0.27418   0.21470   0.30634   0.00000  Uiso   1.00
H45    H     0.29514   0.05212   0.17002   0.00000  Uiso   1.00
H46    H     0.16654   0.03798   0.32829   0.00000  Uiso   1.00
H47    H     0.02304   0.07164   0.15379   0.00000  Uiso   1.00
H48    H     0.32110   0.06189   0.22179   0.00000  Uiso   1.00
H49    H     0.06497   0.14116   0.09346   0.00000  Uiso   1.00
H50    H     0.01705   0.16759   0.07331   0.00000  Uiso   1.00
H51    H     0.03006   0.18302   0.13147   0.00000  Uiso   1.00
H52    H     0.02760   0.21441   0.30662   0.00000  Uiso   1.00
H53    H     0.06030   0.11990   0.19299   0.00000  Uiso   1.00
H54    H     0.25127   0.09137   0.42678   0.00000  Uiso   1.00
H55    H     0.28062   0.09658   0.00204   0.00000  Uiso   1.00
H56    H     0.15146   0.19797   0.08502   0.00000  Uiso   1.00
H57    H     0.06034   0.20545   0.40704   0.00000  Uiso   1.00
H58    H     0.03682   0.22122   0.49941   0.00000  Uiso   1.00
N59    N     0.04931   0.16666   0.24999   0.00000  Uiso   1.00
N60    N     0.28402   0.16669   0.24999   0.00000  Uiso   1.00
O61    O     0.12708   0.22678   0.25001   0.00000  Uiso   1.00
O62    O     0.17188   0.29054   0.15566   0.00000  Uiso   1.00
O63    O     0.30060   0.11394   0.18574   0.00000  Uiso   1.00
O64    O     0.08212   0.20102   0.06520   0.00000  Uiso   1.00
O65    O     0.20627   0.22679   0.25000   0.00000  Uiso   1.00
O66    O     0.10775   0.16665   0.32549   0.00000  Uiso   1.00
O67    O     0.18694   0.16666   0.32549   0.00000  Uiso   1.00
O68    O     0.12706   0.10654   0.25000   0.00000  Uiso   1.00
O69    O     0.20625   0.10655   0.24999   0.00000  Uiso   1.00
O70    O     0.14640   0.16667   0.17451   0.00000  Uiso   1.00
O71    O     0.22559   0.16668   0.17451   0.00000  Uiso   1.00
O72    O     0.17581   0.04371   0.15590   0.00000  Uiso   1.00
C73    C     0.50035   0.24586   0.24862   0.00000  Uiso   1.00
C74    C     0.45783   0.16981   0.40704   0.00000  Uiso   1.00
C75    C     0.50035   0.31184   0.29268   0.00000  Uiso   1.00
C76    C     0.47378   0.16616   0.35003   0.00000  Uiso   1.00
C77    C     0.50022   0.02143   0.29302   0.00000  Uiso   1.00
C78    C     0.50058   0.04290   0.24798   0.00000  Uiso   1.00
C79    C     0.50140   0.02187   0.20189   0.00000  Uiso   1.00
C80    C     0.50041   0.31173   0.20179   0.00000  Uiso   1.00
C81    C     0.50032   0.29045   0.24748   0.00000  Uiso   1.00
C82    C     0.63315   0.19326   0.28131   0.00000  Uiso   1.00
C83    C     0.34932   0.19313   0.28144   0.00000  Uiso   1.00
C84    C     0.47672   0.16811   0.49042   0.00000  Uiso   1.00
C85    C     0.36697   0.13992   0.21888   0.00000  Uiso   1.00
C86    C     0.65009   0.13916   0.21924   0.00000  Uiso   1.00
C87    C     0.50020   0.08747   0.24935   0.00000  Uiso   1.00
C88    C     0.52614   0.16598   0.15010   0.00000  Uiso   1.00
C89    C     0.58436   0.11793   0.01985   0.00000  Uiso   1.00
C90    C     0.54051   0.15906   0.09397   0.00000  Uiso   1.00
C91    C     0.41599   0.19346   0.42999   0.00000  Uiso   1.00
C92    C     0.40305   0.20318   0.48234   0.00000  Uiso   1.00
C93    C     0.43205   0.19057   0.01317   0.00000  Uiso   1.00
C94    C     0.46390   0.05171   0.14667   0.00000  Uiso   1.00
C95    C     0.48655   0.15459   0.43776   0.00000  Uiso   1.00
C96    C     0.45835   0.27969   0.15213   0.00000  Uiso   1.00
C97    C     0.65301   0.07333   0.18319   0.00000  Uiso   1.00
C98    C     0.38048   0.17151   0.09135   0.00000  Uiso   1.00
C99    C     0.51153   0.15753   0.01729   0.00000  Uiso   1.00
C100   C     0.55070   0.12976   0.49367   0.00000  Uiso   1.00
C101   C     0.55576   0.11344   0.44445   0.00000  Uiso   1.00
C102   C     0.52429   0.12560   0.41692   0.00000  Uiso   1.00
C103   C     0.50964   0.17378   0.06642   0.00000  Uiso   1.00
C104   C     0.57875   0.13194   0.07021   0.00000  Uiso   1.00
Cu105  Cu    0.45311   0.16666   0.25000   0.00000  Uiso   1.00
Cu106  Cu    0.54689   0.16667   0.25000   0.00000  Uiso   1.00
H107   H     0.60273   0.12010   0.09137   0.00000  Uiso   1.00
H108   H     0.52934   0.11110   0.37937   0.00000  Uiso   1.00
H109   H     0.50021   0.29522   0.32770   0.00000  Uiso   1.00
H110   H     0.46587   0.08270   0.12833   0.00000  Uiso   1.00
H111   H     0.43173   0.05192   0.18249   0.00000  Uiso   1.00
H112   H     0.45777   0.02867   0.11856   0.00000  Uiso   1.00
H113   H     0.42799   0.30018   0.17496   0.00000  Uiso   1.00
H114   H     0.44982   0.24710   0.16442   0.00000  Uiso   1.00
H115   H     0.45919   0.28157   0.11070   0.00000  Uiso   1.00
H116   H     0.60752   0.21470   0.30634   0.00000  Uiso   1.00
H117   H     0.62847   0.05212   0.17002   0.00000  Uiso   1.00
H118   H     0.49987   0.03798   0.32829   0.00000  Uiso   1.00
H119   H     0.35637   0.07164   0.15379   0.00000  Uiso   1.00
H120   H     0.65443   0.06189   0.22179   0.00000  Uiso   1.00
H121   H     0.39831   0.14116   0.09346   0.00000  Uiso   1.00
H122   H     0.35038   0.16759   0.07331   0.00000  Uiso   1.00
H123   H     0.36340   0.18302   0.13147   0.00000  Uiso   1.00
H124   H     0.36094   0.21441   0.30662   0.00000  Uiso   1.00
H125   H     0.39363   0.11990   0.19299   0.00000  Uiso   1.00
H126   H     0.58460   0.09137   0.42678   0.00000  Uiso   1.00
H127   H     0.61395   0.09658   0.00204   0.00000  Uiso   1.00
H128   H     0.48480   0.19797   0.08502   0.00000  Uiso   1.00
H129   H     0.39367   0.20545   0.40704   0.00000  Uiso   1.00
H130   H     0.37015   0.22122   0.49941   0.00000  Uiso   1.00
N131   N     0.38265   0.16666   0.24999   0.00000  Uiso   1.00
N132   N     0.61735   0.16669   0.24999   0.00000  Uiso   1.00
O133   O     0.46042   0.22678   0.25001   0.00000  Uiso   1.00
O134   O     0.50521   0.29054   0.15566   0.00000  Uiso   1.00
O135   O     0.63393   0.11394   0.18574   0.00000  Uiso   1.00
O136   O     0.41545   0.20102   0.06520   0.00000  Uiso   1.00
O137   O     0.53961   0.22679   0.25000   0.00000  Uiso   1.00
O138   O     0.44108   0.16665   0.32549   0.00000  Uiso   1.00
O139   O     0.52027   0.16666   0.32549   0.00000  Uiso   1.00
O140   O     0.46039   0.10654   0.25000   0.00000  Uiso   1.00
O141   O     0.53958   0.10655   0.24999   0.00000  Uiso   1.00
O142   O     0.47973   0.16667   0.17451   0.00000  Uiso   1.00
O143   O     0.55892   0.16668   0.17451   0.00000  Uiso   1.00
O144   O     0.50915   0.04371   0.15590   0.00000  Uiso   1.00
C145   C     0.83368   0.24586   0.24862   0.00000  Uiso   1.00
C146   C     0.79116   0.16981   0.40704   0.00000  Uiso   1.00
C147   C     0.83369   0.31184   0.29268   0.00000  Uiso   1.00
C148   C     0.80712   0.16616   0.35003   0.00000  Uiso   1.00
C149   C     0.83356   0.02143   0.29302   0.00000  Uiso   1.00
C150   C     0.83391   0.04290   0.24798   0.00000  Uiso   1.00
C151   C     0.83474   0.02187   0.20189   0.00000  Uiso   1.00
C152   C     0.83375   0.31173   0.20179   0.00000  Uiso   1.00
C153   C     0.83365   0.29045   0.24748   0.00000  Uiso   1.00
C154   C     0.96649   0.19326   0.28131   0.00000  Uiso   1.00
C155   C     0.68265   0.19313   0.28144   0.00000  Uiso   1.00
C156   C     0.81006   0.16811   0.49042   0.00000  Uiso   1.00
C157   C     0.70031   0.13992   0.21888   0.00000  Uiso   1.00
C158   C     0.98343   0.13916   0.21924   0.00000  Uiso   1.00
C159   C     0.83353   0.08747   0.24935   0.00000  Uiso   1.00
C160   C     0.85947   0.16598   0.15010   0.00000  Uiso   1.00
C161   C     0.91769   0.11793   0.01985   0.00000  Uiso   1.00
C162   C     0.87385   0.15906   0.09397   0.00000  Uiso   1.00
C163   C     0.74933   0.19346   0.42999   0.00000  Uiso   1.00
C164   C     0.73639   0.20318   0.48234   0.00000  Uiso   1.00
C165   C     0.76539   0.19057   0.01317   0.00000  Uiso   1.00
C166   C     0.79723   0.05171   0.14667   0.00000  Uiso   1.00
C167   C     0.81988   0.15459   0.43776   0.00000  Uiso   1.00
C168   C     0.79169   0.27969   0.15213   0.00000  Uiso   1.00
C169   C     0.98634   0.07333   0.18319   0.00000  Uiso   1.00
C170   C     0.71382   0.17151   0.09135   0.00000  Uiso   1.00
C171   C     0.84486   0.15753   0.01729   0.00000  Uiso   1.00
C172   C     0.88404   0.12976   0.49367   0.00000  Uiso   1.00
C173   C     0.88909   0.11344   0.44445   0.00000  Uiso   1.00
C174   C     0.85763   0.12560   0.41692   0.00000  Uiso   1.00
C175   C     0.84298   0.17378   0.06642   0.00000  Uiso   1.00
C176   C     0.91209   0.13194   0.07021   0.00000  Uiso   1.00
Cu177  Cu    0.78645   0.16666   0.25000   0.00000  Uiso   1.00
Cu178  Cu    0.88022   0.16667   0.25000   0.00000  Uiso   1.00
H179   H     0.93606   0.12010   0.09137   0.00000  Uiso   1.00
H180   H     0.86267   0.11110   0.37937   0.00000  Uiso   1.00
H181   H     0.83354   0.29522   0.32770   0.00000  Uiso   1.00
H182   H     0.79920   0.08270   0.12833   0.00000  Uiso   1.00
H183   H     0.76506   0.05192   0.18249   0.00000  Uiso   1.00
H184   H     0.79111   0.02867   0.11856   0.00000  Uiso   1.00
H185   H     0.76132   0.30018   0.17496   0.00000  Uiso   1.00
H186   H     0.78315   0.24710   0.16442   0.00000  Uiso   1.00
H187   H     0.79252   0.28157   0.11070   0.00000  Uiso   1.00
H188   H     0.94085   0.21470   0.30634   0.00000  Uiso   1.00
H189   H     0.96181   0.05212   0.17002   0.00000  Uiso   1.00
H190   H     0.83320   0.03798   0.32829   0.00000  Uiso   1.00
H191   H     0.68970   0.07164   0.15379   0.00000  Uiso   1.00
H192   H     0.98776   0.06189   0.22179   0.00000  Uiso   1.00
H193   H     0.73164   0.14116   0.09346   0.00000  Uiso   1.00
H194   H     0.68372   0.16759   0.07331   0.00000  Uiso   1.00
H195   H     0.69673   0.18302   0.13147   0.00000  Uiso   1.00
H196   H     0.69427   0.21441   0.30662   0.00000  Uiso   1.00
H197   H     0.72696   0.11990   0.19299   0.00000  Uiso   1.00
H198   H     0.91793   0.09137   0.42678   0.00000  Uiso   1.00
H199   H     0.94729   0.09658   0.00204   0.00000  Uiso   1.00
H200   H     0.81813   0.19797   0.08502   0.00000  Uiso   1.00
H201   H     0.72700   0.20545   0.40704   0.00000  Uiso   1.00
H202   H     0.70348   0.22122   0.49941   0.00000  Uiso   1.00
N203   N     0.71598   0.16666   0.24999   0.00000  Uiso   1.00
N204   N     0.95069   0.16669   0.24999   0.00000  Uiso   1.00
O205   O     0.79375   0.22678   0.25001   0.00000  Uiso   1.00
O206   O     0.83854   0.29054   0.15566   0.00000  Uiso   1.00
O207   O     0.96727   0.11394   0.18574   0.00000  Uiso   1.00
O208   O     0.74878   0.20102   0.06520   0.00000  Uiso   1.00
O209   O     0.87294   0.22679   0.25000   0.00000  Uiso   1.00
O210   O     0.77441   0.16665   0.32549   0.00000  Uiso   1.00
O211   O     0.85360   0.16666   0.32549   0.00000  Uiso   1.00
O212   O     0.79373   0.10654   0.25000   0.00000  Uiso   1.00
O213   O     0.87292   0.10655   0.24999   0.00000  Uiso   1.00
O214   O     0.81306   0.16667   0.17451   0.00000  Uiso   1.00
O215   O     0.89225   0.16668   0.17451   0.00000  Uiso   1.00
O216   O     0.84248   0.04371   0.15590   0.00000  Uiso   1.00
C217   C     0.16701   0.57919   0.24862   0.00000  Uiso   1.00
C218   C     0.12449   0.50314   0.40704   0.00000  Uiso   1.00
C219   C     0.16702   0.64517   0.29268   0.00000  Uiso   1.00
C220   C     0.14045   0.49950   0.35003   0.00000  Uiso   1.00
C221   C     0.16689   0.35477   0.29302   0.00000  Uiso   1.00
C222   C     0.16725   0.37623   0.24798   0.00000  Uiso   1.00
C223   C     0.16807   0.35520   0.20189   0.00000  Uiso   1.00
C224   C     0.16708   0.64506   0.20179   0.00000  Uiso   1.00
C225   C     0.16698   0.62378   0.24748   0.00000  Uiso   1.00
C226   C     0.29982   0.52659   0.28131   0.00000  Uiso   1.00
C227   C     0.01599   0.52647   0.28144   0.00000  Uiso   1.00
C228   C     0.14339   0.50145   0.49042   0.00000  Uiso   1.00
C229   C     0.03364   0.47325   0.21888   0.00000  Uiso   1.00
C230   C     0.31676   0.47250   0.21924   0.00000  Uiso   1.00
C231   C     0.16686   0.42080   0.24935   0.00000  Uiso   1.00
C232   C     0.19281   0.49931   0.15010   0.00000  Uiso   1.00
C233   C     0.25103   0.45127   0.01985   0.00000  Uiso   1.00
C234   C     0.20718   0.49239   0.09397   0.00000  Uiso   1.00
C235   C     0.08266   0.52680   0.42999   0.00000  Uiso   1.00
C236   C     0.06972   0.53652   0.48234   0.00000  Uiso   1.00
C237   C     0.09872   0.52391   0.01317   0.00000  Uiso   1.00
C238   C     0.13056   0.38505   0.14667   0.00000  Uiso   1.00
C239   C     0.15322   0.48793   0.43776   0.00000  Uiso   1.00
C240   C     0.12502   0.61303   0.15213   0.00000  Uiso   1.00
C241   C     0.31967   0.40666   0.18319   0.00000  Uiso   1.00
C242   C     0.04715   0.50485   0.09135   0.00000  Uiso   1.00
C243   C     0.17819   0.49086   0.01729   0.00000  Uiso   1.00
C244   C     0.21737   0.46309   0.49367   0.00000  Uiso   1.00
C245   C     0.22242   0.44678   0.44445   0.00000  Uiso   1.00
C246   C     0.19096   0.45893   0.41692   0.00000  Uiso   1.00
C247   C     0.17631   0.50711   0.06642   0.00000  Uiso   1.00
C248   C     0.24542   0.46527   0.07021   0.00000  Uiso   1.00
Cu249  Cu    0.11978   0.49999   0.25000   0.00000  Uiso   1.00
Cu250  Cu    0.21355   0.50001   0.25000   0.00000  Uiso   1.00
H251   H     0.26940   0.45343   0.09137   0.00000  Uiso   1.00
H252   H     0.19600   0.44443   0.37937   0.00000  Uiso   1.00
H253   H     0.16687   0.62855   0.32770   0.00000  Uiso   1.00
H254   H     0.13254   0.41604   0.12833   0.00000  Uiso   1.00
H255   H     0.09840   0.38526   0.18249   0.00000  Uiso   1.00
H256   H     0.12444   0.36200   0.11856   0.00000  Uiso   1.00
H257   H     0.09465   0.63351   0.17496   0.00000  Uiso   1.00
H258   H     0.11649   0.58043   0.16442   0.00000  Uiso   1.00
H259   H     0.12585   0.61491   0.11070   0.00000  Uiso   1.00
H260   H     0.27418   0.54803   0.30634   0.00000  Uiso   1.00
H261   H     0.29514   0.38546   0.17002   0.00000  Uiso   1.00
H262   H     0.16654   0.37131   0.32829   0.00000  Uiso   1.00
H263   H     0.02304   0.40498   0.15379   0.00000  Uiso   1.00
H264   H     0.32110   0.39523   0.22179   0.00000  Uiso   1.00
H265   H     0.06497   0.47449   0.09346   0.00000  Uiso   1.00
H266   H     0.01705   0.50093   0.07331   0.00000  Uiso   1.00
H267   H     0.03006   0.51635   0.13147   0.00000  Uiso   1.00
H268   H     0.02760   0.54775   0.30662   0.00000  Uiso   1.00
H269   H     0.06030   0.45324   0.19299   0.00000  Uiso   1.00
H270   H     0.25127   0.42470   0.42678   0.00000  Uiso   1.00
H271   H     0.28062   0.42991   0.00204   0.00000  Uiso   1.00
H272   H     0.15146   0.53130   0.08502   0.00000  Uiso   1.00
H273   H     0.06034   0.53879   0.40704   0.00000  Uiso   1.00
H274   H     0.03682   0.55455   0.49941   0.00000  Uiso   1.00
N275   N     0.04931   0.49999   0.24999   0.00000  Uiso   1.00
N276   N     0.28402   0.50002   0.24999   0.00000  Uiso   1.00
O277   O     0.12708   0.56011   0.25001   0.00000  Uiso   1.00
O278   O     0.17188   0.62388   0.15566   0.00000  Uiso   1.00
O279   O     0.30060   0.44728   0.18574   0.00000  Uiso   1.00
O280   O     0.08212   0.53436   0.06520   0.00000  Uiso   1.00
O281   O     0.20627   0.56012   0.25000   0.00000  Uiso   1.00
O282   O     0.10775   0.49998   0.32549   0.00000  Uiso   1.00
O283   O     0.18694   0.49999   0.32549   0.00000  Uiso   1.00
O284   O     0.12706   0.43988   0.25000   0.00000  Uiso   1.00
O285   O     0.20625   0.43989   0.24999   0.00000  Uiso   1.00
O286   O     0.14640   0.50001   0.17451   0.00000  Uiso   1.00
O287   O     0.22559   0.50002   0.17451   0.00000  Uiso   1.00
O288   O     0.17581   0.37704   0.15590   0.00000  Uiso   1.00
C289   C     0.50035   0.57919   0.24862   0.00000  Uiso   1.00
C290   C     0.45783   0.50314   0.40704   0.00000  Uiso   1.00
C291   C     0.50035   0.64517   0.29268   0.00000  Uiso   1.00
C292   C     0.47378   0.49950   0.35003   0.00000  Uiso   1.00
C293   C     0.50022   0.35477   0.29302   0.00000  Uiso   1.00
C294   C     0.50058   0.37623   0.24798   0.00000  Uiso   1.00
C295   C     0.50140   0.35520   0.20189   0.00000  Uiso   1.00
C296   C     0.50041   0.64506   0.20179   0.00000  Uiso   1.00
C297   C     0.50032   0.62378   0.24748   0.00000  Uiso   1.00
C298   C     0.63315   0.52659   0.28131   0.00000  Uiso   1.00
C299   C     0.34932   0.52647   0.28144   0.00000  Uiso   1.00
C300   C     0.47672   0.50145   0.49042   0.00000  Uiso   1.00
C301   C     0.36697   0.47325   0.21888   0.00000  Uiso   1.00
C302   C     0.65009   0.47250   0.21924   0.00000  Uiso   1.00
C303   C     0.50020   0.42080   0.24935   0.00000  Uiso   1.00
C304   C     0.52614   0.49931   0.15010   0.00000  Uiso   1.00
C305   C     0.58436   0.45127   0.01985   0.00000  Uiso   1.00
C306   C     0.54051   0.49239   0.09397   0.00000  Uiso   1.00
C307   C     0.41599   0.52680   0.42999   0.00000  Uiso   1.00
C308   C     0.40305   0.53652   0.48234   0.00000  Uiso   1.00
C309   C     0.43205   0.52391   0.01317   0.00000  Uiso   1.00
C310   C     0.46390   0.38505   0.14667   0.00000  Uiso   1.00
C311   C     0.48655   0.48793   0.43776   0.00000  Uiso   1.00
C312   C     0.45835   0.61303   0.15213   0.00000  Uiso   1.00
C313   C     0.65301   0.40666   0.18319   0.00000  Uiso   1.00
C314   C     0.38048   0.50485   0.09135   0.00000  Uiso   1.00
C315   C     0.51153   0.49086   0.01729   0.00000  Uiso   1.00
C316   C     0.55070   0.46309   0.49367   0.00000  Uiso   1.00
C317   C     0.55576   0.44678   0.44445   0.00000  Uiso   1.00
C318   C     0.52429   0.45893   0.41692   0.00000  Uiso   1.00
C319   C     0.50964   0.50711   0.06642   0.00000  Uiso   1.00
C320   C     0.57875   0.46527   0.07021   0.00000  Uiso   1.00
Cu321  Cu    0.45311   0.49999   0.25000   0.00000  Uiso   1.00
Cu322  Cu    0.54689   0.50001   0.25000   0.00000  Uiso   1.00
H323   H     0.60273   0.45343   0.09137   0.00000  Uiso   1.00
H324   H     0.52934   0.44443   0.37937   0.00000  Uiso   1.00
H325   H     0.50021   0.62855   0.32770   0.00000  Uiso   1.00
H326   H     0.46587   0.41604   0.12833   0.00000  Uiso   1.00
H327   H     0.43173   0.38526   0.18249   0.00000  Uiso   1.00
H328   H     0.45777   0.36200   0.11856   0.00000  Uiso   1.00
H329   H     0.42799   0.63351   0.17496   0.00000  Uiso   1.00
H330   H     0.44982   0.58043   0.16442   0.00000  Uiso   1.00
H331   H     0.45919   0.61491   0.11070   0.00000  Uiso   1.00
H332   H     0.60752   0.54803   0.30634   0.00000  Uiso   1.00
H333   H     0.62847   0.38546   0.17002   0.00000  Uiso   1.00
H334   H     0.49987   0.37131   0.32829   0.00000  Uiso   1.00
H335   H     0.35637   0.40498   0.15379   0.00000  Uiso   1.00
H336   H     0.65443   0.39523   0.22179   0.00000  Uiso   1.00
H337   H     0.39831   0.47449   0.09346   0.00000  Uiso   1.00
H338   H     0.35038   0.50093   0.07331   0.00000  Uiso   1.00
H339   H     0.36340   0.51635   0.13147   0.00000  Uiso   1.00
H340   H     0.36094   0.54775   0.30662   0.00000  Uiso   1.00
H341   H     0.39363   0.45324   0.19299   0.00000  Uiso   1.00
H342   H     0.58460   0.42470   0.42678   0.00000  Uiso   1.00
H343   H     0.61395   0.42991   0.00204   0.00000  Uiso   1.00
H344   H     0.48480   0.53130   0.08502   0.00000  Uiso   1.00
H345   H     0.39367   0.53879   0.40704   0.00000  Uiso   1.00
H346   H     0.37015   0.55455   0.49941   0.00000  Uiso   1.00
N347   N     0.38265   0.49999   0.24999   0.00000  Uiso   1.00
N348   N     0.61735   0.50002   0.24999   0.00000  Uiso   1.00
O349   O     0.46042   0.56011   0.25001   0.00000  Uiso   1.00
O350   O     0.50521   0.62388   0.15566   0.00000  Uiso   1.00
O351   O     0.63393   0.44728   0.18574   0.00000  Uiso   1.00
O352   O     0.41545   0.53436   0.06520   0.00000  Uiso   1.00
O353   O     0.53961   0.56012   0.25000   0.00000  Uiso   1.00
O354   O     0.44108   0.49998   0.32549   0.00000  Uiso   1.00
O355   O     0.52027   0.49999   0.32549   0.00000  Uiso   1.00
O356   O     0.46039   0.43988   0.25000   0.00000  Uiso   1.00
O357   O     0.53958   0.43989   0.24999   0.00000  Uiso   1.00
O358   O     0.47973   0.50001   0.17451   0.00000  Uiso   1.00
O359   O     0.55892   0.50002   0.17451   0.00000  Uiso   1.00
O360   O     0.50915   0.37704   0.15590   0.00000  Uiso   1.00
C361   C     0.83368   0.57919   0.24862   0.00000  Uiso   1.00
C362   C     0.79116   0.50314   0.40704   0.00000  Uiso   1.00
C363   C     0.83369   0.64517   0.29268   0.00000  Uiso   1.00
C364   C     0.80712   0.49950   0.35003   0.00000  Uiso   1.00
C365   C     0.83356   0.35477   0.29302   0.00000  Uiso   1.00
C366   C     0.83391   0.37623   0.24798   0.00000  Uiso   1.00
C367   C     0.83474   0.35520   0.20189   0.00000  Uiso   1.00
C368   C     0.83375   0.64506   0.20179   0.00000  Uiso   1.00
C369   C     0.83365   0.62378   0.24748   0.00000  Uiso   1.00
C370   C     0.96649   0.52659   0.28131   0.00000  Uiso   1.00
C371   C     0.68265   0.52647   0.28144   0.00000  Uiso   1.00
C372   C     0.81006   0.50145   0.49042   0.00000  Uiso   1.00
C373   C     0.70031   0.47325   0.21888   0.00000  Uiso   1.00
C374   C     0.98343   0.47250   0.21924   0.00000  Uiso   1.00
C375   C     0.83353   0.42080   0.24935   0.00000  Uiso   1.00
C376   C     0.85947   0.49931   0.15010   0.00000  Uiso   1.00
C377   C     0.91769   0.45127   0.01985   0.00000  Uiso   1.00
C378   C     0.87385   0.49239   0.09397   0.00000  Uiso   1.00
C379   C     0.74933   0.52680   0.42999   0.00000  Uiso   1.00
C380   C     0.73639   0.53652   0.48234   0.00000  Uiso   1.00
C381   C     0.76539   0.52391   0.01317   0.00000  Uiso   1.00
C382   C     0.79723   0.38505   0.14667   0.00000  Uiso   1.00
C383   C     0.81988   0.48793   0.43776   0.00000  Uiso   1.00
C384   C     0.79169   0.61303   0.15213   0.00000  Uiso   1.00
C385   C     0.98634   0.40666   0.18319   0.00000  Uiso   1.00
C386   C     0.71382   0.50485   0.09135   0.00000  Uiso   1.00
C387   C     0.84486   0.49086   0.01729   0.00000  Uiso   1.00
C388   C     0.88404   0.46309   0.49367   0.00000  Uiso   1.00
C389   C     0.88909   0.44678   0.44445   0.00000  Uiso   1.00
C390   C     0.85763   0.45893   0.41692   0.00000  Uiso   1.00
C391   C     0.84298   0.50711   0.06642   0.00000  Uiso   1.00
C392   C     0.91209   0.46527   0.07021   0.00000  Uiso   1.00
Cu393  Cu    0.78645   0.49999   0.25000   0.00000  Uiso   1.00
Cu394  Cu    0.88022   0.50001   0.25000   0.00000  Uiso   1.00
H395   H     0.93606   0.45343   0.09137   0.00000  Uiso   1.00
H396   H     0.86267   0.44443   0.37937   0.00000  Uiso   1.00
H397   H     0.83354   0.62855   0.32770   0.00000  Uiso   1.00
H398   H     0.79920   0.41604   0.12833   0.00000  Uiso   1.00
H399   H     0.76506   0.38526   0.18249   0.00000  Uiso   1.00
H400   H     0.79111   0.36200   0.11856   0.00000  Uiso   1.00
H401   H     0.76132   0.63351   0.17496   0.00000  Uiso   1.00
H402   H     0.78315   0.58043   0.16442   0.00000  Uiso   1.00
H403   H     0.79252   0.61491   0.11070   0.00000  Uiso   1.00
H404   H     0.94085   0.54803   0.30634   0.00000  Uiso   1.00
H405   H     0.96181   0.38546   0.17002   0.00000  Uiso   1.00
H406   H     0.83320   0.37131   0.32829   0.00000  Uiso   1.00
H407   H     0.68970   0.40498   0.15379   0.00000  Uiso   1.00
H408   H     0.98776   0.39523   0.22179   0.00000  Uiso   1.00
H409   H     0.73164   0.47449   0.09346   0.00000  Uiso   1.00
H410   H     0.68372   0.50093   0.07331   0.00000  Uiso   1.00
H411   H     0.69673   0.51635   0.13147   0.00000  Uiso   1.00
H412   H     0.69427   0.54775   0.30662   0.00000  Uiso   1.00
H413   H     0.72696   0.45324   0.19299   0.00000  Uiso   1.00
H414   H     0.91793   0.42470   0.42678   0.00000  Uiso   1.00
H415   H     0.94729   0.42991   0.00204   0.00000  Uiso   1.00
H416   H     0.81813   0.53130   0.08502   0.00000  Uiso   1.00
H417   H     0.72700   0.53879   0.40704   0.00000  Uiso   1.00
H418   H     0.70348   0.55455   0.49941   0.00000  Uiso   1.00
N419   N     0.71598   0.49999   0.24999   0.00000  Uiso   1.00
N420   N     0.95069   0.50002   0.24999   0.00000  Uiso   1.00
O421   O     0.79375   0.56011   0.25001   0.00000  Uiso   1.00
O422   O     0.83854   0.62388   0.15566   0.00000  Uiso   1.00
O423   O     0.96727   0.44728   0.18574   0.00000  Uiso   1.00
O424   O     0.74878   0.53436   0.06520   0.00000  Uiso   1.00
O425   O     0.87294   0.56012   0.25000   0.00000  Uiso   1.00
O426   O     0.77441   0.49998   0.32549   0.00000  Uiso   1.00
O427   O     0.85360   0.49999   0.32549   0.00000  Uiso   1.00
O428   O     0.79373   0.43988   0.25000   0.00000  Uiso   1.00
O429   O     0.87292   0.43989   0.24999   0.00000  Uiso   1.00
O430   O     0.81306   0.50001   0.17451   0.00000  Uiso   1.00
O431   O     0.89225   0.50002   0.17451   0.00000  Uiso   1.00
O432   O     0.84248   0.37704   0.15590   0.00000  Uiso   1.00
C433   C     0.16701   0.91253   0.24862   0.00000  Uiso   1.00
C434   C     0.12449   0.83647   0.40704   0.00000  Uiso   1.00
C435   C     0.16702   0.97850   0.29268   0.00000  Uiso   1.00
C436   C     0.14045   0.83283   0.35003   0.00000  Uiso   1.00
C437   C     0.16689   0.68810   0.29302   0.00000  Uiso   1.00
C438   C     0.16725   0.70956   0.24798   0.00000  Uiso   1.00
C439   C     0.16807   0.68853   0.20189   0.00000  Uiso   1.00
C440   C     0.16708   0.97840   0.20179   0.00000  Uiso   1.00
C441   C     0.16698   0.95711   0.24748   0.00000  Uiso   1.00
C442   C     0.29982   0.85993   0.28131   0.00000  Uiso   1.00
C443   C     0.01599   0.85980   0.28144   0.00000  Uiso   1.00
C444   C     0.14339   0.83478   0.49042   0.00000  Uiso   1.00
C445   C     0.03364   0.80659   0.21888   0.00000  Uiso   1.00
C446   C     0.31676   0.80583   0.21924   0.00000  Uiso   1.00
C447   C     0.16686   0.75413   0.24935   0.00000  Uiso   1.00
C448   C     0.19281   0.83264   0.15010   0.00000  Uiso   1.00
C449   C     0.25103   0.78460   0.01985   0.00000  Uiso   1.00
C450   C     0.20718   0.82573   0.09397   0.00000  Uiso   1.00
C451   C     0.08266   0.86013   0.42999   0.00000  Uiso   1.00
C452   C     0.06972   0.86985   0.48234   0.00000  Uiso   1.00
C453   C     0.09872   0.85724   0.01317   0.00000  Uiso   1.00
C454   C     0.13056   0.71838   0.14667   0.00000  Uiso   1.00
C455   C     0.15322   0.82126   0.43776   0.00000  Uiso   1.00
C456   C     0.12502   0.94636   0.15213   0.00000  Uiso   1.00
C457   C     0.31967   0.74000   0.18319   0.00000  Uiso   1.00
C458   C     0.04715   0.83818   0.09135   0.00000  Uiso   1.00
C459   C     0.17819   0.82419   0.01729   0.00000  Uiso   1.00
C460   C     0.21737   0.79642   0.49367   0.00000  Uiso   1.00
C461   C     0.22242   0.78011   0.44445   0.00000  Uiso   1.00
C462   C     0.19096   0.79226   0.41692   0.00000  Uiso   1.00
C463   C     0.17631   0.84044   0.06642   0.00000  Uiso   1.00
C464   C     0.24542   0.79861   0.07021   0.00000  Uiso   1.00
Cu465  Cu    0.11978   0.83333   0.25000   0.00000  Uiso   1.00
Cu466  Cu    0.21355   0.83334   0.25000   0.00000  Uiso   1.00
H467   H     0.26940   0.78677   0.09137   0.00000  Uiso   1.00
H468   H     0.19600   0.77777   0.37937   0.00000  Uiso   1.00
H469   H     0.16687   0.96188   0.32770   0.00000  Uiso   1.00
H470   H     0.13254   0.74937   0.12833   0.00000  Uiso   1.00
H471   H     0.09840   0.71859   0.18249   0.00000  Uiso   1.00
H472   H     0.12444   0.69533   0.11856   0.00000  Uiso   1.00
H473   H     0.09465   0.96684   0.17496   0.00000  Uiso   1.00
H474   H     0.11649   0.91377   0.16442   0.00000  Uiso   1.00
H475   H     0.12585   0.94824   0.11070   0.00000  Uiso   1.00
H476   H     0.27418   0.88136   0.30634   0.00000  Uiso   1.00
H477   H     0.29514   0.71879   0.17002   0.00000  Uiso   1.00
H478   H     0.16654   0.70464   0.32829   0.00000  Uiso   1.00
H479   H     0.02304   0.73831   0.15379   0.00000  Uiso   1.00
H480   H     0.32110   0.72856   0.22179   0.00000  Uiso   1.00
H481   H     0.06497   0.80782   0.09346   0.00000  Uiso   1.00
H482   H     0.01705   0.83426   0.07331   0.00000  Uiso   1.00
H483   H     0.03006   0.84968   0.13147   0.00000  Uiso   1.00
H484   H     0.02760   0.88108   0.30662   0.00000  Uiso   1.00
H485   H     0.06030   0.78657   0.19299   0.00000  Uiso   1.00
H486   H     0.25127   0.75804   0.42678   0.00000  Uiso   1.00
H487   H     0.28062   0.76324   0.00204   0.00000  Uiso   1.00
H488   H     0.15146   0.86463   0.08502   0.00000  Uiso   1.00
H489   H     0.06034   0.87212   0.40704   0.00000  Uiso   1.00
H490   H     0.03682   0.88788   0.49941   0.00000  Uiso   1.00
N491   N     0.04931   0.83332   0.24999   0.00000  Uiso   1.00
N492   N     0.28402   0.83335   0.24999   0.00000  Uiso   1.00
O493   O     0.12708   0.89345   0.25001   0.00000  Uiso   1.00
O494   O     0.17188   0.95721   0.15566   0.00000  Uiso   1.00
O495   O     0.30060   0.78061   0.18574   0.00000  Uiso   1.00
O496   O     0.08212   0.86769   0.06520   0.00000  Uiso   1.00
O497   O     0.20627   0.89346   0.25000   0.00000  Uiso   1.00
O498   O     0.10775   0.83332   0.32549   0.00000  Uiso   1.00
O499   O     0.18694   0.83333   0.32549   0.00000  Uiso   1.00
O500   O     0.12706   0.77321   0.25000   0.00000  Uiso   1.00
O501   O     0.20625   0.77322   0.24999   0.00000  Uiso   1.00
O502   O     0.14640   0.83334   0.17451   0.00000  Uiso   1.00
O503   O     0.22559   0.83335   0.17451   0.00000  Uiso   1.00
O504   O     0.17581   0.71038   0.15590   0.00000  Uiso   1.00
C505   C     0.50035   0.91253   0.24862   0.00000  Uiso   1.00
C506   C     0.45783   0.83647   0.40704   0.00000  Uiso   1.00
C507   C     0.50035   0.97850   0.29268   0.00000  Uiso   1.00
C508   C     0.47378   0.83283   0.35003   0.00000  Uiso   1.00
C509   C     0.50022   0.68810   0.29302   0.00000  Uiso   1.00
C510   C     0.50058   0.70956   0.24798   0.00000  Uiso   1.00
C511   C     0.50140   0.68853   0.20189   0.00000  Uiso   1.00
C512   C     0.50041   0.97840   0.20179   0.00000  Uiso   1.00
C513   C     0.50032   0.95711   0.24748   0.00000  Uiso   1.00
C514   C     0.63315   0.85993   0.28131   0.00000  Uiso   1.00
C515   C     0.34932   0.85980   0.28144   0.00000  Uiso   1.00
C516   C     0.47672   0.83478   0.49042   0.00000  Uiso   1.00
C517   C     0.36697   0.80659   0.21888   0.00000  Uiso   1.00
C518   C     0.65009   0.80583   0.21924   0.00000  Uiso   1.00
C519   C     0.50020   0.75413   0.24935   0.00000  Uiso   1.00
C520   C     0.52614   0.83264   0.15010   0.00000  Uiso   1.00
C521   C     0.58436   0.78460   0.01985   0.00000  Uiso   1.00
C522   C     0.54051   0.82573   0.09397   0.00000  Uiso   1.00
C523   C     0.41599   0.86013   0.42999   0.00000  Uiso   1.00
C524   C     0.40305   0.86985   0.48234   0.00000  Uiso   1.00
C525   C     0.43205   0.85724   0.01317   0.00000  Uiso   1.00
C526   C     0.46390   0.71838   0.14667   0.00000  Uiso   1.00
C527   C     0.48655   0.82126   0.43776   0.00000  Uiso   1.00
C528   C     0.45835   0.94636   0.15213   0.00000  Uiso   1.00
C529   C     0.65301   0.74000   0.18319   0.00000  Uiso   1.00
C530   C     0.38048   0.83818   0.09135   0.00000  Uiso   1.00
C531   C     0.51153   0.82419   0.01729   0.00000  Uiso   1.00
C532   C     0.55070   0.79642   0.49367   0.00000  Uiso   1.00
C533   C     0.55576   0.78011   0.44445   0.00000  Uiso   1.00
C534   C     0.52429   0.79226   0.41692   0.00000  Uiso   1.00
C535   C     0.50964   0.84044   0.06642   0.00000  Uiso   1.00
C536   C     0.57875   0.79861   0.07021   0.00000  Uiso   1.00
Cu537  Cu    0.45311   0.83333   0.25000   0.00000  Uiso   1.00
Cu538  Cu    0.54689   0.83334   0.25000   0.00000  Uiso   1.00
H539   H     0.60273   0.78677   0.09137   0.00000  Uiso   1.00
H540   H     0.52934   0.77777   0.37937   0.00000  Uiso   1.00
H541   H     0.50021   0.96188   0.32770   0.00000  Uiso   1.00
H542   H     0.46587   0.74937   0.12833   0.00000  Uiso   1.00
H543   H     0.43173   0.71859   0.18249   0.00000  Uiso   1.00
H544   H     0.45777   0.69533   0.11856   0.00000  Uiso   1.00
H545   H     0.42799   0.96684   0.17496   0.00000  Uiso   1.00
H546   H     0.44982   0.91377   0.16442   0.00000  Uiso   1.00
H547   H     0.45919   0.94824   0.11070   0.00000  Uiso   1.00
H548   H     0.60752   0.88136   0.30634   0.00000  Uiso   1.00
H549   H     0.62847   0.71879   0.17002   0.00000  Uiso   1.00
H550   H     0.49987   0.70464   0.32829   0.00000  Uiso   1.00
H551   H     0.35637   0.73831   0.15379   0.00000  Uiso   1.00
H552   H     0.65443   0.72856   0.22179   0.00000  Uiso   1.00
H553   H     0.39831   0.80782   0.09346   0.00000  Uiso   1.00
H554   H     0.35038   0.83426   0.07331   0.00000  Uiso   1.00
H555   H     0.36340   0.84968   0.13147   0.00000  Uiso   1.00
H556   H     0.36094   0.88108   0.30662   0.00000  Uiso   1.00
H557   H     0.39363   0.78657   0.19299   0.00000  Uiso   1.00
H558   H     0.58460   0.75804   0.42678   0.00000  Uiso   1.00
H559   H     0.61395   0.76324   0.00204   0.00000  Uiso   1.00
H560   H     0.48480   0.86463   0.08502   0.00000  Uiso   1.00
H561   H     0.39367   0.87212   0.40704   0.00000  Uiso   1.00
H562   H     0.37015   0.88788   0.49941   0.00000  Uiso   1.00
N563   N     0.38265   0.83332   0.24999   0.00000  Uiso   1.00
N564   N     0.61735   0.83335   0.24999   0.00000  Uiso   1.00
O565   O     0.46042   0.89345   0.25001   0.00000  Uiso   1.00
O566   O     0.50521   0.95721   0.15566   0.00000  Uiso   1.00
O567   O     0.63393   0.78061   0.18574   0.00000  Uiso   1.00
O568   O     0.41545   0.86769   0.06520   0.00000  Uiso   1.00
O569   O     0.53961   0.89346   0.25000   0.00000  Uiso   1.00
O570   O     0.44108   0.83332   0.32549   0.00000  Uiso   1.00
O571   O     0.52027   0.83333   0.32549   0.00000  Uiso   1.00
O572   O     0.46039   0.77321   0.25000   0.00000  Uiso   1.00
O573   O     0.53958   0.77322   0.24999   0.00000  Uiso   1.00
O574   O     0.47973   0.83334   0.17451   0.00000  Uiso   1.00
O575   O     0.55892   0.83335   0.17451   0.00000  Uiso   1.00
O576   O     0.50915   0.71038   0.15590   0.00000  Uiso   1.00
C577   C     0.83368   0.91253   0.24862   0.00000  Uiso   1.00
C578   C     0.79116   0.83647   0.40704   0.00000  Uiso   1.00
C579   C     0.83369   0.97850   0.29268   0.00000  Uiso   1.00
C580   C     0.80712   0.83283   0.35003   0.00000  Uiso   1.00
C581   C     0.83356   0.68810   0.29302   0.00000  Uiso   1.00
C582   C     0.83391   0.70956   0.24798   0.00000  Uiso   1.00
C583   C     0.83474   0.68853   0.20189   0.00000  Uiso   1.00
C584   C     0.83375   0.97840   0.20179   0.00000  Uiso   1.00
C585   C     0.83365   0.95711   0.24748   0.00000  Uiso   1.00
C586   C     0.96649   0.85993   0.28131   0.00000  Uiso   1.00
C587   C     0.68265   0.85980   0.28144   0.00000  Uiso   1.00
C588   C     0.81006   0.83478   0.49042   0.00000  Uiso   1.00
C589   C     0.70031   0.80659   0.21888   0.00000  Uiso   1.00
C590   C     0.98343   0.80583   0.21924   0.00000  Uiso   1.00
C591   C     0.83353   0.75413   0.24935   0.00000  Uiso   1.00
C592   C     0.85947   0.83264   0.15010   0.00000  Uiso   1.00
C593   C     0.91769   0.78460   0.01985   0.00000  Uiso   1.00
C594   C     0.87385   0.82573   0.09397   0.00000  Uiso   1.00
C595   C     0.74933   0.86013   0.42999   0.00000  Uiso   1.00
C596   C     0.73639   0.86985   0.48234   0.00000  Uiso   1.00
C597   C     0.76539   0.85724   0.01317   0.00000  Uiso   1.00
C598   C     0.79723   0.71838   0.14667   0.00000  Uiso   1.00
C599   C     0.81988   0.82126   0.43776   0.00000  Uiso   1.00
C600   C     0.79169   0.94636   0.15213   0.00000  Uiso   1.00
C601   C     0.98634   0.74000   0.18319   0.00000  Uiso   1.00
C602   C     0.71382   0.83818   0.09135   0.00000  Uiso   1.00
C603   C     0.84486   0.82419   0.01729   0.00000  Uiso   1.00
C604   C     0.88404   0.79642   0.49367   0.00000  Uiso   1.00
C605   C     0.88909   0.78011   0.44445   0.00000  Uiso   1.00
C606   C     0.85763   0.79226   0.41692   0.00000  Uiso   1.00
C607   C     0.84298   0.84044   0.06642   0.00000  Uiso   1.00
C608   C     0.91209   0.79861   0.07021   0.00000  Uiso   1.00
Cu609  Cu    0.78645   0.83333   0.25000   0.00000  Uiso   1.00
Cu610  Cu    0.88022   0.83334   0.25000   0.00000  Uiso   1.00
H611   H     0.93606   0.78677   0.09137   0.00000  Uiso   1.00
H612   H     0.86267   0.77777   0.37937   0.00000  Uiso   1.00
H613   H     0.83354   0.96188   0.32770   0.00000  Uiso   1.00
H614   H     0.79920   0.74937   0.12833   0.00000  Uiso   1.00
H615   H     0.76506   0.71859   0.18249   0.00000  Uiso   1.00
H616   H     0.79111   0.69533   0.11856   0.00000  Uiso   1.00
H617   H     0.76132   0.96684   0.17496   0.00000  Uiso   1.00
H618   H     0.78315   0.91377   0.16442   0.00000  Uiso   1.00
H619   H     0.79252   0.94824   0.11070   0.00000  Uiso   1.00
H620   H     0.94085   0.88136   0.30634   0.00000  Uiso   1.00
H621   H     0.96181   0.71879   0.17002   0.00000  Uiso   1.00
H622   H     0.83320   0.70464   0.32829   0.00000  Uiso   1.00
H623   H     0.68970   0.73831   0.15379   0.00000  Uiso   1.00
H624   H     0.98776   0.72856   0.22179   0.00000  Uiso   1.00
H625   H     0.73164   0.80782   0.09346   0.00000  Uiso   1.00
H626   H     0.68372   0.83426   0.07331   0.00000  Uiso   1.00
H627   H     0.69673   0.84968   0.13147   0.00000  Uiso   1.00
H628   H     0.69427   0.88108   0.30662   0.00000  Uiso   1.00
H629   H     0.72696   0.78657   0.19299   0.00000  Uiso   1.00
H630   H     0.91793   0.75804   0.42678   0.00000  Uiso   1.00
H631   H     0.94729   0.76324   0.00204   0.00000  Uiso   1.00
H632   H     0.81813   0.86463   0.08502   0.00000  Uiso   1.00
H633   H     0.72700   0.87212   0.40704   0.00000  Uiso   1.00
H634   H     0.70348   0.88788   0.49941   0.00000  Uiso   1.00
N635   N     0.71598   0.83332   0.24999   0.00000  Uiso   1.00
N636   N     0.95069   0.83335   0.24999   0.00000  Uiso   1.00
O637   O     0.79375   0.89345   0.25001   0.00000  Uiso   1.00
O638   O     0.83854   0.95721   0.15566   0.00000  Uiso   1.00
O639   O     0.96727   0.78061   0.18574   0.00000  Uiso   1.00
O640   O     0.74878   0.86769   0.06520   0.00000  Uiso   1.00
O641   O     0.87294   0.89346   0.25000   0.00000  Uiso   1.00
O642   O     0.77441   0.83332   0.32549   0.00000  Uiso   1.00
O643   O     0.85360   0.83333   0.32549   0.00000  Uiso   1.00
O644   O     0.79373   0.77321   0.25000   0.00000  Uiso   1.00
O645   O     0.87292   0.77322   0.24999   0.00000  Uiso   1.00
O646   O     0.81306   0.83334   0.17451   0.00000  Uiso   1.00
O647   O     0.89225   0.83335   0.17451   0.00000  Uiso   1.00
O648   O     0.84248   0.71038   0.15590   0.00000  Uiso   1.00
C649   C     0.16701   0.24586   0.74862   0.00000  Uiso   1.00
C650   C     0.12449   0.16981   0.90704   0.00000  Uiso   1.00
C651   C     0.16702   0.31184   0.79268   0.00000  Uiso   1.00
C652   C     0.14045   0.16616   0.85003   0.00000  Uiso   1.00
C653   C     0.16689   0.02143   0.79302   0.00000  Uiso   1.00
C654   C     0.16725   0.04290   0.74798   0.00000  Uiso   1.00
C655   C     0.16807   0.02187   0.70189   0.00000  Uiso   1.00
C656   C     0.16708   0.31173   0.70179   0.00000  Uiso   1.00
C657   C     0.16698   0.29045   0.74748   0.00000  Uiso   1.00
C658   C     0.29982   0.19326   0.78131   0.00000  Uiso   1.00
C659   C     0.01599   0.19313   0.78144   0.00000  Uiso   1.00
C660   C     0.14339   0.16811   0.99042   0.00000  Uiso   1.00
C661   C     0.03364   0.13992   0.71888   0.00000  Uiso   1.00
C662   C     0.31676   0.13916   0.71924   0.00000  Uiso   1.00
C663   C     0.16686   0.08747   0.74935   0.00000  Uiso   1.00
C664   C     0.19281   0.16598   0.65010   0.00000  Uiso   1.00
C665   C     0.25103   0.11793   0.51985   0.00000  Uiso   1.00
C666   C     0.20718   0.15906   0.59397   0.00000  Uiso   1.00
C667   C     0.08266   0.19346   0.92999   0.00000  Uiso   1.00
C668   C     0.06972   0.20318   0.98234   0.00000  Uiso   1.00
C669   C     0.09872   0.19057   0.51317   0.00000  Uiso   1.00
C670   C     0.13056   0.05171   0.64667   0.00000  Uiso   1.00
C671   C     0.15322   0.15459   0.93776   0.00000  Uiso   1.00
C672   C     0.12502   0.27969   0.65213   0.00000  Uiso   1.00
C673   C     0.31967   0.07333   0.68319   0.00000  Uiso   1.00
C674   C     0.04715   0.17151   0.59135   0.00000  Uiso   1.00
C675   C     0.17819   0.15753   0.51729   0.00000  Uiso   1.00
C676   C     0.21737   0.12976   0.99367   0.00000  Uiso   1.00
C677   C     0.22242   0.11344   0.94445   0.00000  Uiso   1.00
C678   C     0.19096   0.12560   0.91692   0.00000  Uiso   1.00
C679   C     0.17631   0.17378   0.56642   0.00000  Uiso   1.00
C680   C     0.24542   0.13194   0.57021   0.00000  Uiso   1.00
Cu681  Cu    0.11978   0.16666   0.75000   0.00000  Uiso   1.00
Cu682  Cu    0.21355   0.16667   0.75000   0.00000  Uiso   1.00
H683   H     0.26940   0.12010   0.59137   0.00000  Uiso   1.00
H684   H     0.19600   0.11110   0.87937   0.00000  Uiso   1.00
H685   H     0.16687   0.29522   0.82770   0.00000  Uiso   1.00
H686   H     0.13254   0.08270   0.62833   0.00000  Uiso   1.00
H687   H     0.09840   0.05192   0.68249   0.00000  Uiso   1.00
H688   H     0.12444   0.02867   0.61856   0.00000  Uiso   1.00
H689   H     0.09465   0.30018   0.67496   0.00000  Uiso   1.00
H690   H     0.11649   0.24710   0.66442   0.00000  Uiso   1.00
H691   H     0.12585   0.28157   0.61070   0.00000  Uiso   1.00
H692   H     0.27418   0.21470   0.80634   0.00000  Uiso   1.00
H693   H     0.29514   0.05212   0.67002   0.00000  Uiso   1.00
H694   H     0.16654   0.03798   0.82829   0.00000  Uiso   1.00
H695   H     0.02304   0.07164   0.65379   0.00000  Uiso   1.00
H696   H     0.32110   0.06189   0.72179   0.00000  Uiso   1.00
H697   H     0.06497   0.14116   0.59346   0.00000  Uiso   1.00
H698   H     0.01705   0.16759   0.57331   0.00000  Uiso   1.00
H699   H     0.03006   0.18302   0.63147   0.00000  Uiso   1.00
H700   H     0.02760   0.21441   0.80662   0.00000  Uiso   1.00
H701   H     0.06030   0.11990   0.69299   0.00000  Uiso   1.00
H702   H     0.25127   0.09137   0.92678   0.00000  Uiso   1.00
H703   H     0.28062   0.09658   0.50204   0.00000  Uiso   1.00
H704   H     0.15146   0.19797   0.58502   0.00000  Uiso   1.00
H705   H     0.06034   0.20545   0.90704   0.00000  Uiso   1.00
H706   H     0.03682   0.22122   0.99941   0.00000  Uiso   1.00
N707   N     0.04931   0.16666   0.74999   0.00000  Uiso   1.00
N708   N     0.28402   0.16669   0.74999   0.00000  Uiso   1.00
O709   O     0.12708   0.22678   0.75001   0.00000  Uiso   1.00
O710   O     0.17188   0.29054   0.65566   0.00000  Uiso   1.00
O711   O     0.30060   0.11394   0.68574   0.00000  Uiso   1.00
O712   O     0.08212   0.20102   0.56520   0.00000  Uiso   1.00
O713   O     0.20627   0.22679   0.75000   0.00000  Uiso   1.00
O714   O     0.10775   0.16665   0.82549   0.00000  Uiso   1.00
O715   O     0.18694   0.16666   0.82549   0.00000  Uiso   1.00
O716   O     0.12706   0.10654   0.75000   0.00000  Uiso   1.00
O717   O     0.20625   0.10655   0.74999   0.00000  Uiso   1.00
O718   O     0.14640   0.16667   0.67451   0.00000  Uiso   1.00
O719   O     0.22559   0.16668   0.67451   0.00000  Uiso   1.00
O720   O     0.17581   0.04371   0.65590   0.00000  Uiso   1.00
C721   C     0.50035   0.24586   0.74862   0.00000  Uiso   1.00
C722   C     0.45783   0.16981   0.90704   0.00000  Uiso   1.00
C723   C     0.50035   0.31184   0.79268   0.00000  Uiso   1.00
C724   C     0.47378   0.16616   0.85003   0.00000  Uiso   1.00
C725   C     0.50022   0.02143   0.79302   0.00000  Uiso   1.00
C726   C     0.50058   0.04290   0.74798   0.00000  Uiso   1.00
C727   C     0.50140   0.02187   0.70189   0.00000  Uiso   1.00
C728   C     0.50041   0.31173   0.70179   0.00000  Uiso   1.00
C729   C     0.50032   0.29045   0.74748   0.00000  Uiso   1.00
C730   C     0.63315   0.19326   0.78131   0.00000  Uiso   1.00
C731   C     0.34932   0.19313   0.78144   0.00000  Uiso   1.00
C732   C     0.47672   0.16811   0.99042   0.00000  Uiso   1.00
C733   C     0.36697   0.13992   0.71888   0.00000  Uiso   1.00
C734   C     0.65009   0.13916   0.71924   0.00000  Uiso   1.00
C735   C     0.50020   0.08747   0.74935   0.00000  Uiso   1.00
C736   C     0.52614   0.16598   0.65010   0.00000  Uiso   1.00
C737   C     0.58436   0.11793   0.51985   0.00000  Uiso   1.00
C738   C     0.54051   0.15906   0.59397   0.00000  Uiso   1.00
C739   C     0.41599   0.19346   0.92999   0.00000  Uiso   1.00
C740   C     0.40305   0.20318   0.98234   0.00000  Uiso   1.00
C741   C     0.43205   0.19057   0.51317   0.00000  Uiso   1.00
C742   C     0.46390   0.05171   0.64667   0.00000  Uiso   1.00
C743   C     0.48655   0.15459   0.93776   0.00000  Uiso   1.00
C744   C     0.45835   0.27969   0.65213   0.00000  Uiso   1.00
C745   C     0.65301   0.07333   0.68319   0.00000  Uiso   1.00
C746   C     0.38048   0.17151   0.59135   0.00000  Uiso   1.00
C747   C     0.51153   0.15753   0.51729   0.00000  Uiso   1.00
C748   C     0.55070   0.12976   0.99367   0.00000  Uiso   1.00
C749   C     0.55576   0.11344   0.94445   0.00000  Uiso   1.00
C750   C     0.52429   0.12560   0.91692   0.00000  Uiso   1.00
C751   C     0.50964   0.17378   0.56642   0.00000  Uiso   1.00
C752   C     0.57875   0.13194   0.57021   0.00000  Uiso   1.00
Cu753  Cu    0.45311   0.16666   0.75000   0.00000  Uiso   1.00
Cu754  Cu    0.54689   0.16667   0.75000   0.00000  Uiso   1.00
H755   H     0.60273   0.12010   0.59137   0.00000  Uiso   1.00
H756   H     0.52934   0.11110   0.87937   0.00000  Uiso   1.00
H757   H     0.50021   0.29522   0.82770   0.00000  Uiso   1.00
H758   H     0.46587   0.08270   0.62833   0.00000  Uiso   1.00
H759   H     0.43173   0.05192   0.68249   0.00000  Uiso   1.00
H760   H     0.45777   0.02867   0.61856   0.00000  Uiso   1.00
H761   H     0.42799   0.30018   0.67496   0.00000  Uiso   1.00
H762   H     0.44982   0.24710   0.66442   0.00000  Uiso   1.00
H763   H     0.45919   0.28157   0.61070   0.00000  Uiso   1.00
H764   H     0.60752   0.21470   0.80634   0.00000  Uiso   1.00
H765   H     0.62847   0.05212   0.67002   0.00000  Uiso   1.00
H766   H     0.49987   0.03798   0.82829   0.00000  Uiso   1.00
H767   H     0.35637   0.07164   0.65379   0.00000  Uiso   1.00
H768   H     0.65443   0.06189   0.72179   0.00000  Uiso   1.00
H769   H     0.39831   0.14116   0.59346   0.00000  Uiso   1.00
H770   H     0.35038   0.16759   0.57331   0.00000  Uiso   1.00
H771   H     0.36340   0.18302   0.63147   0.00000  Uiso   1.00
H772   H     0.36094   0.21441   0.80662   0.00000  Uiso   1.00
H773   H     0.39363   0.11990   0.69299   0.00000  Uiso   1.00
H774   H     0.58460   0.09137   0.92678   0.00000  Uiso   1.00
H775   H     0.61395   0.09658   0.50204   0.00000  Uiso   1.00
H776   H     0.48480   0.19797   0.58502   0.00000  Uiso   1.00
H777   H     0.39367   0.20545   0.90704   0.00000  Uiso   1.00
H778   H     0.37015   0.22122   0.99941   0.00000  Uiso   1.00
N779   N     0.38265   0.16666   0.74999   0.00000  Uiso   1.00
N780   N     0.61735   0.16669   0.74999   0.00000  Uiso   1.00
O781   O     0.46042   0.22678   0.75001   0.00000  Uiso   1.00
O782   O     0.50521   0.29054   0.65566   0.00000  Uiso   1.00
O783   O     0.63393   0.11394   0.68574   0.00000  Uiso   1.00
O784   O     0.41545   0.20102   0.56520   0.00000  Uiso   1.00
O785   O     0.53961   0.22679   0.75000   0.00000  Uiso   1.00
O786   O     0.44108   0.16665   0.82549   0.00000  Uiso   1.00
O787   O     0.52027   0.16666   0.82549   0.00000  Uiso   1.00
O788   O     0.46039   0.10654   0.75000   0.00000  Uiso   1.00
O789   O     0.53958   0.10655   0.74999   0.00000  Uiso   1.00
O790   O     0.47973   0.16667   0.67451   0.00000  Uiso   1.00
O791   O     0.55892   0.16668   0.67451   0.00000  Uiso   1.00
O792   O     0.50915   0.04371   0.65590   0.00000  Uiso   1.00
C793   C     0.83368   0.24586   0.74862   0.00000  Uiso   1.00
C794   C     0.79116   0.16981   0.90704   0.00000  Uiso   1.00
C795   C     0.83369   0.31184   0.79268   0.00000  Uiso   1.00
C796   C     0.80712   0.16616   0.85003   0.00000  Uiso   1.00
C797   C     0.83356   0.02143   0.79302   0.00000  Uiso   1.00
C798   C     0.83391   0.04290   0.74798   0.00000  Uiso   1.00
C799   C     0.83474   0.02187   0.70189   0.00000  Uiso   1.00
C800   C     0.83375   0.31173   0.70179   0.00000  Uiso   1.00
C801   C     0.83365   0.29045   0.74748   0.00000  Uiso   1.00
C802   C     0.96649   0.19326   0.78131   0.00000  Uiso   1.00
C803   C     0.68265   0.19313   0.78144   0.00000  Uiso   1.00
C804   C     0.81006   0.16811   0.99042   0.00000  Uiso   1.00
C805   C     0.70031   0.13992   0.71888   0.00000  Uiso   1.00
C806   C     0.98343   0.13916   0.71924   0.00000  Uiso   1.00
C807   C     0.83353   0.08747   0.74935   0.00000  Uiso   1.00
C808   C     0.85947   0.16598   0.65010   0.00000  Uiso   1.00
C809   C     0.91769   0.11793   0.51985   0.00000  Uiso   1.00
C810   C     0.87385   0.15906   0.59397   0.00000  Uiso   1.00
C811   C     0.74933   0.19346   0.92999   0.00000  Uiso   1.00
C812   C     0.73639   0.20318   0.98234   0.00000  Uiso   1.00
C813   C     0.76539   0.19057   0.51317   0.00000  Uiso   1.00
C814   C     0.79723   0.05171   0.64667   0.00000  Uiso   1.00
C815   C     0.81988   0.15459   0.93776   0.00000  Uiso   1.00
C816   C     0.79169   0.27969   0.65213   0.00000  Uiso   1.00
C817   C     0.98634   0.07333   0.68319   0.00000  Uiso   1.00
C818   C     0.71382   0.17151   0.59135   0.00000  Uiso   1.00
C819   C     0.84486   0.15753   0.51729   0.00000  Uiso   1.00
C820   C     0.88404   0.12976   0.99367   0.00000  Uiso   1.00
C821   C     0.88909   0.11344   0.94445   0.00000  Uiso   1.00
C822   C     0.85763   0.12560   0.91692   0.00000  Uiso   1.00
C823   C     0.84298   0.17378   0.56642   0.00000  Uiso   1.00
C824   C     0.91209   0.13194   0.57021   0.00000  Uiso   1.00
Cu825  Cu    0.78645   0.16666   0.75000   0.00000  Uiso   1.00
Cu826  Cu    0.88022   0.16667   0.75000   0.00000  Uiso   1.00
H827   H     0.93606   0.12010   0.59137   0.00000  Uiso   1.00
H828   H     0.86267   0.11110   0.87937   0.00000  Uiso   1.00
H829   H     0.83354   0.29522   0.82770   0.00000  Uiso   1.00
H830   H     0.79920   0.08270   0.62833   0.00000  Uiso   1.00
H831   H     0.76506   0.05192   0.68249   0.00000  Uiso   1.00
H832   H     0.79111   0.02867   0.61856   0.00000  Uiso   1.00
H833   H     0.76132   0.30018   0.67496   0.00000  Uiso   1.00
H834   H     0.78315   0.24710   0.66442   0.00000  Uiso   1.00
H835   H     0.79252   0.28157   0.61070   0.00000  Uiso   1.00
H836   H     0.94085   0.21470   0.80634   0.00000  Uiso   1.00
H837   H     0.96181   0.05212   0.67002   0.00000  Uiso   1.00
H838   H     0.83320   0.03798   0.82829   0.00000  Uiso   1.00
H839   H     0.68970   0.07164   0.65379   0.00000  Uiso   1.00
H840   H     0.98776   0.06189   0.72179   0.00000  Uiso   1.00
H841   H     0.73164   0.14116   0.59346   0.00000  Uiso   1.00
H842   H     0.68372   0.16759   0.57331   0.00000  Uiso   1.00
H843   H     0.69673   0.18302   0.63147   0.00000  Uiso   1.00
H844   H     0.69427   0.21441   0.80662   0.00000  Uiso   1.00
H845   H     0.72696   0.11990   0.69299   0.00000  Uiso   1.00
H846   H     0.91793   0.09137   0.92678   0.00000  Uiso   1.00
H847   H     0.94729   0.09658   0.50204   0.00000  Uiso   1.00
H848   H     0.81813   0.19797   0.58502   0.00000  Uiso   1.00
H849   H     0.72700   0.20545   0.90704   0.00000  Uiso   1.00
H850   H     0.70348   0.22122   0.99941   0.00000  Uiso   1.00
N851   N     0.71598   0.16666   0.74999   0.00000  Uiso   1.00
N852   N     0.95069   0.16669   0.74999   0.00000  Uiso   1.00
O853   O     0.79375   0.22678   0.75001   0.00000  Uiso   1.00
O854   O     0.83854   0.29054   0.65566   0.00000  Uiso   1.00
O855   O     0.96727   0.11394   0.68574   0.00000  Uiso   1.00
O856   O     0.74878   0.20102   0.56520   0.00000  Uiso   1.00
O857   O     0.87294   0.22679   0.75000   0.00000  Uiso   1.00
O858   O     0.77441   0.16665   0.82549   0.00000  Uiso   1.00
O859   O     0.85360   0.16666   0.82549   0.00000  Uiso   1.00
O860   O     0.79373   0.10654   0.75000   0.00000  Uiso   1.00
O861   O     0.87292   0.10655   0.74999   0.00000  Uiso   1.00
O862   O     0.81306   0.16667   0.67451   0.00000  Uiso   1.00
O863   O     0.89225   0.16668   0.67451   0.00000  Uiso   1.00
O864   O     0.84248   0.04371   0.65590   0.00000  Uiso   1.00
C865   C     0.16701   0.57919   0.74862   0.00000  Uiso   1.00
C866   C     0.12449   0.50314   0.90704   0.00000  Uiso   1.00
C867   C     0.16702   0.64517   0.79268   0.00000  Uiso   1.00
C868   C     0.14045   0.49950   0.85003   0.00000  Uiso   1.00
C869   C     0.16689   0.35477   0.79302   0.00000  Uiso   1.00
C870   C     0.16725   0.37623   0.74798   0.00000  Uiso   1.00
C871   C     0.16807   0.35520   0.70189   0.00000  Uiso   1.00
C872   C     0.16708   0.64506   0.70179   0.00000  Uiso   1.00
C873   C     0.16698   0.62378   0.74748   0.00000  Uiso   1.00
C874   C     0.29982   0.52659   0.78131   0.00000  Uiso   1.00
C875   C     0.01599   0.52647   0.78144   0.00000  Uiso   1.00
C876   C     0.14339   0.50145   0.99042   0.00000  Uiso   1.00
C877   C     0.03364   0.47325   0.71888   0.00000  Uiso   1.00
C878   C     0.31676   0.47250   0.71924   0.00000  Uiso   1.00
C879   C     0.16686   0.42080   0.74935   0.00000  Uiso   1.00
C880   C     0.19281   0.49931   0.65010   0.00000  Uiso   1.00
C881   C     0.25103   0.45127   0.51985   0.00000  Uiso   1.00
C882   C     0.20718   0.49239   0.59397   0.00000  Uiso   1.00
C883   C     0.08266   0.52680   0.92999   0.00000  Uiso   1.00
C884   C     0.06972   0.53652   0.98234   0.00000  Uiso   1.00
C885   C     0.09872   0.52391   0.51317   0.00000  Uiso   1.00
C886   C     0.13056   0.38505   0.64667   0.00000  Uiso   1.00
C887   C     0.15322   0.48793   0.93776   0.00000  Uiso   1.00
C888   C     0.12502   0.61303   0.65213   0.00000  Uiso   1.00
C889   C     0.31967   0.40666   0.68319   0.00000  Uiso   1.00
C890   C     0.04715   0.50485   0.59135   0.00000  Uiso   1.00
C891   C     0.17819   0.49086   0.51729   0.00000  Uiso   1.00
C892   C     0.21737   0.46309   0.99367   0.00000  Uiso   1.00
C893   C     0.22242   0.44678   0.94445   0.00000  Uiso   1.00
C894   C     0.19096   0.45893   0.91692   0.00000  Uiso   1.00
C895   C     0.17631   0.50711   0.56642   0.00000  Uiso   1.00
C896   C     0.24542   0.46527   0.57021   0.00000  Uiso   1.00
Cu897  Cu    0.11978   0.49999   0.75000   0.00000  Uiso   1.00
Cu898  Cu    0.21355   0.50001   0.75000   0.00000  Uiso   1.00
H899   H     0.26940   0.45343   0.59137   0.00000  Uiso   1.00
H900   H     0.19600   0.44443   0.87937   0.00000  Uiso   1.00
H901   H     0.16687   0.62855   0.82770   0.00000  Uiso   1.00
H902   H     0.13254   0.41604   0.62833   0.00000  Uiso   1.00
H903   H     0.09840   0.38526   0.68249   0.00000  Uiso   1.00
H904   H     0.12444   0.36200   0.61856   0.00000  Uiso   1.00
H905   H     0.09465   0.63351   0.67496   0.00000  Uiso   1.00
H906   H     0.11649   0.58043   0.66442   0.00000  Uiso   1.00
H907   H     0.12585   0.61491   0.61070   0.00000  Uiso   1.00
H908   H     0.27418   0.54803   0.80634   0.00000  Uiso   1.00
H909   H     0.29514   0.38546   0.67002   0.00000  Uiso   1.00
H910   H     0.16654   0.37131   0.82829   0.00000  Uiso   1.00
H911   H     0.02304   0.40498   0.65379   0.00000  Uiso   1.00
H912   H     0.32110   0.39523   0.72179   0.00000  Uiso   1.00
H913   H     0.06497   0.47449   0.59346   0.00000  Uiso   1.00
H914   H     0.01705   0.50093   0.57331   0.00000  Uiso   1.00
H915   H     0.03006   0.51635   0.63147   0.00000  Uiso   1.00
H916   H     0.02760   0.54775   0.80662   0.00000  Uiso   1.00
H917   H     0.06030   0.45324   0.69299   0.00000  Uiso   1.00
H918   H     0.25127   0.42470   0.92678   0.00000  Uiso   1.00
H919   H     0.28062   0.42991   0.50204   0.00000  Uiso   1.00
H920   H     0.15146   0.53130   0.58502   0.00000  Uiso   1.00
H921   H     0.06034   0.53879   0.90704   0.00000  Uiso   1.00
H922   H     0.03682   0.55455   0.99941   0.00000  Uiso   1.00
N923   N     0.04931   0.49999   0.74999   0.00000  Uiso   1.00
N924   N     0.28402   0.50002   0.74999   0.00000  Uiso   1.00
O925   O     0.12708   0.56011   0.75001   0.00000  Uiso   1.00
O926   O     0.17188   0.62388   0.65566   0.00000  Uiso   1.00
O927   O     0.30060   0.44728   0.68574   0.00000  Uiso   1.00
O928   O     0.08212   0.53436   0.56520   0.00000  Uiso   1.00
O929   O     0.20627   0.56012   0.75000   0.00000  Uiso   1.00
O930   O     0.10775   0.49998   0.82549   0.00000  Uiso   1.00
O931   O     0.18694   0.49999   0.82549   0.00000  Uiso   1.00
O932   O     0.12706   0.43988   0.75000   0.00000  Uiso   1.00
O933   O     0.20625   0.43989   0.74999   0.00000  Uiso   1.00
O934   O     0.14640   0.50001   0.67451   0.00000  Uiso   1.00
O935   O     0.22559   0.50002   0.67451   0.00000  Uiso   1.00
O936   O     0.17581   0.37704   0.65590   0.00000  Uiso   1.00
C937   C     0.50035   0.57919   0.74862   0.00000  Uiso   1.00
C938   C     0.45783   0.50314   0.90704   0.00000  Uiso   1.00
C939   C     0.50035   0.64517   0.79268   0.00000  Uiso   1.00
C940   C     0.47378   0.49950   0.85003   0.00000  Uiso   1.00
C941   C     0.50022   0.35477   0.79302   0.00000  Uiso   1.00
C942   C     0.50058   0.37623   0.74798   0.00000  Uiso   1.00
C943   C     0.50140   0.35520   0.70189   0.00000  Uiso   1.00
C944   C     0.50041   0.64506   0.70179   0.00000  Uiso   1.00
C945   C     0.50032   0.62378   0.74748   0.00000  Uiso   1.00
C946   C     0.63315   0.52659   0.78131   0.00000  Uiso   1.00
C947   C     0.34932   0.52647   0.78144   0.00000  Uiso   1.00
C948   C     0.47672   0.50145   0.99042   0.00000  Uiso   1.00
C949   C     0.36697   0.47325   0.71888   0.00000  Uiso   1.00
C950   C     0.65009   0.47250   0.71924   0.00000  Uiso   1.00
C951   C     0.50020   0.42080   0.74935   0.00000  Uiso   1.00
C952   C     0.52614   0.49931   0.65010   0.00000  Uiso   1.00
C953   C     0.58436   0.45127   0.51985   0.00000  Uiso   1.00
C954   C     0.54051   0.49239   0.59397   0.00000  Uiso   1.00
C955   C     0.41599   0.52680   0.92999   0.00000  Uiso   1.00
C956   C     0.40305   0.53652   0.98234   0.00000  Uiso   1.00
C957   C     0.43205   0.52391   0.51317   0.00000  Uiso   1.00
C958   C     0.46390   0.38505   0.64667   0.00000  Uiso   1.00
C959   C     0.48655   0.48793   0.93776   0.00000  Uiso   1.00
C960   C     0.45835   0.61303   0.65213   0.00000  Uiso   1.00
C961   C     0.65301   0.40666   0.68319   0.00000  Uiso   1.00
C962   C     0.38048   0.50485   0.59135   0.00000  Uiso   1.00
C963   C     0.51153   0.49086   0.51729   0.00000  Uiso   1.00
C964   C     0.55070   0.46309   0.99367   0.00000  Uiso   1.00
C965   C     0.55576   0.44678   0.94445   0.00000  Uiso   1.00
C966   C     0.52429   0.45893   0.91692   0.00000  Uiso   1.00
C967   C     0.50964   0.50711   0.56642   0.00000  Uiso   1.00
C968   C     0.57875   0.46527   0.57021   0.00000  Uiso   1.00
Cu969  Cu    0.45311   0.49999   0.75000   0.00000  Uiso   1.00
Cu970  Cu    0.54689   0.50001   0.75000   0.00000  Uiso   1.00
H971   H     0.60273   0.45343   0.59137   0.00000  Uiso   1.00
H972   H     0.52934   0.44443   0.87937   0.00000  Uiso   1.00
H973   H     0.50021   0.62855   0.82770   0.00000  Uiso   1.00
H974   H     0.46587   0.41604   0.62833   0.00000  Uiso   1.00
H975   H     0.43173   0.38526   0.68249   0.00000  Uiso   1.00
H976   H     0.45777   0.36200   0.61856   0.00000  Uiso   1.00
H977   H     0.42799   0.63351   0.67496   0.00000  Uiso   1.00
H978   H     0.44982   0.58043   0.66442   0.00000  Uiso   1.00
H979   H     0.45919   0.61491   0.61070   0.00000  Uiso   1.00
H980   H     0.60752   0.54803   0.80634   0.00000  Uiso   1.00
H981   H     0.62847   0.38546   0.67002   0.00000  Uiso   1.00
H982   H     0.49987   0.37131   0.82829   0.00000  Uiso   1.00
H983   H     0.35637   0.40498   0.65379   0.00000  Uiso   1.00
H984   H     0.65443   0.39523   0.72179   0.00000  Uiso   1.00
H985   H     0.39831   0.47449   0.59346   0.00000  Uiso   1.00
H986   H     0.35038   0.50093   0.57331   0.00000  Uiso   1.00
H987   H     0.36340   0.51635   0.63147   0.00000  Uiso   1.00
H988   H     0.36094   0.54775   0.80662   0.00000  Uiso   1.00
H989   H     0.39363   0.45324   0.69299   0.00000  Uiso   1.00
H990   H     0.58460   0.42470   0.92678   0.00000  Uiso   1.00
H991   H     0.61395   0.42991   0.50204   0.00000  Uiso   1.00
H992   H     0.48480   0.53130   0.58502   0.00000  Uiso   1.00
H993   H     0.39367   0.53879   0.90704   0.00000  Uiso   1.00
H994   H     0.37015   0.55455   0.99941   0.00000  Uiso   1.00
N995   N     0.38265   0.49999   0.74999   0.00000  Uiso   1.00
N996   N     0.61735   0.50002   0.74999   0.00000  Uiso   1.00
O997   O     0.46042   0.56011   0.75001   0.00000  Uiso   1.00
O998   O     0.50521   0.62388   0.65566   0.00000  Uiso   1.00
O999   O     0.63393   0.44728   0.68574   0.00000  Uiso   1.00
O1000  O     0.41545   0.53436   0.56520   0.00000  Uiso   1.00
O1001  O     0.53961   0.56012   0.75000   0.00000  Uiso   1.00
O1002  O     0.44108   0.49998   0.82549   0.00000  Uiso   1.00
O1003  O     0.52027   0.49999   0.82549   0.00000  Uiso   1.00
O1004  O     0.46039   0.43988   0.75000   0.00000  Uiso   1.00
O1005  O     0.53958   0.43989   0.74999   0.00000  Uiso   1.00
O1006  O     0.47973   0.50001   0.67451   0.00000  Uiso   1.00
O1007  O     0.55892   0.50002   0.67451   0.00000  Uiso   1.00
O1008  O     0.50915   0.37704   0.65590   0.00000  Uiso   1.00
C1009  C     0.83368   0.57919   0.74862   0.00000  Uiso   1.00
C1010  C     0.79116   0.50314   0.90704   0.00000  Uiso   1.00
C1011  C     0.83369   0.64517   0.79268   0.00000  Uiso   1.00
C1012  C     0.80712   0.49950   0.85003   0.00000  Uiso   1.00
C1013  C     0.83356   0.35477   0.79302   0.00000  Uiso   1.00
C1014  C     0.83391   0.37623   0.74798   0.00000  Uiso   1.00
C1015  C     0.83474   0.35520   0.70189   0.00000  Uiso   1.00
C1016  C     0.83375   0.64506   0.70179   0.00000  Uiso   1.00
C1017  C     0.83365   0.62378   0.74748   0.00000  Uiso   1.00
C1018  C     0.96649   0.52659   0.78131   0.00000  Uiso   1.00
C1019  C     0.68265   0.52647   0.78144   0.00000  Uiso   1.00
C1020  C     0.81006   0.50145   0.99042   0.00000  Uiso   1.00
C1021  C     0.70031   0.47325   0.71888   0.00000  Uiso   1.00
C1022  C     0.98343   0.47250   0.71924   0.00000  Uiso   1.00
C1023  C     0.83353   0.42080   0.74935   0.00000  Uiso   1.00
C1024  C     0.85947   0.49931   0.65010   0.00000  Uiso   1.00
C1025  C     0.91769   0.45127   0.51985   0.00000  Uiso   1.00
C1026  C     0.87385   0.49239   0.59397   0.00000  Uiso   1.00
C1027  C     0.74933   0.52680   0.92999   0.00000  Uiso   1.00
C1028  C     0.73639   0.53652   0.98234   0.00000  Uiso   1.00
C1029  C     0.76539   0.52391   0.51317   0.00000  Uiso   1.00
C1030  C     0.79723   0.38505   0.64667   0.00000  Uiso   1.00
C1031  C     0.81988   0.48793   0.93776   0.00000  Uiso   1.00
C1032  C     0.79169   0.61303   0.65213   0.00000  Uiso   1.00
C1033  C     0.98634   0.40666   0.68319   0.00000  Uiso   1.00
C1034  C     0.71382   0.50485   0.59135   0.00000  Uiso   1.00
C1035  C     0.84486   0.49086   0.51729   0.00000  Uiso   1.00
C1036  C     0.88404   0.46309   0.99367   0.00000  Uiso   1.00
C1037  C     0.88909   0.44678   0.94445   0.00000  Uiso   1.00
C1038  C     0.85763   0.45893   0.91692   0.00000  Uiso   1.00
C1039  C     0.84298   0.50711   0.56642   0.00000  Uiso   1.00
C1040  C     0.91209   0.46527   0.57021   0.00000  Uiso   1.00
Cu1041 Cu    0.78645   0.49999   0.75000   0.00000  Uiso   1.00
Cu1042 Cu    0.88022   0.50001   0.75000   0.00000  Uiso   1.00
H1043  H     0.93606   0.45343   0.59137   0.00000  Uiso   1.00
H1044  H     0.86267   0.44443   0.87937   0.00000  Uiso   1.00
H1045  H     0.83354   0.62855   0.82770   0.00000  Uiso   1.00
H1046  H     0.79920   0.41604   0.62833   0.00000  Uiso   1.00
H1047  H     0.76506   0.38526   0.68249   0.00000  Uiso   1.00
H1048  H     0.79111   0.36200   0.61856   0.00000  Uiso   1.00
H1049  H     0.76132   0.63351   0.67496   0.00000  Uiso   1.00
H1050  H     0.78315   0.58043   0.66442   0.00000  Uiso   1.00
H1051  H     0.79252   0.61491   0.61070   0.00000  Uiso   1.00
H1052  H     0.94085   0.54803   0.80634   0.00000  Uiso   1.00
H1053  H     0.96181   0.38546   0.67002   0.00000  Uiso   1.00
H1054  H     0.83320   0.37131   0.82829   0.00000  Uiso   1.00
H1055  H     0.68970   0.40498   0.65379   0.00000  Uiso   1.00
H1056  H     0.98776   0.39523   0.72179   0.00000  Uiso   1.00
H1057  H     0.73164   0.47449   0.59346   0.00000  Uiso   1.00
H1058  H     0.68372   0.50093   0.57331   0.00000  Uiso   1.00
H1059  H     0.69673   0.51635   0.63147   0.00000  Uiso   1.00
H1060  H     0.69427   0.54775   0.80662   0.00000  Uiso   1.00
H1061  H     0.72696   0.45324   0.69299   0.00000  Uiso   1.00
H1062  H     0.91793   0.42470   0.92678   0.00000  Uiso   1.00
H1063  H     0.94729   0.42991   0.50204   0.00000  Uiso   1.00
H1064  H     0.81813   0.53130   0.58502   0.00000  Uiso   1.00
H1065  H     0.72700   0.53879   0.90704   0.00000  Uiso   1.00
H1066  H     0.70348   0.55455   0.99941   0.00000  Uiso   1.00
N1067  N     0.71598   0.49999   0.74999   0.00000  Uiso   1.00
N1068  N     0.95069   0.50002   0.74999   0.00000  Uiso   1.00
O1069  O     0.79375   0.56011   0.75001   0.00000  Uiso   1.00
O1070  O     0.83854   0.62388   0.65566   0.00000  Uiso   1.00
O1071  O     0.96727   0.44728   0.68574   0.00000  Uiso   1.00
O1072  O     0.74878   0.53436   0.56520   0.00000  Uiso   1.00
O1073  O     0.87294   0.56012   0.75000   0.00000  Uiso   1.00
O1074  O     0.77441   0.49998   0.82549   0.00000  Uiso   1.00
O1075  O     0.85360   0.49999   0.82549   0.00000  Uiso   1.00
O1076  O     0.79373   0.43988   0.75000   0.00000  Uiso   1.00
O1077  O     0.87292   0.43989   0.74999   0.00000  Uiso   1.00
O1078  O     0.81306   0.50001   0.67451   0.00000  Uiso   1.00
O1079  O     0.89225   0.50002   0.67451   0.00000  Uiso   1.00
O1080  O     0.84248   0.37704   0.65590   0.00000  Uiso   1.00
C1081  C     0.16701   0.91253   0.74862   0.00000  Uiso   1.00
C1082  C     0.12449   0.83647   0.90704   0.00000  Uiso   1.00
C1083  C     0.16702   0.97850   0.79268   0.00000  Uiso   1.00
C1084  C     0.14045   0.83283   0.85003   0.00000  Uiso   1.00
C1085  C     0.16689   0.68810   0.79302   0.00000  Uiso   1.00
C1086  C     0.16725   0.70956   0.74798   0.00000  Uiso   1.00
C1087  C     0.16807   0.68853   0.70189   0.00000  Uiso   1.00
C1088  C     0.16708   0.97840   0.70179   0.00000  Uiso   1.00
C1089  C     0.16698   0.95711   0.74748   0.00000  Uiso   1.00
C1090  C     0.29982   0.85993   0.78131   0.00000  Uiso   1.00
C1091  C     0.01599   0.85980   0.78144   0.00000  Uiso   1.00
C1092  C     0.14339   0.83478   0.99042   0.00000  Uiso   1.00
C1093  C     0.03364   0.80659   0.71888   0.00000  Uiso   1.00
C1094  C     0.31676   0.80583   0.71924   0.00000  Uiso   1.00
C1095  C     0.16686   0.75413   0.74935   0.00000  Uiso   1.00
C1096  C     0.19281   0.83264   0.65010   0.00000  Uiso   1.00
C1097  C     0.25103   0.78460   0.51985   0.00000  Uiso   1.00
C1098  C     0.20718   0.82573   0.59397   0.00000  Uiso   1.00
C1099  C     0.08266   0.86013   0.92999   0.00000  Uiso   1.00
C1100  C     0.06972   0.86985   0.98234   0.00000  Uiso   1.00
C1101  C     0.09872   0.85724   0.51317   0.00000  Uiso   1.00
C1102  C     0.13056   0.71838   0.64667   0.00000  Uiso   1.00
C1103  C     0.15322   0.82126   0.93776   0.00000  Uiso   1.00
C1104  C     0.12502   0.94636   0.65213   0.00000  Uiso   1.00
C1105  C     0.31967   0.74000   0.68319   0.00000  Uiso   1.00
C1106  C     0.04715   0.83818   0.59135   0.00000  Uiso   1.00
C1107  C     0.17819   0.82419   0.51729   0.00000  Uiso   1.00
C1108  C     0.21737   0.79642   0.99367   0.00000  Uiso   1.00
C1109  C     0.22242   0.78011   0.94445   0.00000  Uiso   1.00
C1110  C     0.19096   0.79226   0.91692   0.00000  Uiso   1.00
C1111  C     0.17631   0.84044   0.56642   0.00000  Uiso   1.00
C1112  C     0.24542   0.79861   0.57021   0.00000  Uiso   1.00
Cu1113 Cu    0.11978   0.83333   0.75000   0.00000  Uiso   1.00
Cu1114 Cu    0.21355   0.83334   0.75000   0.00000  Uiso   1.00
H1115  H     0.26940   0.78677   0.59137   0.00000  Uiso   1.00
H1116  H     0.19600   0.77777   0.87937   0.00000  Uiso   1.00
H1117  H     0.16687   0.96188   0.82770   0.00000  Uiso   1.00
H1118  H     0.13254   0.74937   0.62833   0.00000  Uiso   1.00
H1119  H     0.09840   0.71859   0.68249   0.00000  Uiso   1.00
H1120  H     0.12444   0.69533   0.61856   0.00000  Uiso   1.00
H1121  H     0.09465   0.96684   0.67496   0.00000  Uiso   1.00
H1122  H     0.11649   0.91377   0.66442   0.00000  Uiso   1.00
H1123  H     0.12585   0.94824   0.61070   0.00000  Uiso   1.00
H1124  H     0.27418   0.88136   0.80634   0.00000  Uiso   1.00
H1125  H     0.29514   0.71879   0.67002   0.00000  Uiso   1.00
H1126  H     0.16654   0.70464   0.82829   0.00000  Uiso   1.00
H1127  H     0.02304   0.73831   0.65379   0.00000  Uiso   1.00
H1128  H     0.32110   0.72856   0.72179   0.00000  Uiso   1.00
H1129  H     0.06497   0.80782   0.59346   0.00000  Uiso   1.00
H1130  H     0.01705   0.83426   0.57331   0.00000  Uiso   1.00
H1131  H     0.03006   0.84968   0.63147   0.00000  Uiso   1.00
H1132  H     0.02760   0.88108   0.80662   0.00000  Uiso   1.00
H1133  H     0.06030   0.78657   0.69299   0.00000  Uiso   1.00
H1134  H     0.25127   0.75804   0.92678   0.00000  Uiso   1.00
H1135  H     0.28062   0.76324   0.50204   0.00000  Uiso   1.00
H1136  H     0.15146   0.86463   0.58502   0.00000  Uiso   1.00
H1137  H     0.06034   0.87212   0.90704   0.00000  Uiso   1.00
H1138  H     0.03682   0.88788   0.99941   0.00000  Uiso   1.00
N1139  N     0.04931   0.83332   0.74999   0.00000  Uiso   1.00
N1140  N     0.28402   0.83335   0.74999   0.00000  Uiso   1.00
O1141  O     0.12708   0.89345   0.75001   0.00000  Uiso   1.00
O1142  O     0.17188   0.95721   0.65566   0.00000  Uiso   1.00
O1143  O     0.30060   0.78061   0.68574   0.00000  Uiso   1.00
O1144  O     0.08212   0.86769   0.56520   0.00000  Uiso   1.00
O1145  O     0.20627   0.89346   0.75000   0.00000  Uiso   1.00
O1146  O     0.10775   0.83332   0.82549   0.00000  Uiso   1.00
O1147  O     0.18694   0.83333   0.82549   0.00000  Uiso   1.00
O1148  O     0.12706   0.77321   0.75000   0.00000  Uiso   1.00
O1149  O     0.20625   0.77322   0.74999   0.00000  Uiso   1.00
O1150  O     0.14640   0.83334   0.67451   0.00000  Uiso   1.00
O1151  O     0.22559   0.83335   0.67451   0.00000  Uiso   1.00
O1152  O     0.17581   0.71038   0.65590   0.00000  Uiso   1.00
C1153  C     0.50035   0.91253   0.74862   0.00000  Uiso   1.00
C1154  C     0.45783   0.83647   0.90704   0.00000  Uiso   1.00
C1155  C     0.50035   0.97850   0.79268   0.00000  Uiso   1.00
C1156  C     0.47378   0.83283   0.85003   0.00000  Uiso   1.00
C1157  C     0.50022   0.68810   0.79302   0.00000  Uiso   1.00
C1158  C     0.50058   0.70956   0.74798   0.00000  Uiso   1.00
C1159  C     0.50140   0.68853   0.70189   0.00000  Uiso   1.00
C1160  C     0.50041   0.97840   0.70179   0.00000  Uiso   1.00
C1161  C     0.50032   0.95711   0.74748   0.00000  Uiso   1.00
C1162  C     0.63315   0.85993   0.78131   0.00000  Uiso   1.00
C1163  C     0.34932   0.85980   0.78144   0.00000  Uiso   1.00
C1164  C     0.47672   0.83478   0.99042   0.00000  Uiso   1.00
C1165  C     0.36697   0.80659   0.71888   0.00000  Uiso   1.00
C1166  C     0.65009   0.80583   0.71924   0.00000  Uiso   1.00
C1167  C     0.50020   0.75413   0.74935   0.00000  Uiso   1.00
C1168  C     0.52614   0.83264   0.65010   0.00000  Uiso   1.00
C1169  C     0.58436   0.78460   0.51985   0.00000  Uiso   1.00
C1170  C     0.54051   0.82573   0.59397   0.00000  Uiso   1.00
C1171  C     0.41599   0.86013   0.92999   0.00000  Uiso   1.00
C1172  C     0.40305   0.86985   0.98234   0.00000  Uiso   1.00
C1173  C     0.43205   0.85724   0.51317   0.00000  Uiso   1.00
C1174  C     0.46390   0.71838   0.64667   0.00000  Uiso   1.00
C1175  C     0.48655   0.82126   0.93776   0.00000  Uiso   1.00
C1176  C     0.45835   0.94636   0.65213   0.00000  Uiso   1.00
C1177  C     0.65301   0.74000   0.68319   0.00000  Uiso   1.00
C1178  C     0.38048   0.83818   0.59135   0.00000  Uiso   1.00
C1179  C     0.51153   0.82419   0.51729   0.00000  Uiso   1.00
C1180  C     0.55070   0.79642   0.99367   0.00000  Uiso   1.00
C1181  C     0.55576   0.78011   0.94445   0.00000  Uiso   1.00
C1182  C     0.52429   0.79226   0.91692   0.00000  Uiso   1.00
C1183  C     0.50964   0.84044   0.56642   0.00000  Uiso   1.00
C1184  C     0.57875   0.79861   0.57021   0.00000  Uiso   1.00
Cu1185 Cu    0.45311   0.83333   0.75000   0.00000  Uiso   1.00
Cu1186 Cu    0.54689   0.83334   0.75000   0.00000  Uiso   1.00
H1187  H     0.60273   0.78677   0.59137   0.00000  Uiso   1.00
H1188  H     0.52934   0.77777   0.87937   0.00000  Uiso   1.00
H1189  H     0.50021   0.96188   0.82770   0.00000  Uiso   1.00
H1190  H     0.46587   0.74937   0.62833   0.00000  Uiso   1.00
H1191  H     0.43173   0.71859   0.68249   0.00000  Uiso   1.00
H1192  H     0.45777   0.69533   0.61856   0.00000  Uiso   1.00
H1193  H     0.42799   0.96684   0.67496   0.00000  Uiso   1.00
H1194  H     0.44982   0.91377   0.66442   0.00000  Uiso   1.00
H1195  H     0.45919   0.94824   0.61070   0.00000  Uiso   1.00
H1196  H     0.60752   0.88136   0.80634   0.00000  Uiso   1.00
H1197  H     0.62847   0.71879   0.67002   0.00000  Uiso   1.00
H1198  H     0.49987   0.70464   0.82829   0.00000  Uiso   1.00
H1199  H     0.35637   0.73831   0.65379   0.00000  Uiso   1.00
H1200  H     0.65443   0.72856   0.72179   0.00000  Uiso   1.00
H1201  H     0.39831   0.80782   0.59346   0.00000  Uiso   1.00
H1202  H     0.35038   0.83426   0.57331   0.00000  Uiso   1.00
H1203  H     0.36340   0.84968   0.63147   0.00000  Uiso   1.00
H1204  H     0.36094   0.88108   0.80662   0.00000  Uiso   1.00
H1205  H     0.39363   0.78657   0.69299   0.00000  Uiso   1.00
H1206  H     0.58460   0.75804   0.92678   0.00000  Uiso   1.00
H1207  H     0.61395   0.76324   0.50204   0.00000  Uiso   1.00
H1208  H     0.48480   0.86463   0.58502   0.00000  Uiso   1.00
H1209  H     0.39367   0.87212   0.90704   0.00000  Uiso   1.00
H1210  H     0.37015   0.88788   0.99941   0.00000  Uiso   1.00
N1211  N     0.38265   0.83332   0.74999   0.00000  Uiso   1.00
N1212  N     0.61735   0.83335   0.74999   0.00000  Uiso   1.00
O1213  O     0.46042   0.89345   0.75001   0.00000  Uiso   1.00
O1214  O     0.50521   0.95721   0.65566   0.00000  Uiso   1.00
O1215  O     0.63393   0.78061   0.68574   0.00000  Uiso   1.00
O1216  O     0.41545   0.86769   0.56520   0.00000  Uiso   1.00
O1217  O     0.53961   0.89346   0.75000   0.00000  Uiso   1.00
O1218  O     0.44108   0.83332   0.82549   0.00000  Uiso   1.00
O1219  O     0.52027   0.83333   0.82549   0.00000  Uiso   1.00
O1220  O     0.46039   0.77321   0.75000   0.00000  Uiso   1.00
O1221  O     0.53958   0.77322   0.74999   0.00000  Uiso   1.00
O1222  O     0.47973   0.83334   0.67451   0.00000  Uiso   1.00
O1223  O     0.55892   0.83335   0.67451   0.00000  Uiso   1.00
O1224  O     0.50915   0.71038   0.65590   0.00000  Uiso   1.00
C1225  C     0.83368   0.91253   0.74862   0.00000  Uiso   1.00
C1226  C     0.79116   0.83647   0.90704   0.00000  Uiso   1.00
C1227  C     0.83369   0.97850   0.79268   0.00000  Uiso   1.00
C1228  C     0.80712   0.83283   0.85003   0.00000  Uiso   1.00
C1229  C     0.83356   0.68810   0.79302   0.00000  Uiso   1.00
C1230  C     0.83391   0.70956   0.74798   0.00000  Uiso   1.00
C1231  C     0.83474   0.68853   0.70189   0.00000  Uiso   1.00
C1232  C     0.83375   0.97840   0.70179   0.00000  Uiso   1.00
C1233  C     0.83365   0.95711   0.74748   0.00000  Uiso   1.00
C1234  C     0.96649   0.85993   0.78131   0.00000  Uiso   1.00
C1235  C     0.68265   0.85980   0.78144   0.00000  Uiso   1.00
C1236  C     0.81006   0.83478   0.99042   0.00000  Uiso   1.00
C1237  C     0.70031   0.80659   0.71888   0.00000  Uiso   1.00
C1238  C     0.98343   0.80583   0.71924   0.00000  Uiso   1.00
C1239  C     0.83353   0.75413   0.74935   0.00000  Uiso   1.00
C1240  C     0.85947   0.83264   0.65010   0.00000  Uiso   1.00
C1241  C     0.91769   0.78460   0.51985   0.00000  Uiso   1.00
C1242  C     0.87385   0.82573   0.59397   0.00000  Uiso   1.00
C1243  C     0.74933   0.86013   0.92999   0.00000  Uiso   1.00
C1244  C     0.73639   0.86985   0.98234   0.00000  Uiso   1.00
C1245  C     0.76539   0.85724   0.51317   0.00000  Uiso   1.00
C1246  C     0.79723   0.71838   0.64667   0.00000  Uiso   1.00
C1247  C     0.81988   0.82126   0.93776   0.00000  Uiso   1.00
C1248  C     0.79169   0.94636   0.65213   0.00000  Uiso   1.00
C1249  C     0.98634   0.74000   0.68319   0.00000  Uiso   1.00
C1250  C     0.71382   0.83818   0.59135   0.00000  Uiso   1.00
C1251  C     0.84486   0.82419   0.51729   0.00000  Uiso   1.00
C1252  C     0.88404   0.79642   0.99367   0.00000  Uiso   1.00
C1253  C     0.88909   0.78011   0.94445   0.00000  Uiso   1.00
C1254  C     0.85763   0.79226   0.91692   0.00000  Uiso   1.00
C1255  C     0.84298   0.84044   0.56642   0.00000  Uiso   1.00
C1256  C     0.91209   0.79861   0.57021   0.00000  Uiso   1.00
Cu1257 Cu    0.78645   0.83333   0.75000   0.00000  Uiso   1.00
Cu1258 Cu    0.88022   0.83334   0.75000   0.00000  Uiso   1.00
H1259  H     0.93606   0.78677   0.59137   0.00000  Uiso   1.00
H1260  H     0.86267   0.77777   0.87937   0.00000  Uiso   1.00
H1261  H     0.83354   0.96188   0.82770   0.00000  Uiso   1.00
H1262  H     0.79920   0.74937   0.62833   0.00000  Uiso   1.00
H1263  H     0.76506   0.71859   0.68249   0.00000  Uiso   1.00
H1264  H     0.79111   0.69533   0.61856   0.00000  Uiso   1.00
H1265  H     0.76132   0.96684   0.67496   0.00000  Uiso   1.00
H1266  H     0.78315   0.91377   0.66442   0.00000  Uiso   1.00
H1267  H     0.79252   0.94824   0.61070   0.00000  Uiso   1.00
H1268  H     0.94085   0.88136   0.80634   0.00000  Uiso   1.00
H1269  H     0.96181   0.71879   0.67002   0.00000  Uiso   1.00
H1270  H     0.83320   0.70464   0.82829   0.00000  Uiso   1.00
H1271  H     0.68970   0.73831   0.65379   0.00000  Uiso   1.00
H1272  H     0.98776   0.72856   0.72179   0.00000  Uiso   1.00
H1273  H     0.73164   0.80782   0.59346   0.00000  Uiso   1.00
H1274  H     0.68372   0.83426   0.57331   0.00000  Uiso   1.00
H1275  H     0.69673   0.84968   0.63147   0.00000  Uiso   1.00
H1276  H     0.69427   0.88108   0.80662   0.00000  Uiso   1.00
H1277  H     0.72696   0.78657   0.69299   0.00000  Uiso   1.00
H1278  H     0.91793   0.75804   0.92678   0.00000  Uiso   1.00
H1279  H     0.94729   0.76324   0.50204   0.00000  Uiso   1.00
H1280  H     0.81813   0.86463   0.58502   0.00000  Uiso   1.00
H1281  H     0.72700   0.87212   0.90704   0.00000  Uiso   1.00
H1282  H     0.70348   0.88788   0.99941   0.00000  Uiso   1.00
N1283  N     0.71598   0.83332   0.74999   0.00000  Uiso   1.00
N1284  N     0.95069   0.83335   0.74999   0.00000  Uiso   1.00
O1285  O     0.79375   0.89345   0.75001   0.00000  Uiso   1.00
O1286  O     0.83854   0.95721   0.65566   0.00000  Uiso   1.00
O1287  O     0.96727   0.78061   0.68574   0.00000  Uiso   1.00
O1288  O     0.74878   0.86769   0.56520   0.00000  Uiso   1.00
O1289  O     0.87294   0.89346   0.75000   0.00000  Uiso   1.00
O1290  O     0.77441   0.83332   0.82549   0.00000  Uiso   1.00
O1291  O     0.85360   0.83333   0.82549   0.00000  Uiso   1.00
O1292  O     0.79373   0.77321   0.75000   0.00000  Uiso   1.00
O1293  O     0.87292   0.77322   0.74999   0.00000  Uiso   1.00
O1294  O     0.81306   0.83334   0.67451   0.00000  Uiso   1.00
O1295  O     0.89225   0.83335   0.67451   0.00000  Uiso   1.00
O1296  O     0.84248   0.71038   0.65590   0.00000  Uiso   1.00
loop_
_geom_bond_atom_site_label_1
_geom_bond_atom_site_label_2
_geom_bond_distance
_geom_bond_site_symmetry_2
_ccdc_geom_bond_type
C1     O65     1.290   .     A
C1     C9      1.437   .     S
C1     O61     1.287   .     A
C2     C4      1.468   .     S
C2     C19     1.396   .     A
C2     C23     1.416   .     A
C3     C9      1.396   .     A
C3     H37     1.084   .     S
C3     C221    1.383   .     S
C4     O67     1.295   .     A
C4     O66     1.295   .     A
C5     H46     1.084   .     S
C5     C6      1.394   .     A
C5     C435    1.383   1_545 S
C6     C7      1.405   .     A
C6     C15     1.437   .     S
C7     O72     1.385   .     S
C7     C440    1.401   1_545 S
C8     C9      1.409   .     A
C8     O62     1.385   .     S
C8     C223    1.401   .     S
C10    N60     1.367   .     A
C10    H44     1.082   .     S
C10    C83     1.416   .     S
C11    N59     1.366   .     A
C11    H52     1.082   .     S
C11    C154    1.416   1_455 S
C12    C23     1.426   .     A
C12    C669    1.435   .     S
C12    C675    1.435   .     S
C13    N59     1.364   .     A
C13    H53     1.078   .     S
C13    C158    1.433   1_455 S
C14    O63     1.389   .     S
C14    N60     1.371   .     A
C14    C85     1.433   .     S
C15    O68     1.289   .     A
C15    O69     1.287   .     A
C16    O70     1.293   .     A
C16    O71     1.295   .     A
C16    C18     1.458   .     S
C17    C32     1.390   .     A
C17    H55     1.084   .     S
C17    C676    1.404   1_554 S
C18    C32     1.395   .     A
C18    C31     1.395   .     A
C19    C20     1.380   .     A
C19    H57     1.084   .     S
C20    H58     1.083   .     S
C20    C669    1.397   .     S
C21    O64     1.377   .     S
C21    C668    1.397   1_554 S
C21    C660    1.435   1_554 S
C22    H40     1.109   .     S
C22    O72     1.412   .     S
C22    H38     1.109   .     S
C22    H39     1.116   .     S
C23    C30     1.410   .     A
C24    H42     1.107   .     S
C24    H41     1.116   .     S
C24    H43     1.109   .     S
C24    O62     1.414   .     S
C25    H48     1.115   .     S
C25    H45     1.109   .     S
C25    O63     1.412   .     S
C25    H119    1.110   .     S
C26    H50     1.114   .     S
C26    H49     1.113   .     S
C26    O64     1.408   .     S
C26    H51     1.106   .     S
C27    C31     1.406   .     A
C27    C660    1.435   1_554 S
C27    C676    1.425   1_554 S
C28    C29     1.390   .     A
C28    C665    1.404   .     S
C28    C675    1.425   .     S
C29    H54     1.084   .     S
C29    C30     1.382   .     A
C30    H36     1.081   .     S
C31    H56     1.071   .     S
C32    H35     1.083   .     S
Cu33   Cu34    2.680   .     S
Cu33   N59     2.014   .     S
Cu33   O70     1.944   .     S
Cu33   O61     1.949   .     S
Cu33   O66     1.956   .     S
Cu33   O68     1.949   .     S
Cu34   O67     1.944   .     S
Cu34   N60     2.014   .     S
Cu34   O65     1.949   .     S
Cu34   O69     1.949   .     S
Cu34   O71     1.956   .     S
H47    C169    1.110   1_455 S
C73    O137    1.290   .     A
C73    C81     1.437   .     S
C73    O133    1.287   .     A
C74    C76     1.468   .     S
C74    C91     1.396   .     A
C74    C95     1.416   .     A
C75    C81     1.396   .     A
C75    H109    1.084   .     S
C75    C293    1.383   .     S
C76    O139    1.295   .     A
C76    O138    1.295   .     A
C77    H118    1.084   .     S
C77    C78     1.394   .     A
C77    C507    1.383   1_545 S
C78    C79     1.405   .     A
C78    C87     1.437   .     S
C79    O144    1.385   .     S
C79    C512    1.401   1_545 S
C80    C81     1.409   .     A
C80    O134    1.385   .     S
C80    C295    1.401   .     S
C82    N132    1.367   .     A
C82    H116    1.082   .     S
C82    C155    1.416   .     S
C83    N131    1.366   .     A
C83    H124    1.082   .     S
C84    C95     1.426   .     A
C84    C741    1.435   .     S
C84    C747    1.435   .     S
C85    N131    1.364   .     A
C85    H125    1.078   .     S
C86    O135    1.389   .     S
C86    N132    1.371   .     A
C86    C157    1.433   .     S
C87    O140    1.289   .     A
C87    O141    1.287   .     A
C88    O142    1.293   .     A
C88    O143    1.295   .     A
C88    C90     1.458   .     S
C89    C104    1.390   .     A
C89    H127    1.084   .     S
C89    C748    1.404   1_554 S
C90    C104    1.395   .     A
C90    C103    1.395   .     A
C91    C92     1.380   .     A
C91    H129    1.084   .     S
C92    H130    1.083   .     S
C92    C741    1.397   .     S
C93    O136    1.377   .     S
C93    C740    1.397   1_554 S
C93    C732    1.435   1_554 S
C94    H112    1.109   .     S
C94    O144    1.412   .     S
C94    H110    1.109   .     S
C94    H111    1.116   .     S
C95    C102    1.410   .     A
C96    H114    1.107   .     S
C96    H113    1.116   .     S
C96    H115    1.109   .     S
C96    O134    1.414   .     S
C97    H120    1.115   .     S
C97    H117    1.109   .     S
C97    O135    1.412   .     S
C97    H191    1.110   .     S
C98    H122    1.114   .     S
C98    H121    1.113   .     S
C98    O136    1.408   .     S
C98    H123    1.106   .     S
C99    C103    1.406   .     A
C99    C732    1.435   1_554 S
C99    C748    1.425   1_554 S
C100   C101    1.390   .     A
C100   C737    1.404   .     S
C100   C747    1.425   .     S
C101   H126    1.084   .     S
C101   C102    1.382   .     A
C102   H108    1.081   .     S
C103   H128    1.071   .     S
C104   H107    1.083   .     S
Cu105  Cu106   2.680   .     S
Cu105  N131    2.014   .     S
Cu105  O142    1.944   .     S
Cu105  O133    1.949   .     S
Cu105  O138    1.956   .     S
Cu105  O140    1.949   .     S
Cu106  O139    1.944   .     S
Cu106  N132    2.014   .     S
Cu106  O137    1.949   .     S
Cu106  O141    1.949   .     S
Cu106  O143    1.956   .     S
C145   O209    1.290   .     A
C145   C153    1.437   .     S
C145   O205    1.287   .     A
C146   C148    1.468   .     S
C146   C163    1.396   .     A
C146   C167    1.416   .     A
C147   C153    1.396   .     A
C147   H181    1.084   .     S
C147   C365    1.383   .     S
C148   O211    1.295   .     A
C148   O210    1.295   .     A
C149   H190    1.084   .     S
C149   C150    1.394   .     A
C149   C579    1.383   1_545 S
C150   C151    1.405   .     A
C150   C159    1.437   .     S
C151   O216    1.385   .     S
C151   C584    1.401   1_545 S
C152   C153    1.409   .     A
C152   O206    1.385   .     S
C152   C367    1.401   .     S
C154   N204    1.367   .     A
C154   H188    1.082   .     S
C154   C11     1.416   1_655 S
C155   N203    1.366   .     A
C155   H196    1.082   .     S
C156   C167    1.426   .     A
C156   C813    1.435   .     S
C156   C819    1.435   .     S
C157   N203    1.364   .     A
C157   H197    1.078   .     S
C158   O207    1.389   .     S
C158   N204    1.371   .     A
C158   C13     1.433   1_655 S
C159   O212    1.289   .     A
C159   O213    1.287   .     A
C160   O214    1.293   .     A
C160   O215    1.295   .     A
C160   C162    1.458   .     S
C161   C176    1.390   .     A
C161   H199    1.084   .     S
C161   C820    1.404   1_554 S
C162   C176    1.395   .     A
C162   C175    1.395   .     A
C163   C164    1.380   .     A
C163   H201    1.084   .     S
C164   H202    1.083   .     S
C164   C813    1.397   .     S
C165   O208    1.377   .     S
C165   C812    1.397   1_554 S
C165   C804    1.435   1_554 S
C166   H184    1.109   .     S
C166   O216    1.412   .     S
C166   H182    1.109   .     S
C166   H183    1.116   .     S
C167   C174    1.410   .     A
C168   H186    1.107   .     S
C168   H185    1.116   .     S
C168   H187    1.109   .     S
C168   O206    1.414   .     S
C169   H192    1.115   .     S
C169   H189    1.109   .     S
C169   O207    1.412   .     S
C169   H47     1.110   1_655 S
C170   H194    1.114   .     S
C170   H193    1.113   .     S
C170   O208    1.408   .     S
C170   H195    1.106   .     S
C171   C175    1.406   .     A
C171   C804    1.435   1_554 S
C171   C820    1.425   1_554 S
C172   C173    1.390   .     A
C172   C809    1.404   .     S
C172   C819    1.425   .     S
C173   H198    1.084   .     S
C173   C174    1.382   .     A
C174   H180    1.081   .     S
C175   H200    1.071   .     S
C176   H179    1.083   .     S
Cu177  Cu178   2.680   .     S
Cu177  N203    2.014   .     S
Cu177  O214    1.944   .     S
Cu177  O205    1.949   .     S
Cu177  O210    1.956   .     S
Cu177  O212    1.949   .     S
Cu178  O211    1.944   .     S
Cu178  N204    2.014   .     S
Cu178  O209    1.949   .     S
Cu178  O213    1.949   .     S
Cu178  O215    1.956   .     S
C217   O281    1.290   .     A
C217   C225    1.437   .     S
C217   O277    1.287   .     A
C218   C220    1.468   .     S
C218   C235    1.396   .     A
C218   C239    1.416   .     A
C219   C225    1.396   .     A
C219   H253    1.084   .     S
C219   C437    1.383   .     S
C220   O283    1.295   .     A
C220   O282    1.295   .     A
C221   H262    1.084   .     S
C221   C222    1.394   .     A
C222   C223    1.405   .     A
C222   C231    1.437   .     S
C223   O288    1.385   .     S
C224   C225    1.409   .     A
C224   O278    1.385   .     S
C224   C439    1.401   .     S
C226   N276    1.367   .     A
C226   H260    1.082   .     S
C226   C299    1.416   .     S
C227   N275    1.366   .     A
C227   H268    1.082   .     S
C227   C370    1.416   1_455 S
C228   C239    1.426   .     A
C228   C885    1.435   .     S
C228   C891    1.435   .     S
C229   N275    1.364   .     A
C229   H269    1.078   .     S
C229   C374    1.433   1_455 S
C230   O279    1.389   .     S
C230   N276    1.371   .     A
C230   C301    1.433   .     S
C231   O284    1.289   .     A
C231   O285    1.287   .     A
C232   O286    1.293   .     A
C232   O287    1.295   .     A
C232   C234    1.458   .     S
C233   C248    1.390   .     A
C233   H271    1.084   .     S
C233   C892    1.404   1_554 S
C234   C248    1.395   .     A
C234   C247    1.395   .     A
C235   C236    1.380   .     A
C235   H273    1.084   .     S
C236   H274    1.083   .     S
C236   C885    1.397   .     S
C237   O280    1.377   .     S
C237   C884    1.397   1_554 S
C237   C876    1.435   1_554 S
C238   H256    1.109   .     S
C238   O288    1.412   .     S
C238   H254    1.109   .     S
C238   H255    1.116   .     S
C239   C246    1.410   .     A
C240   H258    1.107   .     S
C240   H257    1.116   .     S
C240   H259    1.109   .     S
C240   O278    1.414   .     S
C241   H264    1.115   .     S
C241   H261    1.109   .     S
C241   O279    1.412   .     S
C241   H335    1.110   .     S
C242   H266    1.114   .     S
C242   H265    1.113   .     S
C242   O280    1.408   .     S
C242   H267    1.106   .     S
C243   C247    1.406   .     A
C243   C876    1.435   1_554 S
C243   C892    1.425   1_554 S
C244   C245    1.390   .     A
C244   C881    1.404   .     S
C244   C891    1.425   .     S
C245   H270    1.084   .     S
C245   C246    1.382   .     A
C246   H252    1.081   .     S
C247   H272    1.071   .     S
C248   H251    1.083   .     S
Cu249  Cu250   2.680   .     S
Cu249  N275    2.014   .     S
Cu249  O286    1.944   .     S
Cu249  O277    1.949   .     S
Cu249  O282    1.956   .     S
Cu249  O284    1.949   .     S
Cu250  O283    1.944   .     S
Cu250  N276    2.014   .     S
Cu250  O281    1.949   .     S
Cu250  O285    1.949   .     S
Cu250  O287    1.956   .     S
H263   C385    1.110   1_455 S
C289   O353    1.290   .     A
C289   C297    1.437   .     S
C289   O349    1.287   .     A
C290   C292    1.468   .     S
C290   C307    1.396   .     A
C290   C311    1.416   .     A
C291   C297    1.396   .     A
C291   H325    1.084   .     S
C291   C509    1.383   .     S
C292   O355    1.295   .     A
C292   O354    1.295   .     A
C293   H334    1.084   .     S
C293   C294    1.394   .     A
C294   C295    1.405   .     A
C294   C303    1.437   .     S
C295   O360    1.385   .     S
C296   C297    1.409   .     A
C296   O350    1.385   .     S
C296   C511    1.401   .     S
C298   N348    1.367   .     A
C298   H332    1.082   .     S
C298   C371    1.416   .     S
C299   N347    1.366   .     A
C299   H340    1.082   .     S
C300   C311    1.426   .     A
C300   C957    1.435   .     S
C300   C963    1.435   .     S
C301   N347    1.364   .     A
C301   H341    1.078   .     S
C302   O351    1.389   .     S
C302   N348    1.371   .     A
C302   C373    1.433   .     S
C303   O356    1.289   .     A
C303   O357    1.287   .     A
C304   O358    1.293   .     A
C304   O359    1.295   .     A
C304   C306    1.458   .     S
C305   C320    1.390   .     A
C305   H343    1.084   .     S
C305   C964    1.404   1_554 S
C306   C320    1.395   .     A
C306   C319    1.395   .     A
C307   C308    1.380   .     A
C307   H345    1.084   .     S
C308   H346    1.083   .     S
C308   C957    1.397   .     S
C309   O352    1.377   .     S
C309   C956    1.397   1_554 S
C309   C948    1.435   1_554 S
C310   H328    1.109   .     S
C310   O360    1.412   .     S
C310   H326    1.109   .     S
C310   H327    1.116   .     S
C311   C318    1.410   .     A
C312   H330    1.107   .     S
C312   H329    1.116   .     S
C312   H331    1.109   .     S
C312   O350    1.414   .     S
C313   H336    1.115   .     S
C313   H333    1.109   .     S
C313   O351    1.412   .     S
C313   H407    1.110   .     S
C314   H338    1.114   .     S
C314   H337    1.113   .     S
C314   O352    1.408   .     S
C314   H339    1.106   .     S
C315   C319    1.406   .     A
C315   C948    1.435   1_554 S
C315   C964    1.425   1_554 S
C316   C317    1.390   .     A
C316   C953    1.404   .     S
C316   C963    1.425   .     S
C317   H342    1.084   .     S
C317   C318    1.382   .     A
C318   H324    1.081   .     S
C319   H344    1.071   .     S
C320   H323    1.083   .     S
Cu321  Cu322   2.680   .     S
Cu321  N347    2.014   .     S
Cu321  O358    1.944   .     S
Cu321  O349    1.949   .     S
Cu321  O354    1.956   .     S
Cu321  O356    1.949   .     S
Cu322  O355    1.944   .     S
Cu322  N348    2.014   .     S
Cu322  O353    1.949   .     S
Cu322  O357    1.949   .     S
Cu322  O359    1.956   .     S
C361   O425    1.290   .     A
C361   C369    1.437   .     S
C361   O421    1.287   .     A
C362   C364    1.468   .     S
C362   C379    1.396   .     A
C362   C383    1.416   .     A
C363   C369    1.396   .     A
C363   H397    1.084   .     S
C363   C581    1.383   .     S
C364   O427    1.295   .     A
C364   O426    1.295   .     A
C365   H406    1.084   .     S
C365   C366    1.394   .     A
C366   C367    1.405   .     A
C366   C375    1.437   .     S
C367   O432    1.385   .     S
C368   C369    1.409   .     A
C368   O422    1.385   .     S
C368   C583    1.401   .     S
C370   N420    1.367   .     A
C370   H404    1.082   .     S
C370   C227    1.416   1_655 S
C371   N419    1.366   .     A
C371   H412    1.082   .     S
C372   C383    1.426   .     A
C372   C1029   1.435   .     S
C372   C1035   1.435   .     S
C373   N419    1.364   .     A
C373   H413    1.078   .     S
C374   O423    1.389   .     S
C374   N420    1.371   .     A
C374   C229    1.433   1_655 S
C375   O428    1.289   .     A
C375   O429    1.287   .     A
C376   O430    1.293   .     A
C376   O431    1.295   .     A
C376   C378    1.458   .     S
C377   C392    1.390   .     A
C377   H415    1.084   .     S
C377   C1036   1.404   1_554 S
C378   C392    1.395   .     A
C378   C391    1.395   .     A
C379   C380    1.380   .     A
C379   H417    1.084   .     S
C380   H418    1.083   .     S
C380   C1029   1.397   .     S
C381   O424    1.377   .     S
C381   C1028   1.397   1_554 S
C381   C1020   1.435   1_554 S
C382   H400    1.109   .     S
C382   O432    1.412   .     S
C382   H398    1.109   .     S
C382   H399    1.116   .     S
C383   C390    1.410   .     A
C384   H402    1.107   .     S
C384   H401    1.116   .     S
C384   H403    1.109   .     S
C384   O422    1.414   .     S
C385   H408    1.115   .     S
C385   H405    1.109   .     S
C385   O423    1.412   .     S
C385   H263    1.110   1_655 S
C386   H410    1.114   .     S
C386   H409    1.113   .     S
C386   O424    1.408   .     S
C386   H411    1.106   .     S
C387   C391    1.406   .     A
C387   C1020   1.435   1_554 S
C387   C1036   1.425   1_554 S
C388   C389    1.390   .     A
C388   C1025   1.404   .     S
C388   C1035   1.425   .     S
C389   H414    1.084   .     S
C389   C390    1.382   .     A
C390   H396    1.081   .     S
C391   H416    1.071   .     S
C392   H395    1.083   .     S
Cu393  Cu394   2.680   .     S
Cu393  N419    2.014   .     S
Cu393  O430    1.944   .     S
Cu393  O421    1.949   .     S
Cu393  O426    1.956   .     S
Cu393  O428    1.949   .     S
Cu394  O427    1.944   .     S
Cu394  N420    2.014   .     S
Cu394  O425    1.949   .     S
Cu394  O429    1.949   .     S
Cu394  O431    1.956   .     S
C433   O497    1.290   .     A
C433   C441    1.437   .     S
C433   O493    1.287   .     A
C434   C436    1.468   .     S
C434   C451    1.396   .     A
C434   C455    1.416   .     A
C435   C441    1.396   .     A
C435   H469    1.084   .     S
C435   C5      1.383   1_565 S
C436   O499    1.295   .     A
C436   O498    1.295   .     A
C437   H478    1.084   .     S
C437   C438    1.394   .     A
C438   C439    1.405   .     A
C438   C447    1.437   .     S
C439   O504    1.385   .     S
C440   C441    1.409   .     A
C440   O494    1.385   .     S
C440   C7      1.401   1_565 S
C442   N492    1.367   .     A
C442   H476    1.082   .     S
C442   C515    1.416   .     S
C443   N491    1.366   .     A
C443   H484    1.082   .     S
C443   C586    1.416   1_455 S
C444   C455    1.426   .     A
C444   C1101   1.435   .     S
C444   C1107   1.435   .     S
C445   N491    1.364   .     A
C445   H485    1.078   .     S
C445   C590    1.433   1_455 S
C446   O495    1.389   .     S
C446   N492    1.371   .     A
C446   C517    1.433   .     S
C447   O500    1.289   .     A
C447   O501    1.287   .     A
C448   O502    1.293   .     A
C448   O503    1.295   .     A
C448   C450    1.458   .     S
C449   C464    1.390   .     A
C449   H487    1.084   .     S
C449   C1108   1.404   1_554 S
C450   C464    1.395   .     A
C450   C463    1.395   .     A
C451   C452    1.380   .     A
C451   H489    1.084   .     S
C452   H490    1.083   .     S
C452   C1101   1.397   .     S
C453   O496    1.377   .     S
C453   C1100   1.397   1_554 S
C453   C1092   1.435   1_554 S
C454   H472    1.109   .     S
C454   O504    1.412   .     S
C454   H470    1.109   .     S
C454   H471    1.116   .     S
C455   C462    1.410   .     A
C456   H474    1.107   .     S
C456   H473    1.116   .     S
C456   H475    1.109   .     S
C456   O494    1.414   .     S
C457   H480    1.115   .     S
C457   H477    1.109   .     S
C457   O495    1.412   .     S
C457   H551    1.110   .     S
C458   H482    1.114   .     S
C458   H481    1.113   .     S
C458   O496    1.408   .     S
C458   H483    1.106   .     S
C459   C463    1.406   .     A
C459   C1092   1.435   1_554 S
C459   C1108   1.425   1_554 S
C460   C461    1.390   .     A
C460   C1097   1.404   .     S
C460   C1107   1.425   .     S
C461   H486    1.084   .     S
C461   C462    1.382   .     A
C462   H468    1.081   .     S
C463   H488    1.071   .     S
C464   H467    1.083   .     S
Cu465  Cu466   2.680   .     S
Cu465  N491    2.014   .     S
Cu465  O502    1.944   .     S
Cu465  O493    1.949   .     S
Cu465  O498    1.956   .     S
Cu465  O500    1.949   .     S
Cu466  O499    1.944   .     S
Cu466  N492    2.014   .     S
Cu466  O497    1.949   .     S
Cu466  O501    1.949   .     S
Cu466  O503    1.956   .     S
H479   C601    1.110   1_455 S
C505   O569    1.290   .     A
C505   C513    1.437   .     S
C505   O565    1.287   .     A
C506   C508    1.468   .     S
C506   C523    1.396   .     A
C506   C527    1.416   .     A
C507   C513    1.396   .     A
C507   H541    1.084   .     S
C507   C77     1.383   1_565 S
C508   O571    1.295   .     A
C508   O570    1.295   .     A
C509   H550    1.084   .     S
C509   C510    1.394   .     A
C510   C511    1.405   .     A
C510   C519    1.437   .     S
C511   O576    1.385   .     S
C512   C513    1.409   .     A
C512   O566    1.385   .     S
C512   C79     1.401   1_565 S
C514   N564    1.367   .     A
C514   H548    1.082   .     S
C514   C587    1.416   .     S
C515   N563    1.366   .     A
C515   H556    1.082   .     S
C516   C527    1.426   .     A
C516   C1173   1.435   .     S
C516   C1179   1.435   .     S
C517   N563    1.364   .     A
C517   H557    1.078   .     S
C518   O567    1.389   .     S
C518   N564    1.371   .     A
C518   C589    1.433   .     S
C519   O572    1.289   .     A
C519   O573    1.287   .     A
C520   O574    1.293   .     A
C520   O575    1.295   .     A
C520   C522    1.458   .     S
C521   C536    1.390   .     A
C521   H559    1.084   .     S
C521   C1180   1.404   1_554 S
C522   C536    1.395   .     A
C522   C535    1.395   .     A
C523   C524    1.380   .     A
C523   H561    1.084   .     S
C524   H562    1.083   .     S
C524   C1173   1.397   .     S
C525   O568    1.377   .     S
C525   C1172   1.397   1_554 S
C525   C1164   1.435   1_554 S
C526   H544    1.109   .     S
C526   O576    1.412   .     S
C526   H542    1.109   .     S
C526   H543    1.116   .     S
C527   C534    1.410   .     A
C528   H546    1.107   .     S
C528   H545    1.116   .     S
C528   H547    1.109   .     S
C528   O566    1.414   .     S
C529   H552    1.115   .     S
C529   H549    1.109   .     S
C529   O567    1.412   .     S
C529   H623    1.110   .     S
C530   H554    1.114   .     S
C530   H553    1.113   .     S
C530   O568    1.408   .     S
C530   H555    1.106   .     S
C531   C535    1.406   .     A
C531   C1164   1.435   1_554 S
C531   C1180   1.425   1_554 S
C532   C533    1.390   .     A
C532   C1169   1.404   .     S
C532   C1179   1.425   .     S
C533   H558    1.084   .     S
C533   C534    1.382   .     A
C534   H540    1.081   .     S
C535   H560    1.071   .     S
C536   H539    1.083   .     S
Cu537  Cu538   2.680   .     S
Cu537  N563    2.014   .     S
Cu537  O574    1.944   .     S
Cu537  O565    1.949   .     S
Cu537  O570    1.956   .     S
Cu537  O572    1.949   .     S
Cu538  O571    1.944   .     S
Cu538  N564    2.014   .     S
Cu538  O569    1.949   .     S
Cu538  O573    1.949   .     S
Cu538  O575    1.956   .     S
C577   O641    1.290   .     A
C577   C585    1.437   .     S
C577   O637    1.287   .     A
C578   C580    1.468   .     S
C578   C595    1.396   .     A
C578   C599    1.416   .     A
C579   C585    1.396   .     A
C579   H613    1.084   .     S
C579   C149    1.383   1_565 S
C580   O643    1.295   .     A
C580   O642    1.295   .     A
C581   H622    1.084   .     S
C581   C582    1.394   .     A
C582   C583    1.405   .     A
C582   C591    1.437   .     S
C583   O648    1.385   .     S
C584   C585    1.409   .     A
C584   O638    1.385   .     S
C584   C151    1.401   1_565 S
C586   N636    1.367   .     A
C586   H620    1.082   .     S
C586   C443    1.416   1_655 S
C587   N635    1.366   .     A
C587   H628    1.082   .     S
C588   C599    1.426   .     A
C588   C1245   1.435   .     S
C588   C1251   1.435   .     S
C589   N635    1.364   .     A
C589   H629    1.078   .     S
C590   O639    1.389   .     S
C590   N636    1.371   .     A
C590   C445    1.433   1_655 S
C591   O644    1.289   .     A
C591   O645    1.287   .     A
C592   O646    1.293   .     A
C592   O647    1.295   .     A
C592   C594    1.458   .     S
C593   C608    1.390   .     A
C593   H631    1.084   .     S
C593   C1252   1.404   1_554 S
C594   C608    1.395   .     A
C594   C607    1.395   .     A
C595   C596    1.380   .     A
C595   H633    1.084   .     S
C596   H634    1.083   .     S
C596   C1245   1.397   .     S
C597   O640    1.377   .     S
C597   C1244   1.397   1_554 S
C597   C1236   1.435   1_554 S
C598   H616    1.109   .     S
C598   O648    1.412   .     S
C598   H614    1.109   .     S
C598   H615    1.116   .     S
C599   C606    1.410   .     A
C600   H618    1.107   .     S
C600   H617    1.116   .     S
C600   H619    1.109   .     S
C600   O638    1.414   .     S
C601   H624    1.115   .     S
C601   H621    1.109   .     S
C601   O639    1.412   .     S
C601   H479    1.110   1_655 S
C602   H626    1.114   .     S
C602   H625    1.113   .     S
C602   O640    1.408   .     S
C602   H627    1.106   .     S
C603   C607    1.406   .     A
C603   C1236   1.435   1_554 S
C603   C1252   1.425   1_554 S
C604   C605    1.390   .     A
C604   C1241   1.404   .     S
C604   C1251   1.425   .     S
C605   H630    1.084   .     S
C605   C606    1.382   .     A
C606   H612    1.081   .     S
C607   H632    1.071   .     S
C608   H611    1.083   .     S
Cu609  Cu610   2.680   .     S
Cu609  N635    2.014   .     S
Cu609  O646    1.944   .     S
Cu609  O637    1.949   .     S
Cu609  O642    1.956   .     S
Cu609  O644    1.949   .     S
Cu610  O643    1.944   .     S
Cu610  N636    2.014   .     S
Cu610  O641    1.949   .     S
Cu610  O645    1.949   .     S
Cu610  O647    1.956   .     S
C649   O713    1.290   .     A
C649   C657    1.437   .     S
C649   O709    1.287   .     A
C650   C652    1.468   .     S
C650   C667    1.396   .     A
C650   C671    1.416   .     A
C651   C657    1.396   .     A
C651   H685    1.084   .     S
C651   C869    1.383   .     S
C652   O715    1.295   .     A
C652   O714    1.295   .     A
C653   H694    1.084   .     S
C653   C654    1.394   .     A
C653   C1083   1.383   1_545 S
C654   C655    1.405   .     A
C654   C663    1.437   .     S
C655   O720    1.385   .     S
C655   C1088   1.401   1_545 S
C656   C657    1.409   .     A
C656   O710    1.385   .     S
C656   C871    1.401   .     S
C658   N708    1.367   .     A
C658   H692    1.082   .     S
C658   C731    1.416   .     S
C659   N707    1.366   .     A
C659   H700    1.082   .     S
C659   C802    1.416   1_455 S
C660   C671    1.426   .     A
C660   C21     1.435   1_556 S
C660   C27     1.435   1_556 S
C661   N707    1.364   .     A
C661   H701    1.078   .     S
C661   C806    1.433   1_455 S
C662   O711    1.389   .     S
C662   N708    1.371   .     A
C662   C733    1.433   .     S
C663   O716    1.289   .     A
C663   O717    1.287   .     A
C664   O718    1.293   .     A
C664   O719    1.295   .     A
C664   C666    1.458   .     S
C665   C680    1.390   .     A
C665   H703    1.084   .     S
C666   C680    1.395   .     A
C666   C679    1.395   .     A
C667   C668    1.380   .     A
C667   H705    1.084   .     S
C668   H706    1.083   .     S
C668   C21     1.397   1_556 S
C669   O712    1.377   .     S
C670   H688    1.109   .     S
C670   O720    1.412   .     S
C670   H686    1.109   .     S
C670   H687    1.116   .     S
C671   C678    1.410   .     A
C672   H690    1.107   .     S
C672   H689    1.116   .     S
C672   H691    1.109   .     S
C672   O710    1.414   .     S
C673   H696    1.115   .     S
C673   H693    1.109   .     S
C673   O711    1.412   .     S
C673   H767    1.110   .     S
C674   H698    1.114   .     S
C674   H697    1.113   .     S
C674   O712    1.408   .     S
C674   H699    1.106   .     S
C675   C679    1.406   .     A
C676   C677    1.390   .     A
C676   C17     1.404   1_556 S
C676   C27     1.425   1_556 S
C677   H702    1.084   .     S
C677   C678    1.382   .     A
C678   H684    1.081   .     S
C679   H704    1.071   .     S
C680   H683    1.083   .     S
Cu681  Cu682   2.680   .     S
Cu681  N707    2.014   .     S
Cu681  O718    1.944   .     S
Cu681  O709    1.949   .     S
Cu681  O714    1.956   .     S
Cu681  O716    1.949   .     S
Cu682  O715    1.944   .     S
Cu682  N708    2.014   .     S
Cu682  O713    1.949   .     S
Cu682  O717    1.949   .     S
Cu682  O719    1.956   .     S
H695   C817    1.110   1_455 S
C721   O785    1.290   .     A
C721   C729    1.437   .     S
C721   O781    1.287   .     A
C722   C724    1.468   .     S
C722   C739    1.396   .     A
C722   C743    1.416   .     A
C723   C729    1.396   .     A
C723   H757    1.084   .     S
C723   C941    1.383   .     S
C724   O787    1.295   .     A
C724   O786    1.295   .     A
C725   H766    1.084   .     S
C725   C726    1.394   .     A
C725   C1155   1.383   1_545 S
C726   C727    1.405   .     A
C726   C735    1.437   .     S
C727   O792    1.385   .     S
C727   C1160   1.401   1_545 S
C728   C729    1.409   .     A
C728   O782    1.385   .     S
C728   C943    1.401   .     S
C730   N780    1.367   .     A
C730   H764    1.082   .     S
C730   C803    1.416   .     S
C731   N779    1.366   .     A
C731   H772    1.082   .     S
C732   C743    1.426   .     A
C732   C93     1.435   1_556 S
C732   C99     1.435   1_556 S
C733   N779    1.364   .     A
C733   H773    1.078   .     S
C734   O783    1.389   .     S
C734   N780    1.371   .     A
C734   C805    1.433   .     S
C735   O788    1.289   .     A
C735   O789    1.287   .     A
C736   O790    1.293   .     A
C736   O791    1.295   .     A
C736   C738    1.458   .     S
C737   C752    1.390   .     A
C737   H775    1.084   .     S
C738   C752    1.395   .     A
C738   C751    1.395   .     A
C739   C740    1.380   .     A
C739   H777    1.084   .     S
C740   H778    1.083   .     S
C740   C93     1.397   1_556 S
C741   O784    1.377   .     S
C742   H760    1.109   .     S
C742   O792    1.412   .     S
C742   H758    1.109   .     S
C742   H759    1.116   .     S
C743   C750    1.410   .     A
C744   H762    1.107   .     S
C744   H761    1.116   .     S
C744   H763    1.109   .     S
C744   O782    1.414   .     S
C745   H768    1.115   .     S
C745   H765    1.109   .     S
C745   O783    1.412   .     S
C745   H839    1.110   .     S
C746   H770    1.114   .     S
C746   H769    1.113   .     S
C746   O784    1.408   .     S
C746   H771    1.106   .     S
C747   C751    1.406   .     A
C748   C749    1.390   .     A
C748   C89     1.404   1_556 S
C748   C99     1.425   1_556 S
C749   H774    1.084   .     S
C749   C750    1.382   .     A
C750   H756    1.081   .     S
C751   H776    1.071   .     S
C752   H755    1.083   .     S
Cu753  Cu754   2.680   .     S
Cu753  N779    2.014   .     S
Cu753  O790    1.944   .     S
Cu753  O781    1.949   .     S
Cu753  O786    1.956   .     S
Cu753  O788    1.949   .     S
Cu754  O787    1.944   .     S
Cu754  N780    2.014   .     S
Cu754  O785    1.949   .     S
Cu754  O789    1.949   .     S
Cu754  O791    1.956   .     S
C793   O857    1.290   .     A
C793   C801    1.437   .     S
C793   O853    1.287   .     A
C794   C796    1.468   .     S
C794   C811    1.396   .     A
C794   C815    1.416   .     A
C795   C801    1.396   .     A
C795   H829    1.084   .     S
C795   C1013   1.383   .     S
C796   O859    1.295   .     A
C796   O858    1.295   .     A
C797   H838    1.084   .     S
C797   C798    1.394   .     A
C797   C1227   1.383   1_545 S
C798   C799    1.405   .     A
C798   C807    1.437   .     S
C799   O864    1.385   .     S
C799   C1232   1.401   1_545 S
C800   C801    1.409   .     A
C800   O854    1.385   .     S
C800   C1015   1.401   .     S
C802   N852    1.367   .     A
C802   H836    1.082   .     S
C802   C659    1.416   1_655 S
C803   N851    1.366   .     A
C803   H844    1.082   .     S
C804   C815    1.426   .     A
C804   C165    1.435   1_556 S
C804   C171    1.435   1_556 S
C805   N851    1.364   .     A
C805   H845    1.078   .     S
C806   O855    1.389   .     S
C806   N852    1.371   .     A
C806   C661    1.433   1_655 S
C807   O860    1.289   .     A
C807   O861    1.287   .     A
C808   O862    1.293   .     A
C808   O863    1.295   .     A
C808   C810    1.458   .     S
C809   C824    1.390   .     A
C809   H847    1.084   .     S
C810   C824    1.395   .     A
C810   C823    1.395   .     A
C811   C812    1.380   .     A
C811   H849    1.084   .     S
C812   H850    1.083   .     S
C812   C165    1.397   1_556 S
C813   O856    1.377   .     S
C814   H832    1.109   .     S
C814   O864    1.412   .     S
C814   H830    1.109   .     S
C814   H831    1.116   .     S
C815   C822    1.410   .     A
C816   H834    1.107   .     S
C816   H833    1.116   .     S
C816   H835    1.109   .     S
C816   O854    1.414   .     S
C817   H840    1.115   .     S
C817   H837    1.109   .     S
C817   O855    1.412   .     S
C817   H695    1.110   1_655 S
C818   H842    1.114   .     S
C818   H841    1.113   .     S
C818   O856    1.408   .     S
C818   H843    1.106   .     S
C819   C823    1.406   .     A
C820   C821    1.390   .     A
C820   C161    1.404   1_556 S
C820   C171    1.425   1_556 S
C821   H846    1.084   .     S
C821   C822    1.382   .     A
C822   H828    1.081   .     S
C823   H848    1.071   .     S
C824   H827    1.083   .     S
Cu825  Cu826   2.680   .     S
Cu825  N851    2.014   .     S
Cu825  O862    1.944   .     S
Cu825  O853    1.949   .     S
Cu825  O858    1.956   .     S
Cu825  O860    1.949   .     S
Cu826  O859    1.944   .     S
Cu826  N852    2.014   .     S
Cu826  O857    1.949   .     S
Cu826  O861    1.949   .     S
Cu826  O863    1.956   .     S
C865   O929    1.290   .     A
C865   C873    1.437   .     S
C865   O925    1.287   .     A
C866   C868    1.468   .     S
C866   C883    1.396   .     A
C866   C887    1.416   .     A
C867   C873    1.396   .     A
C867   H901    1.084   .     S
C867   C1085   1.383   .     S
C868   O931    1.295   .     A
C868   O930    1.295   .     A
C869   H910    1.084   .     S
C869   C870    1.394   .     A
C870   C871    1.405   .     A
C870   C879    1.437   .     S
C871   O936    1.385   .     S
C872   C873    1.409   .     A
C872   O926    1.385   .     S
C872   C1087   1.401   .     S
C874   N924    1.367   .     A
C874   H908    1.082   .     S
C874   C947    1.416   .     S
C875   N923    1.366   .     A
C875   H916    1.082   .     S
C875   C1018   1.416   1_455 S
C876   C887    1.426   .     A
C876   C237    1.435   1_556 S
C876   C243    1.435   1_556 S
C877   N923    1.364   .     A
C877   H917    1.078   .     S
C877   C1022   1.433   1_455 S
C878   O927    1.389   .     S
C878   N924    1.371   .     A
C878   C949    1.433   .     S
C879   O932    1.289   .     A
C879   O933    1.287   .     A
C880   O934    1.293   .     A
C880   O935    1.295   .     A
C880   C882    1.458   .     S
C881   C896    1.390   .     A
C881   H919    1.084   .     S
C882   C896    1.395   .     A
C882   C895    1.395   .     A
C883   C884    1.380   .     A
C883   H921    1.084   .     S
C884   H922    1.083   .     S
C884   C237    1.397   1_556 S
C885   O928    1.377   .     S
C886   H904    1.109   .     S
C886   O936    1.412   .     S
C886   H902    1.109   .     S
C886   H903    1.116   .     S
C887   C894    1.410   .     A
C888   H906    1.107   .     S
C888   H905    1.116   .     S
C888   H907    1.109   .     S
C888   O926    1.414   .     S
C889   H912    1.115   .     S
C889   H909    1.109   .     S
C889   O927    1.412   .     S
C889   H983    1.110   .     S
C890   H914    1.114   .     S
C890   H913    1.113   .     S
C890   O928    1.408   .     S
C890   H915    1.106   .     S
C891   C895    1.406   .     A
C892   C893    1.390   .     A
C892   C233    1.404   1_556 S
C892   C243    1.425   1_556 S
C893   H918    1.084   .     S
C893   C894    1.382   .     A
C894   H900    1.081   .     S
C895   H920    1.071   .     S
C896   H899    1.083   .     S
Cu897  Cu898   2.680   .     S
Cu897  N923    2.014   .     S
Cu897  O934    1.944   .     S
Cu897  O925    1.949   .     S
Cu897  O930    1.956   .     S
Cu897  O932    1.949   .     S
Cu898  O931    1.944   .     S
Cu898  N924    2.014   .     S
Cu898  O929    1.949   .     S
Cu898  O933    1.949   .     S
Cu898  O935    1.956   .     S
H911   C1033   1.110   1_455 S
C937   O1001   1.290   .     A
C937   C945    1.437   .     S
C937   O997    1.287   .     A
C938   C940    1.468   .     S
C938   C955    1.396   .     A
C938   C959    1.416   .     A
C939   C945    1.396   .     A
C939   H973    1.084   .     S
C939   C1157   1.383   .     S
C940   O1003   1.295   .     A
C940   O1002   1.295   .     A
C941   H982    1.084   .     S
C941   C942    1.394   .     A
C942   C943    1.405   .     A
C942   C951    1.437   .     S
C943   O1008   1.385   .     S
C944   C945    1.409   .     A
C944   O998    1.385   .     S
C944   C1159   1.401   .     S
C946   N996    1.367   .     A
C946   H980    1.082   .     S
C946   C1019   1.416   .     S
C947   N995    1.366   .     A
C947   H988    1.082   .     S
C948   C959    1.426   .     A
C948   C309    1.435   1_556 S
C948   C315    1.435   1_556 S
C949   N995    1.364   .     A
C949   H989    1.078   .     S
C950   O999    1.389   .     S
C950   N996    1.371   .     A
C950   C1021   1.433   .     S
C951   O1004   1.289   .     A
C951   O1005   1.287   .     A
C952   O1006   1.293   .     A
C952   O1007   1.295   .     A
C952   C954    1.458   .     S
C953   C968    1.390   .     A
C953   H991    1.084   .     S
C954   C968    1.395   .     A
C954   C967    1.395   .     A
C955   C956    1.380   .     A
C955   H993    1.084   .     S
C956   H994    1.083   .     S
C956   C309    1.397   1_556 S
C957   O1000   1.377   .     S
C958   H976    1.109   .     S
C958   O1008   1.412   .     S
C958   H974    1.109   .     S
C958   H975    1.116   .     S
C959   C966    1.410   .     A
C960   H978    1.107   .     S
C960   H977    1.116   .     S
C960   H979    1.109   .     S
C960   O998    1.414   .     S
C961   H984    1.115   .     S
C961   H981    1.109   .     S
C961   O999    1.412   .     S
C961   H1055   1.110   .     S
C962   H986    1.114   .     S
C962   H985    1.113   .     S
C962   O1000   1.408   .     S
C962   H987    1.106   .     S
C963   C967    1.406   .     A
C964   C965    1.390   .     A
C964   C305    1.404   1_556 S
C964   C315    1.425   1_556 S
C965   H990    1.084   .     S
C965   C966    1.382   .     A
C966   H972    1.081   .     S
C967   H992    1.071   .     S
C968   H971    1.083   .     S
Cu969  Cu970   2.680   .     S
Cu969  N995    2.014   .     S
Cu969  O1006   1.944   .     S
Cu969  O997    1.949   .     S
Cu969  O1002   1.956   .     S
Cu969  O1004   1.949   .     S
Cu970  O1003   1.944   .     S
Cu970  N996    2.014   .     S
Cu970  O1001   1.949   .     S
Cu970  O1005   1.949   .     S
Cu970  O1007   1.956   .     S
C1009  O1073   1.290   .     A
C1009  C1017   1.437   .     S
C1009  O1069   1.287   .     A
C1010  C1012   1.468   .     S
C1010  C1027   1.396   .     A
C1010  C1031   1.416   .     A
C1011  C1017   1.396   .     A
C1011  H1045   1.084   .     S
C1011  C1229   1.383   .     S
C1012  O1075   1.295   .     A
C1012  O1074   1.295   .     A
C1013  H1054   1.084   .     S
C1013  C1014   1.394   .     A
C1014  C1015   1.405   .     A
C1014  C1023   1.437   .     S
C1015  O1080   1.385   .     S
C1016  C1017   1.409   .     A
C1016  O1070   1.385   .     S
C1016  C1231   1.401   .     S
C1018  N1068   1.367   .     A
C1018  H1052   1.082   .     S
C1018  C875    1.416   1_655 S
C1019  N1067   1.366   .     A
C1019  H1060   1.082   .     S
C1020  C1031   1.426   .     A
C1020  C381    1.435   1_556 S
C1020  C387    1.435   1_556 S
C1021  N1067   1.364   .     A
C1021  H1061   1.078   .     S
C1022  O1071   1.389   .     S
C1022  N1068   1.371   .     A
C1022  C877    1.433   1_655 S
C1023  O1076   1.289   .     A
C1023  O1077   1.287   .     A
C1024  O1078   1.293   .     A
C1024  O1079   1.295   .     A
C1024  C1026   1.458   .     S
C1025  C1040   1.390   .     A
C1025  H1063   1.084   .     S
C1026  C1040   1.395   .     A
C1026  C1039   1.395   .     A
C1027  C1028   1.380   .     A
C1027  H1065   1.084   .     S
C1028  H1066   1.083   .     S
C1028  C381    1.397   1_556 S
C1029  O1072   1.377   .     S
C1030  H1048   1.109   .     S
C1030  O1080   1.412   .     S
C1030  H1046   1.109   .     S
C1030  H1047   1.116   .     S
C1031  C1038   1.410   .     A
C1032  H1050   1.107   .     S
C1032  H1049   1.116   .     S
C1032  H1051   1.109   .     S
C1032  O1070   1.414   .     S
C1033  H1056   1.115   .     S
C1033  H1053   1.109   .     S
C1033  O1071   1.412   .     S
C1033  H911    1.110   1_655 S
C1034  H1058   1.114   .     S
C1034  H1057   1.113   .     S
C1034  O1072   1.408   .     S
C1034  H1059   1.106   .     S
C1035  C1039   1.406   .     A
C1036  C1037   1.390   .     A
C1036  C377    1.404   1_556 S
C1036  C387    1.425   1_556 S
C1037  H1062   1.084   .     S
C1037  C1038   1.382   .     A
C1038  H1044   1.081   .     S
C1039  H1064   1.071   .     S
C1040  H1043   1.083   .     S
Cu1041 Cu1042  2.680   .     S
Cu1041 N1067   2.014   .     S
Cu1041 O1078   1.944   .     S
Cu1041 O1069   1.949   .     S
Cu1041 O1074   1.956   .     S
Cu1041 O1076   1.949   .     S
Cu1042 O1075   1.944   .     S
Cu1042 N1068   2.014   .     S
Cu1042 O1073   1.949   .     S
Cu1042 O1077   1.949   .     S
Cu1042 O1079   1.956   .     S
C1081  O1145   1.290   .     A
C1081  C1089   1.437   .     S
C1081  O1141   1.287   .     A
C1082  C1084   1.468   .     S
C1082  C1099   1.396   .     A
C1082  C1103   1.416   .     A
C1083  C1089   1.396   .     A
C1083  H1117   1.084   .     S
C1083  C653    1.383   1_565 S
C1084  O1147   1.295   .     A
C1084  O1146   1.295   .     A
C1085  H1126   1.084   .     S
C1085  C1086   1.394   .     A
C1086  C1087   1.405   .     A
C1086  C1095   1.437   .     S
C1087  O1152   1.385   .     S
C1088  C1089   1.409   .     A
C1088  O1142   1.385   .     S
C1088  C655    1.401   1_565 S
C1090  N1140   1.367   .     A
C1090  H1124   1.082   .     S
C1090  C1163   1.416   .     S
C1091  N1139   1.366   .     A
C1091  H1132   1.082   .     S
C1091  C1234   1.416   1_455 S
C1092  C1103   1.426   .     A
C1092  C453    1.435   1_556 S
C1092  C459    1.435   1_556 S
C1093  N1139   1.364   .     A
C1093  H1133   1.078   .     S
C1093  C1238   1.433   1_455 S
C1094  O1143   1.389   .     S
C1094  N1140   1.371   .     A
C1094  C1165   1.433   .     S
C1095  O1148   1.289   .     A
C1095  O1149   1.287   .     A
C1096  O1150   1.293   .     A
C1096  O1151   1.295   .     A
C1096  C1098   1.458   .     S
C1097  C1112   1.390   .     A
C1097  H1135   1.084   .     S
C1098  C1112   1.395   .     A
C1098  C1111   1.395   .     A
C1099  C1100   1.380   .     A
C1099  H1137   1.084   .     S
C1100  H1138   1.083   .     S
C1100  C453    1.397   1_556 S
C1101  O1144   1.377   .     S
C1102  H1120   1.109   .     S
C1102  O1152   1.412   .     S
C1102  H1118   1.109   .     S
C1102  H1119   1.116   .     S
C1103  C1110   1.410   .     A
C1104  H1122   1.107   .     S
C1104  H1121   1.116   .     S
C1104  H1123   1.109   .     S
C1104  O1142   1.414   .     S
C1105  H1128   1.115   .     S
C1105  H1125   1.109   .     S
C1105  O1143   1.412   .     S
C1105  H1199   1.110   .     S
C1106  H1130   1.114   .     S
C1106  H1129   1.113   .     S
C1106  O1144   1.408   .     S
C1106  H1131   1.106   .     S
C1107  C1111   1.406   .     A
C1108  C1109   1.390   .     A
C1108  C449    1.404   1_556 S
C1108  C459    1.425   1_556 S
C1109  H1134   1.084   .     S
C1109  C1110   1.382   .     A
C1110  H1116   1.081   .     S
C1111  H1136   1.071   .     S
C1112  H1115   1.083   .     S
Cu1113 Cu1114  2.680   .     S
Cu1113 N1139   2.014   .     S
Cu1113 O1150   1.944   .     S
Cu1113 O1141   1.949   .     S
Cu1113 O1146   1.956   .     S
Cu1113 O1148   1.949   .     S
Cu1114 O1147   1.944   .     S
Cu1114 N1140   2.014   .     S
Cu1114 O1145   1.949   .     S
Cu1114 O1149   1.949   .     S
Cu1114 O1151   1.956   .     S
H1127  C1249   1.110   1_455 S
C1153  O1217   1.290   .     A
C1153  C1161   1.437   .     S
C1153  O1213   1.287   .     A
C1154  C1156   1.468   .     S
C1154  C1171   1.396   .     A
C1154  C1175   1.416   .     A
C1155  C1161   1.396   .     A
C1155  H1189   1.084   .     S
C1155  C725    1.383   1_565 S
C1156  O1219   1.295   .     A
C1156  O1218   1.295   .     A
C1157  H1198   1.084   .     S
C1157  C1158   1.394   .     A
C1158  C1159   1.405   .     A
C1158  C1167   1.437   .     S
C1159  O1224   1.385   .     S
C1160  C1161   1.409   .     A
C1160  O1214   1.385   .     S
C1160  C727    1.401   1_565 S
C1162  N1212   1.367   .     A
C1162  H1196   1.082   .     S
C1162  C1235   1.416   .     S
C1163  N1211   1.366   .     A
C1163  H1204   1.082   .     S
C1164  C1175   1.426   .     A
C1164  C525    1.435   1_556 S
C1164  C531    1.435   1_556 S
C1165  N1211   1.364   .     A
C1165  H1205   1.078   .     S
C1166  O1215   1.389   .     S
C1166  N1212   1.371   .     A
C1166  C1237   1.433   .     S
C1167  O1220   1.289   .     A
C1167  O1221   1.287   .     A
C1168  O1222   1.293   .     A
C1168  O1223   1.295   .     A
C1168  C1170   1.458   .     S
C1169  C1184   1.390   .     A
C1169  H1207   1.084   .     S
C1170  C1184   1.395   .     A
C1170  C1183   1.395   .     A
C1171  C1172   1.380   .     A
C1171  H1209   1.084   .     S
C1172  H1210   1.083   .     S
C1172  C525    1.397   1_556 S
C1173  O1216   1.377   .     S
C1174  H1192   1.109   .     S
C1174  O1224   1.412   .     S
C1174  H1190   1.109   .     S
C1174  H1191   1.116   .     S
C1175  C1182   1.410   .     A
C1176  H1194   1.107   .     S
C1176  H1193   1.116   .     S
C1176  H1195   1.109   .     S
C1176  O1214   1.414   .     S
C1177  H1200   1.115   .     S
C1177  H1197   1.109   .     S
C1177  O1215   1.412   .     S
C1177  H1271   1.110   .     S
C1178  H1202   1.114   .     S
C1178  H1201   1.113   .     S
C1178  O1216   1.408   .     S
C1178  H1203   1.106   .     S
C1179  C1183   1.406   .     A
C1180  C1181   1.390   .     A
C1180  C521    1.404   1_556 S
C1180  C531    1.425   1_556 S
C1181  H1206   1.084   .     S
C1181  C1182   1.382   .     A
C1182  H1188   1.081   .     S
C1183  H1208   1.071   .     S
C1184  H1187   1.083   .     S
Cu1185 Cu1186  2.680   .     S
Cu1185 N1211   2.014   .     S
Cu1185 O1222   1.944   .     S
Cu1185 O1213   1.949   .     S
Cu1185 O1218   1.956   .     S
Cu1185 O1220   1.949   .     S
Cu1186 O1219   1.944   .     S
Cu1186 N1212   2.014   .     S
Cu1186 O1217   1.949   .     S
Cu1186 O1221   1.949   .     S
Cu1186 O1223   1.956   .     S
C1225  O1289   1.290   .     A
C1225  C1233   1.437   .     S
C1225  O1285   1.287   .     A
C1226  C1228   1.468   .     S
C1226  C1243   1.396   .     A
C1226  C1247   1.416   .     A
C1227  C1233   1.396   .     A
C1227  H1261   1.084   .     S
C1227  C797    1.383   1_565 S
C1228  O1291   1.295   .     A
C1228  O1290   1.295   .     A
C1229  H1270   1.084   .     S
C1229  C1230   1.394   .     A
C1230  C1231   1.405   .     A
C1230  C1239   1.437   .     S
C1231  O1296   1.385   .     S
C1232  C1233   1.409   .     A
C1232  O1286   1.385   .     S
C1232  C799    1.401   1_565 S
C1234  N1284   1.367   .     A
C1234  H1268   1.082   .     S
C1234  C1091   1.416   1_655 S
C1235  N1283   1.366   .     A
C1235  H1276   1.082   .     S
C1236  C1247   1.426   .     A
C1236  C597    1.435   1_556 S
C1236  C603    1.435   1_556 S
C1237  N1283   1.364   .     A
C1237  H1277   1.078   .     S
C1238  O1287   1.389   .     S
C1238  N1284   1.371   .     A
C1238  C1093   1.433   1_655 S
C1239  O1292   1.289   .     A
C1239  O1293   1.287   .     A
C1240  O1294   1.293   .     A
C1240  O1295   1.295   .     A
C1240  C1242   1.458   .     S
C1241  C1256   1.390   .     A
C1241  H1279   1.084   .     S
C1242  C1256   1.395   .     A
C1242  C1255   1.395   .     A
C1243  C1244   1.380   .     A
C1243  H1281   1.084   .     S
C1244  H1282   1.083   .     S
C1244  C597    1.397   1_556 S
C1245  O1288   1.377   .     S
C1246  H1264   1.109   .     S
C1246  O1296   1.412   .     S
C1246  H1262   1.109   .     S
C1246  H1263   1.116   .     S
C1247  C1254   1.410   .     A
C1248  H1266   1.107   .     S
C1248  H1265   1.116   .     S
C1248  H1267   1.109   .     S
C1248  O1286   1.414   .     S
C1249  H1272   1.115   .     S
C1249  H1269   1.109   .     S
C1249  O1287   1.412   .     S
C1249  H1127   1.110   1_655 S
C1250  H1274   1.114   .     S
C1250  H1273   1.113   .     S
C1250  O1288   1.408   .     S
C1250  H1275   1.106   .     S
C1251  C1255   1.406   .     A
C1252  C1253   1.390   .     A
C1252  C593    1.404   1_556 S
C1252  C603    1.425   1_556 S
C1253  H1278   1.084   .     S
C1253  C1254   1.382   .     A
C1254  H1260   1.081   .     S
C1255  H1280   1.071   .     S
C1256  H1259   1.083   .     S
Cu1257 Cu1258  2.680   .     S
Cu1257 N1283   2.014   .     S
Cu1257 O1294   1.944   .     S
Cu1257 O1285   1.949   .     S
Cu1257 O1290   1.956   .     S
Cu1257 O1292   1.949   .     S
Cu1258 O1291   1.944   .     S
Cu1258 N1284   2.014   .     S
Cu1258 O1289   1.949   .     S
Cu1258 O1293   1.949   .     S
Cu1258 O1295   1.956   .     S
