data_str_m1_o1_o17_pcu_sym.76
_audit_creation_date              2020-01-03
_audit_creation_method            'Materials Studio'
_symmetry_space_group_name_H-M    'P1'
_symmetry_Int_Tables_number       1
_symmetry_cell_setting            triclinic
loop_
_symmetry_equiv_pos_as_xyz
  x,y,z
_cell_length_a                    36.6607
_cell_length_b                    36.5556
_cell_length_c                    34.4109
_cell_angle_alpha                 89.9861
_cell_angle_beta                  89.9693
_cell_angle_gamma                 89.8154
loop_
_atom_site_label
_atom_site_type_symbol
_atom_site_fract_x
_atom_site_fract_y
_atom_site_fract_z
_atom_site_U_iso_or_equiv
_atom_site_adp_type
_atom_site_occupancy
C1     C     0.03155   0.23990   0.41864   0.00000  Uiso   1.00
C2     C     0.21839   0.00998   0.08134   0.00000  Uiso   1.00
C3     C     0.26086   0.46789   0.54067   0.00000  Uiso   1.00
C4     C     0.03194   0.23890   0.45934   0.00000  Uiso   1.00
C5     C     0.46805   0.26111   0.54065   0.00000  Uiso   1.00
C6     C     0.25635   0.46683   0.45930   0.00000  Uiso   1.00
C7     C     0.24404   0.03324   0.54071   0.00000  Uiso   1.00
C8     C     0.21684   0.00593   0.95930   0.00000  Uiso   1.00
C9     C     0.28312   0.49397   0.04069   0.00000  Uiso   1.00
C10    C     0.48930   0.28212   0.95936   0.00000  Uiso   1.00
C11    C     0.01090   0.21790   0.04066   0.00000  Uiso   1.00
C12    C     0.28201   0.48913   0.95934   0.00000  Uiso   1.00
C13    C     0.00692   0.21775   0.91863   0.00000  Uiso   1.00
C14    C     0.21797   0.01086   0.04065   0.00000  Uiso   1.00
C15    C     0.00640   0.21684   0.95929   0.00000  Uiso   1.00
C16    C     0.49396   0.28322   0.04071   0.00000  Uiso   1.00
C17    C     0.09809   0.34812   0.24935   0.00000  Uiso   1.00
C18    C     0.40191   0.15188   0.75067   0.00000  Uiso   1.00
C19    C     0.15196   0.09811   0.25002   0.00000  Uiso   1.00
C20    C     0.34800   0.40194   0.75000   0.00000  Uiso   1.00
C21    C     0.40226   0.15152   0.24993   0.00000  Uiso   1.00
C22    C     0.09775   0.34846   0.75006   0.00000  Uiso   1.00
C23    C     0.34797   0.40192   0.25001   0.00000  Uiso   1.00
C24    C     0.49334   0.28231   0.08138   0.00000  Uiso   1.00
C25    C     0.15203   0.09808   0.74999   0.00000  Uiso   1.00
C26    C     0.09803   0.15183   0.74999   0.00000  Uiso   1.00
C27    C     0.40197   0.34817   0.25001   0.00000  Uiso   1.00
C28    C     0.15226   0.40153   0.74993   0.00000  Uiso   1.00
C29    C     0.34775   0.09846   0.25006   0.00000  Uiso   1.00
C30    C     0.40196   0.34811   0.75002   0.00000  Uiso   1.00
C31    C     0.09800   0.15194   0.24999   0.00000  Uiso   1.00
C32    C     0.34809   0.09812   0.74936   0.00000  Uiso   1.00
C33    C     0.15191   0.40188   0.25066   0.00000  Uiso   1.00
C34    C     0.49979   0.24910   0.47968   0.00000  Uiso   1.00
C35    C     0.21773   0.00645   0.91863   0.00000  Uiso   1.00
C36    C     0.00018   0.25083   0.52031   0.00000  Uiso   1.00
C37    C     0.24937   0.49985   0.47969   0.00000  Uiso   1.00
C38    C     0.25098   0.00021   0.52032   0.00000  Uiso   1.00
C39    C     0.24979   0.49908   0.97968   0.00000  Uiso   1.00
C40    C     0.25017   0.00083   0.02031   0.00000  Uiso   1.00
C41    C     0.49935   0.24984   0.97969   0.00000  Uiso   1.00
C42    C     0.00096   0.25021   0.02032   0.00000  Uiso   1.00
C43    C     0.09703   0.46324   0.27555   0.00000  Uiso   1.00
C44    C     0.40278   0.03668   0.72448   0.00000  Uiso   1.00
C45    C     0.11522   0.18912   0.17318   0.00000  Uiso   1.00
C46    C     0.28224   0.49350   0.08136   0.00000  Uiso   1.00
C47    C     0.38237   0.31454   0.83007   0.00000  Uiso   1.00
C48    C     0.32661   0.11354   0.16337   0.00000  Uiso   1.00
C49    C     0.17359   0.38632   0.83648   0.00000  Uiso   1.00
C50    C     0.42318   0.35473   0.33747   0.00000  Uiso   1.00
C51    C     0.07663   0.14508   0.66263   0.00000  Uiso   1.00
C52    C     0.14371   0.07201   0.66585   0.00000  Uiso   1.00
C53    C     0.35633   0.42798   0.33414   0.00000  Uiso   1.00
C54    C     0.06525   0.38318   0.83074   0.00000  Uiso   1.00
C55    C     0.43481   0.11677   0.16928   0.00000  Uiso   1.00
C56    C     0.31115   0.38511   0.82706   0.00000  Uiso   1.00
C57    C     0.49024   0.28172   0.91867   0.00000  Uiso   1.00
C58    C     0.18519   0.11754   0.16970   0.00000  Uiso   1.00
C59    C     0.45296   0.09835   0.80409   0.00000  Uiso   1.00
C60    C     0.04692   0.40176   0.19613   0.00000  Uiso   1.00
C61    C     0.34703   0.21323   0.77557   0.00000  Uiso   1.00
C62    C     0.15278   0.28668   0.22448   0.00000  Uiso   1.00
C63    C     0.36524   0.43908   0.67316   0.00000  Uiso   1.00
C64    C     0.13234   0.06454   0.33006   0.00000  Uiso   1.00
C65    C     0.07659   0.36356   0.66339   0.00000  Uiso   1.00
C66    C     0.42360   0.13631   0.33647   0.00000  Uiso   1.00
C67    C     0.17804   0.10672   0.83403   0.00000  Uiso   1.00
C68    C     0.00977   0.21828   0.08135   0.00000  Uiso   1.00
C69    C     0.32197   0.39324   0.16600   0.00000  Uiso   1.00
C70    C     0.39567   0.32702   0.16241   0.00000  Uiso   1.00
C71    C     0.10449   0.17316   0.83750   0.00000  Uiso   1.00
C72    C     0.31525   0.13318   0.33074   0.00000  Uiso   1.00
C73    C     0.18479   0.36679   0.66927   0.00000  Uiso   1.00
C74    C     0.06106   0.13504   0.32696   0.00000  Uiso   1.00
C75    C     0.43523   0.36756   0.66975   0.00000  Uiso   1.00
C76    C     0.20296   0.34834   0.30408   0.00000  Uiso   1.00
C77    C     0.29691   0.15177   0.69615   0.00000  Uiso   1.00
C78    C     0.49982   0.24889   0.39844   0.00000  Uiso   1.00
C79    C     0.00016   0.25115   0.60156   0.00000  Uiso   1.00
C80    C     0.24909   0.49987   0.39846   0.00000  Uiso   1.00
C81    C     0.46846   0.26022   0.58134   0.00000  Uiso   1.00
C82    C     0.25100   0.00015   0.60155   0.00000  Uiso   1.00
C83    C     0.24982   0.49887   0.89844   0.00000  Uiso   1.00
C84    C     0.25016   0.00116   0.10156   0.00000  Uiso   1.00
C85    C     0.49909   0.24987   0.89846   0.00000  Uiso   1.00
C86    C     0.00098   0.25015   0.10155   0.00000  Uiso   1.00
C87    C     0.43417   0.26379   0.47977   0.00000  Uiso   1.00
C88    C     0.06578   0.23611   0.52023   0.00000  Uiso   1.00
C89    C     0.22968   0.06433   0.47992   0.00000  Uiso   1.00
C90    C     0.27065   0.43572   0.52012   0.00000  Uiso   1.00
C91    C     0.06397   0.22901   0.47990   0.00000  Uiso   1.00
C92    C     0.25686   0.46773   0.41863   0.00000  Uiso   1.00
C93    C     0.43604   0.27103   0.52007   0.00000  Uiso   1.00
C94    C     0.26372   0.43396   0.47975   0.00000  Uiso   1.00
C95    C     0.23680   0.06613   0.52024   0.00000  Uiso   1.00
C96    C     0.18406   0.01323   0.97978   0.00000  Uiso   1.00
C97    C     0.31589   0.48664   0.02022   0.00000  Uiso   1.00
C98    C     0.47954   0.31429   0.97993   0.00000  Uiso   1.00
C99    C     0.02073   0.18575   0.02012   0.00000  Uiso   1.00
C100   C     0.31413   0.47950   0.97990   0.00000  Uiso   1.00
C101   C     0.18587   0.02051   0.02007   0.00000  Uiso   1.00
C102   C     0.01383   0.18398   0.97974   0.00000  Uiso   1.00
C103   C     0.24342   0.03233   0.58137   0.00000  Uiso   1.00
C104   C     0.48665   0.31610   0.02025   0.00000  Uiso   1.00
C105   C     0.24994   0.49999   0.35600   0.00000  Uiso   1.00
C106   C     0.25006   0.00001   0.64401   0.00000  Uiso   1.00
C107   C     0.49998   0.24989   0.35597   0.00000  Uiso   1.00
C108   C     0.00002   0.25013   0.64403   0.00000  Uiso   1.00
C109   C     0.49994   0.24999   0.85600   0.00000  Uiso   1.00
C110   C     0.00005   0.25001   0.14401   0.00000  Uiso   1.00
C111   C     0.24998   0.49988   0.85597   0.00000  Uiso   1.00
C112   C     0.25002   0.00013   0.14403   0.00000  Uiso   1.00
C113   C     0.18002   0.07002   0.25001   0.00000  Uiso   1.00
C114   C     0.46779   0.25672   0.41862   0.00000  Uiso   1.00
C115   C     0.31997   0.42999   0.75000   0.00000  Uiso   1.00
C116   C     0.42998   0.17995   0.24988   0.00000  Uiso   1.00
C117   C     0.07002   0.32005   0.75012   0.00000  Uiso   1.00
C118   C     0.31997   0.42999   0.25001   0.00000  Uiso   1.00
C119   C     0.18003   0.07001   0.74999   0.00000  Uiso   1.00
C120   C     0.06997   0.32010   0.24993   0.00000  Uiso   1.00
C121   C     0.43003   0.17990   0.75007   0.00000  Uiso   1.00
C122   C     0.17998   0.42995   0.74988   0.00000  Uiso   1.00
C123   C     0.32002   0.07005   0.25012   0.00000  Uiso   1.00
C124   C     0.43002   0.32002   0.75001   0.00000  Uiso   1.00
C125   C     0.03218   0.24324   0.58136   0.00000  Uiso   1.00
C126   C     0.06997   0.17999   0.24999   0.00000  Uiso   1.00
C127   C     0.31997   0.07010   0.74993   0.00000  Uiso   1.00
C128   C     0.18003   0.42990   0.25007   0.00000  Uiso   1.00
C129   C     0.06999   0.17996   0.75000   0.00000  Uiso   1.00
C130   C     0.43001   0.32004   0.25000   0.00000  Uiso   1.00
C131   C     0.11533   0.41188   0.24402   0.00000  Uiso   1.00
C132   C     0.38466   0.08812   0.75601   0.00000  Uiso   1.00
C133   C     0.11289   0.13988   0.21439   0.00000  Uiso   1.00
C134   C     0.38738   0.36036   0.78557   0.00000  Uiso   1.00
C135   C     0.36482   0.10809   0.21489   0.00000  Uiso   1.00
C136   C     0.24030   0.03173   0.41867   0.00000  Uiso   1.00
C137   C     0.13523   0.39186   0.78511   0.00000  Uiso   1.00
C138   C     0.38487   0.35796   0.28525   0.00000  Uiso   1.00
C139   C     0.11508   0.14199   0.71474   0.00000  Uiso   1.00
C140   C     0.14161   0.11462   0.71462   0.00000  Uiso   1.00
C141   C     0.35837   0.38536   0.28538   0.00000  Uiso   1.00
C142   C     0.10690   0.36633   0.78497   0.00000  Uiso   1.00
C143   C     0.39314   0.13364   0.21502   0.00000  Uiso   1.00
C144   C     0.36015   0.38713   0.78562   0.00000  Uiso   1.00
C145   C     0.13966   0.11263   0.21445   0.00000  Uiso   1.00
C146   C     0.41141   0.11520   0.75829   0.00000  Uiso   1.00
C147   C     0.25973   0.46827   0.58135   0.00000  Uiso   1.00
C148   C     0.08857   0.38480   0.24177   0.00000  Uiso   1.00
C149   C     0.36533   0.16188   0.74403   0.00000  Uiso   1.00
C150   C     0.13466   0.33812   0.25600   0.00000  Uiso   1.00
C151   C     0.36288   0.38987   0.71440   0.00000  Uiso   1.00
C152   C     0.13738   0.11036   0.28557   0.00000  Uiso   1.00
C153   C     0.11481   0.35810   0.71489   0.00000  Uiso   1.00
C154   C     0.38523   0.14186   0.28511   0.00000  Uiso   1.00
C155   C     0.13545   0.10844   0.78537   0.00000  Uiso   1.00
C156   C     0.36457   0.39158   0.21464   0.00000  Uiso   1.00
C157   C     0.39213   0.36525   0.21478   0.00000  Uiso   1.00
C158   C     0.28161   0.49011   0.91864   0.00000  Uiso   1.00
C159   C     0.10792   0.13480   0.78523   0.00000  Uiso   1.00
C160   C     0.35690   0.11633   0.28497   0.00000  Uiso   1.00
C161   C     0.14313   0.38365   0.71502   0.00000  Uiso   1.00
C162   C     0.11013   0.13712   0.28561   0.00000  Uiso   1.00
C163   C     0.38966   0.36263   0.71446   0.00000  Uiso   1.00
C164   C     0.16142   0.36520   0.25829   0.00000  Uiso   1.00
C165   C     0.33857   0.13480   0.74178   0.00000  Uiso   1.00
C166   C     0.46689   0.25621   0.45929   0.00000  Uiso   1.00
C167   C     0.03307   0.24370   0.54070   0.00000  Uiso   1.00
C168   C     0.23938   0.03214   0.45936   0.00000  Uiso   1.00
H169   H     0.05617   0.23492   0.40220   0.00000  Uiso   1.00
H170   H     0.19374   0.01490   0.09778   0.00000  Uiso   1.00
H171   H     0.20146   0.09048   0.82298   0.00000  Uiso   1.00
H172   H     0.17837   0.10465   0.86619   0.00000  Uiso   1.00
H173   H     0.29852   0.40939   0.17711   0.00000  Uiso   1.00
H174   H     0.31804   0.36385   0.17356   0.00000  Uiso   1.00
H175   H     0.32159   0.39537   0.13384   0.00000  Uiso   1.00
H176   H     0.39156   0.30371   0.18276   0.00000  Uiso   1.00
H177   H     0.41480   0.31758   0.13947   0.00000  Uiso   1.00
H178   H     0.36958   0.33416   0.14796   0.00000  Uiso   1.00
H179   H     0.08545   0.18263   0.86050   0.00000  Uiso   1.00
H180   H     0.10851   0.19644   0.81708   0.00000  Uiso   1.00
H181   H     0.01520   0.19399   0.90214   0.00000  Uiso   1.00
H182   H     0.13064   0.16607   0.85185   0.00000  Uiso   1.00
H183   H     0.29914   0.12268   0.35565   0.00000  Uiso   1.00
H184   H     0.29568   0.13966   0.30693   0.00000  Uiso   1.00
H185   H     0.32916   0.15850   0.34053   0.00000  Uiso   1.00
H186   H     0.20433   0.36027   0.69310   0.00000  Uiso   1.00
H187   H     0.20094   0.37730   0.64440   0.00000  Uiso   1.00
H188   H     0.17089   0.34148   0.65943   0.00000  Uiso   1.00
H189   H     0.05597   0.10845   0.31203   0.00000  Uiso   1.00
H190   H     0.04023   0.15533   0.31768   0.00000  Uiso   1.00
H191   H     0.05717   0.13036   0.35853   0.00000  Uiso   1.00
H192   H     0.48513   0.30610   0.09785   0.00000  Uiso   1.00
H193   H     0.44837   0.35298   0.64518   0.00000  Uiso   1.00
H194   H     0.45526   0.36788   0.69406   0.00000  Uiso   1.00
H195   H     0.42937   0.39591   0.66001   0.00000  Uiso   1.00
H196   H     0.19345   0.37150   0.32258   0.00000  Uiso   1.00
H197   H     0.23262   0.34487   0.30931   0.00000  Uiso   1.00
H198   H     0.18934   0.32261   0.31316   0.00000  Uiso   1.00
H199   H     0.26723   0.15521   0.69101   0.00000  Uiso   1.00
H200   H     0.30641   0.12868   0.67755   0.00000  Uiso   1.00
H201   H     0.31046   0.17755   0.68712   0.00000  Uiso   1.00
H202   H     0.19397   0.01459   0.90217   0.00000  Uiso   1.00
H203   H     0.30601   0.48537   0.09781   0.00000  Uiso   1.00
H204   H     0.48530   0.30642   0.90223   0.00000  Uiso   1.00
H205   H     0.01451   0.19355   0.09779   0.00000  Uiso   1.00
H206   H     0.35897   0.29437   0.41797   0.00000  Uiso   1.00
H207   H     0.12983   0.27247   0.59206   0.00000  Uiso   1.00
H208   H     0.16405   0.10257   0.41037   0.00000  Uiso   1.00
H209   H     0.44385   0.26534   0.59778   0.00000  Uiso   1.00
H210   H     0.33519   0.39725   0.59068   0.00000  Uiso   1.00
H211   H     0.10199   0.16367   0.40974   0.00000  Uiso   1.00
H212   H     0.39855   0.33758   0.58925   0.00000  Uiso   1.00
H213   H     0.22851   0.37029   0.40684   0.00000  Uiso   1.00
H214   H     0.20660   0.14195   0.58169   0.00000  Uiso   1.00
H215   H     0.10823   0.04333   0.91856   0.00000  Uiso   1.00
H216   H     0.37969   0.02366   0.09193   0.00000  Uiso   1.00
H217   H     0.41396   0.35241   0.91026   0.00000  Uiso   1.00
H218   H     0.08449   0.14736   0.09145   0.00000  Uiso   1.00
H219   H     0.35262   0.41449   0.90969   0.00000  Uiso   1.00
H220   H     0.26509   0.44395   0.40215   0.00000  Uiso   1.00
H221   H     0.14784   0.08664   0.08938   0.00000  Uiso   1.00
H222   H     0.47875   0.12026   0.90680   0.00000  Uiso   1.00
H223   H     0.45639   0.39158   0.08211   0.00000  Uiso   1.00
H224   H     0.08936   0.49237   0.27150   0.00000  Uiso   1.00
H225   H     0.12094   0.46243   0.29547   0.00000  Uiso   1.00
H226   H     0.07335   0.44910   0.28904   0.00000  Uiso   1.00
H227   H     0.37881   0.03754   0.70465   0.00000  Uiso   1.00
H228   H     0.41035   0.00753   0.72855   0.00000  Uiso   1.00
H229   H     0.42647   0.05073   0.71090   0.00000  Uiso   1.00
H230   H     0.14214   0.19373   0.18744   0.00000  Uiso   1.00
H231   H     0.23525   0.05614   0.59784   0.00000  Uiso   1.00
H232   H     0.09547   0.21011   0.18332   0.00000  Uiso   1.00
H233   H     0.11916   0.19336   0.14155   0.00000  Uiso   1.00
H234   H     0.39606   0.30195   0.85552   0.00000  Uiso   1.00
H235   H     0.38335   0.29411   0.80611   0.00000  Uiso   1.00
H236   H     0.35364   0.32013   0.83837   0.00000  Uiso   1.00
H237   H     0.30218   0.11518   0.18253   0.00000  Uiso   1.00
H238   H     0.31803   0.10045   0.13578   0.00000  Uiso   1.00
H239   H     0.33658   0.14148   0.15628   0.00000  Uiso   1.00
H240   H     0.18223   0.39932   0.86410   0.00000  Uiso   1.00
H241   H     0.19798   0.38479   0.81725   0.00000  Uiso   1.00
H242   H     0.44410   0.26504   0.40215   0.00000  Uiso   1.00
H243   H     0.16369   0.35833   0.84348   0.00000  Uiso   1.00
H244   H     0.44644   0.35853   0.31706   0.00000  Uiso   1.00
H245   H     0.43254   0.33584   0.36069   0.00000  Uiso   1.00
H246   H     0.41612   0.38111   0.35152   0.00000  Uiso   1.00
H247   H     0.06726   0.16386   0.63932   0.00000  Uiso   1.00
H248   H     0.05340   0.14142   0.68311   0.00000  Uiso   1.00
H249   H     0.08364   0.11862   0.64874   0.00000  Uiso   1.00
H250   H     0.11458   0.06752   0.67380   0.00000  Uiso   1.00
H251   H     0.16031   0.04864   0.67646   0.00000  Uiso   1.00
H252   H     0.14543   0.07196   0.63366   0.00000  Uiso   1.00
H253   H     0.05587   0.23491   0.59782   0.00000  Uiso   1.00
H254   H     0.33985   0.45139   0.32339   0.00000  Uiso   1.00
H255   H     0.38552   0.43235   0.32631   0.00000  Uiso   1.00
H256   H     0.35448   0.42811   0.36632   0.00000  Uiso   1.00
H257   H     0.04914   0.37268   0.85564   0.00000  Uiso   1.00
H258   H     0.04568   0.38966   0.80693   0.00000  Uiso   1.00
H259   H     0.07915   0.40851   0.84053   0.00000  Uiso   1.00
H260   H     0.45433   0.11026   0.19312   0.00000  Uiso   1.00
H261   H     0.45096   0.12728   0.14441   0.00000  Uiso   1.00
H262   H     0.42090   0.09146   0.15944   0.00000  Uiso   1.00
H263   H     0.30608   0.35846   0.81227   0.00000  Uiso   1.00
H264   H     0.23541   0.05644   0.40223   0.00000  Uiso   1.00
H265   H     0.29029   0.40534   0.81770   0.00000  Uiso   1.00
H266   H     0.30729   0.38057   0.85866   0.00000  Uiso   1.00
H267   H     0.19815   0.10312   0.14490   0.00000  Uiso   1.00
H268   H     0.20534   0.11759   0.19389   0.00000  Uiso   1.00
H269   H     0.17936   0.14598   0.16025   0.00000  Uiso   1.00
H270   H     0.44345   0.12150   0.82258   0.00000  Uiso   1.00
H271   H     0.48262   0.09488   0.80931   0.00000  Uiso   1.00
H272   H     0.43935   0.07262   0.81316   0.00000  Uiso   1.00
H273   H     0.01723   0.40519   0.19099   0.00000  Uiso   1.00
H274   H     0.05642   0.37867   0.17754   0.00000  Uiso   1.00
H275   H     0.26444   0.44353   0.59779   0.00000  Uiso   1.00
H276   H     0.06046   0.42754   0.18710   0.00000  Uiso   1.00
H277   H     0.33935   0.24236   0.77152   0.00000  Uiso   1.00
H278   H     0.37094   0.21243   0.79548   0.00000  Uiso   1.00
H279   H     0.32335   0.19909   0.78905   0.00000  Uiso   1.00
H280   H     0.12882   0.28754   0.20465   0.00000  Uiso   1.00
H281   H     0.16036   0.25753   0.22855   0.00000  Uiso   1.00
H282   H     0.17648   0.30073   0.21090   0.00000  Uiso   1.00
H283   H     0.39222   0.44364   0.68731   0.00000  Uiso   1.00
H284   H     0.34556   0.46010   0.68339   0.00000  Uiso   1.00
H285   H     0.36908   0.44334   0.64151   0.00000  Uiso   1.00
H286   H     0.30627   0.48533   0.90221   0.00000  Uiso   1.00
H287   H     0.14594   0.05200   0.35560   0.00000  Uiso   1.00
H288   H     0.13342   0.04407   0.30614   0.00000  Uiso   1.00
H289   H     0.10358   0.07013   0.33824   0.00000  Uiso   1.00
H290   H     0.05216   0.36519   0.68255   0.00000  Uiso   1.00
H291   H     0.06799   0.35049   0.63579   0.00000  Uiso   1.00
H292   H     0.08656   0.39151   0.65630   0.00000  Uiso   1.00
H293   H     0.43223   0.14930   0.36409   0.00000  Uiso   1.00
H294   H     0.44798   0.13478   0.31724   0.00000  Uiso   1.00
H295   H     0.41369   0.10832   0.34348   0.00000  Uiso   1.00
H296   H     0.18206   0.13608   0.82640   0.00000  Uiso   1.00
O297   O     0.25000  -0.00000   0.25000   0.00000  Uiso   1.00
O298   O     0.25000   0.46964   0.66245   0.00000  Uiso   1.00
O299   O     0.45162   0.36869   0.06761   0.00000  Uiso   1.00
O300   O     0.10561   0.44818   0.23893   0.00000  Uiso   1.00
O301   O     0.39439   0.05182   0.76112   0.00000  Uiso   1.00
O302   O     0.10094   0.15362   0.17905   0.00000  Uiso   1.00
O303   O     0.40069   0.34725   0.82059   0.00000  Uiso   1.00
O304   O     0.35439   0.09201   0.18024   0.00000  Uiso   1.00
O305   O     0.14573   0.40785   0.81978   0.00000  Uiso   1.00
O306   O     0.39228   0.33930   0.31943   0.00000  Uiso   1.00
O307   O     0.10758   0.16057   0.68053   0.00000  Uiso   1.00
O308   O     0.15806   0.10546   0.67964   0.00000  Uiso   1.00
O309   O     0.46963   0.25000   0.33755   0.00000  Uiso   1.00
O310   O     0.34194   0.39455   0.32036   0.00000  Uiso   1.00
O311   O     0.09069   0.35604   0.81965   0.00000  Uiso   1.00
O312   O     0.40936   0.14391   0.18034   0.00000  Uiso   1.00
O313   O     0.34658   0.39925   0.82099   0.00000  Uiso   1.00
O314   O     0.15264   0.09916   0.17944   0.00000  Uiso   1.00
O315   O     0.44752   0.10537   0.76415   0.00000  Uiso   1.00
O316   O     0.05245   0.39463   0.23603   0.00000  Uiso   1.00
O317   O     0.35561   0.19818   0.73895   0.00000  Uiso   1.00
O318   O     0.14439   0.30182   0.26112   0.00000  Uiso   1.00
O319   O     0.35092   0.40361   0.67905   0.00000  Uiso   1.00
O320   O     0.03036   0.25000   0.66245   0.00000  Uiso   1.00
O321   O     0.15068   0.09724   0.32059   0.00000  Uiso   1.00
O322   O     0.10437   0.34203   0.68023   0.00000  Uiso   1.00
O323   O     0.39573   0.15785   0.31978   0.00000  Uiso   1.00
O324   O     0.14474   0.09209   0.82036   0.00000  Uiso   1.00
O325   O     0.35525   0.40791   0.17964   0.00000  Uiso   1.00
O326   O     0.41088   0.35800   0.18064   0.00000  Uiso   1.00
O327   O     0.08924   0.14213   0.81940   0.00000  Uiso   1.00
O328   O     0.34069   0.10604   0.31965   0.00000  Uiso   1.00
O329   O     0.15935   0.39392   0.68034   0.00000  Uiso   1.00
O330   O     0.09651   0.14918   0.32098   0.00000  Uiso   1.00
O331   O    -0.00000   0.21963   0.83755   0.00000  Uiso   1.00
O332   O     0.40267   0.34918   0.67945   0.00000  Uiso   1.00
O333   O     0.19752   0.35537   0.26415   0.00000  Uiso   1.00
O334   O     0.30245   0.14463   0.73604   0.00000  Uiso   1.00
O335   O    -0.00000   0.28036   0.16245   0.00000  Uiso   1.00
O336   O     0.28036  -0.00000   0.83755   0.00000  Uiso   1.00
O337   O     0.21963  -0.00000   0.16245   0.00000  Uiso   1.00
O338   O    -0.00000   0.28036   0.83755   0.00000  Uiso   1.00
O339   O     0.00000   0.21964   0.16245   0.00000  Uiso   1.00
O340   O     0.21963  -0.00000   0.83755   0.00000  Uiso   1.00
O341   O     0.25000  -0.00000   0.75000   0.00000  Uiso   1.00
O342   O     0.28036  -0.00000   0.16245   0.00000  Uiso   1.00
O343   O     0.20724   0.07307   0.27302   0.00000  Uiso   1.00
O344   O     0.29275   0.42693   0.72698   0.00000  Uiso   1.00
O345   O     0.42692   0.20724   0.27302   0.00000  Uiso   1.00
O346   O     0.07307   0.29276   0.72698   0.00000  Uiso   1.00
O347   O     0.29275   0.42693   0.27302   0.00000  Uiso   1.00
O348   O     0.20724   0.07307   0.72698   0.00000  Uiso   1.00
O349   O     0.07307   0.29276   0.27302   0.00000  Uiso   1.00
O350   O     0.42692   0.20724   0.72698   0.00000  Uiso   1.00
O351   O     0.20724   0.42693   0.72698   0.00000  Uiso   1.00
O352   O    -0.00000   0.25000   0.25000   0.00000  Uiso   1.00
O353   O     0.29275   0.07307   0.27302   0.00000  Uiso   1.00
O354   O     0.42692   0.29275   0.72698   0.00000  Uiso   1.00
O355   O     0.07307   0.20725   0.27302   0.00000  Uiso   1.00
O356   O     0.29275   0.07307   0.72698   0.00000  Uiso   1.00
O357   O     0.20724   0.42693   0.27302   0.00000  Uiso   1.00
O358   O     0.07307   0.20725   0.72698   0.00000  Uiso   1.00
O359   O     0.42692   0.29275   0.27302   0.00000  Uiso   1.00
O360   O     0.45724   0.32307   0.77302   0.00000  Uiso   1.00
O361   O     0.04275   0.17693   0.22698   0.00000  Uiso   1.00
O362   O     0.17692   0.45725   0.77302   0.00000  Uiso   1.00
O363   O    -0.00000   0.25000   0.75000   0.00000  Uiso   1.00
O364   O     0.32307   0.04275   0.22698   0.00000  Uiso   1.00
O365   O     0.04275   0.17693   0.77302   0.00000  Uiso   1.00
O366   O     0.45724   0.32307   0.22698   0.00000  Uiso   1.00
O367   O     0.32307   0.04275   0.77302   0.00000  Uiso   1.00
O368   O     0.17692   0.45725   0.22698   0.00000  Uiso   1.00
O369   O     0.45724   0.17692   0.22698   0.00000  Uiso   1.00
O370   O     0.04275   0.32308   0.77302   0.00000  Uiso   1.00
O371   O     0.17692   0.04275   0.22698   0.00000  Uiso   1.00
O372   O     0.32307   0.45725   0.77302   0.00000  Uiso   1.00
O373   O     0.04275   0.32308   0.22698   0.00000  Uiso   1.00
O374   O     0.25000   0.46964   0.33755   0.00000  Uiso   1.00
O375   O     0.45724   0.17692   0.77302   0.00000  Uiso   1.00
O376   O     0.32307   0.45725   0.22698   0.00000  Uiso   1.00
O377   O     0.17692   0.04275   0.77302   0.00000  Uiso   1.00
O378   O     0.39243   0.22890   0.42686   0.00000  Uiso   1.00
O379   O     0.36095   0.25175   0.48422   0.00000  Uiso   1.00
O380   O     0.38193   0.29902   0.43229   0.00000  Uiso   1.00
O381   O     0.11744   0.20515   0.56497   0.00000  Uiso   1.00
O382   O     0.13885   0.24894   0.51597   0.00000  Uiso   1.00
O383   O     0.10694   0.27459   0.57692   0.00000  Uiso   1.00
O384   O     0.18197   0.12136   0.48476   0.00000  Uiso   1.00
O385   O     0.25000   0.03036   0.66245   0.00000  Uiso   1.00
O386   O     0.23031   0.12484   0.43549   0.00000  Uiso   1.00
O387   O     0.17554   0.08137   0.42355   0.00000  Uiso   1.00
O388   O     0.26951   0.37514   0.56440   0.00000  Uiso   1.00
O389   O     0.31833   0.37861   0.51569   0.00000  Uiso   1.00
O390   O     0.32425   0.41848   0.57705   0.00000  Uiso   1.00
O391   O     0.12439   0.22959   0.43560   0.00000  Uiso   1.00
O392   O     0.12066   0.18092   0.48459   0.00000  Uiso   1.00
O393   O     0.08087   0.17488   0.42326   0.00000  Uiso   1.00
O394   O     0.37969   0.31945   0.51505   0.00000  Uiso   1.00
O395   O     0.37566   0.27116   0.56445   0.00000  Uiso   1.00
O396   O     0.03036   0.25000   0.33755   0.00000  Uiso   1.00
O397   O     0.41958   0.32565   0.57628   0.00000  Uiso   1.00
O398   O     0.29482   0.38215   0.43520   0.00000  Uiso   1.00
O399   O     0.25076   0.36070   0.48382   0.00000  Uiso   1.00
O400   O     0.22567   0.39274   0.42269   0.00000  Uiso   1.00
O401   O     0.27170   0.10769   0.57336   0.00000  Uiso   1.00
O402   O     0.24949   0.13944   0.51588   0.00000  Uiso   1.00
O403   O     0.20190   0.11884   0.56755   0.00000  Uiso   1.00
O404   O     0.14261   0.47799   0.92687   0.00000  Uiso   1.00
O405   O     0.11097   0.00050   0.98428   0.00000  Uiso   1.00
O406   O     0.13145   0.04800   0.93237   0.00000  Uiso   1.00
O407   O     0.46963   0.25000   0.66245   0.00000  Uiso   1.00
O408   O     0.36784   0.45615   0.06494   0.00000  Uiso   1.00
O409   O     0.38883   0.00011   0.01590   0.00000  Uiso   1.00
O410   O     0.35673   0.02551   0.07687   0.00000  Uiso   1.00
O411   O     0.43170   0.37121   0.98476   0.00000  Uiso   1.00
O412   O     0.48005   0.37482   0.93552   0.00000  Uiso   1.00
O413   O     0.42538   0.33123   0.92354   0.00000  Uiso   1.00
O414   O     0.01962   0.12517   0.06439   0.00000  Uiso   1.00
O415   O     0.06847   0.12865   0.01573   0.00000  Uiso   1.00
O416   O     0.07432   0.16855   0.07707   0.00000  Uiso   1.00
O417   O     0.37451   0.48054   0.93555   0.00000  Uiso   1.00
O418   O     0.25000   0.03036   0.33755   0.00000  Uiso   1.00
O419   O     0.37121   0.43188   0.98459   0.00000  Uiso   1.00
O420   O     0.33143   0.42546   0.92330   0.00000  Uiso   1.00
O421   O     0.12910   0.06843   0.01507   0.00000  Uiso   1.00
O422   O     0.12552   0.02012   0.06450   0.00000  Uiso   1.00
O423   O     0.16896   0.07500   0.07627   0.00000  Uiso   1.00
O424   O     0.04503   0.13222   0.93520   0.00000  Uiso   1.00
O425   O     0.00097   0.11069   0.98378   0.00000  Uiso   1.00
O426   O     0.47587   0.14271   0.92265   0.00000  Uiso   1.00
O427   O     0.02145   0.35774   0.07336   0.00000  Uiso   1.00
O428   O     0.49911   0.38946   0.01592   0.00000  Uiso   1.00
S429   S     0.39104   0.25970   0.45580   0.00000  Uiso   1.00
S430   S     0.35892   0.49127   0.04423   0.00000  Uiso   1.00
S431   S     0.45411   0.34967   0.95618   0.00000  Uiso   1.00
S432   S     0.04585   0.15026   0.04407   0.00000  Uiso   1.00
S433   S     0.34959   0.45429   0.95608   0.00000  Uiso   1.00
S434   S     0.15059   0.04607   0.04374   0.00000  Uiso   1.00
S435   S     0.00975   0.14082   0.95560   0.00000  Uiso   1.00
S436   S     0.49087   0.35932   0.04428   0.00000  Uiso   1.00
S437   S     0.10884   0.24035   0.54427   0.00000  Uiso   1.00
S438   S     0.20432   0.09975   0.45617   0.00000  Uiso   1.00
S439   S     0.29575   0.40021   0.54406   0.00000  Uiso   1.00
S440   S     0.09924   0.20353   0.45608   0.00000  Uiso   1.00
S441   S     0.40097   0.29689   0.54372   0.00000  Uiso   1.00
S442   S     0.25957   0.39080   0.45562   0.00000  Uiso   1.00
S443   S     0.24114   0.10935   0.54425   0.00000  Uiso   1.00
S444   S     0.14095   0.00876   0.95584   0.00000  Uiso   1.00
Zn445  Zn    0.20659   0.00000   0.21735   0.00000  Uiso   1.00
Zn446  Zn    0.04340   0.25000   0.28265   0.00000  Uiso   1.00
Zn447  Zn    0.25000   0.45660   0.71735   0.00000  Uiso   1.00
Zn448  Zn    0.25000   0.04340   0.28265   0.00000  Uiso   1.00
Zn449  Zn    0.04340   0.25000   0.71735   0.00000  Uiso   1.00
Zn450  Zn    0.45659   0.25000   0.28265   0.00000  Uiso   1.00
Zn451  Zn    0.25000   0.04340   0.71735   0.00000  Uiso   1.00
Zn452  Zn    0.25000   0.45660   0.28265   0.00000  Uiso   1.00
Zn453  Zn    0.29340  -0.00000   0.78265   0.00000  Uiso   1.00
Zn454  Zn   -0.00000   0.20659   0.21735   0.00000  Uiso   1.00
Zn455  Zn   -0.00000   0.29340   0.78265   0.00000  Uiso   1.00
Zn456  Zn    0.29340   0.00000   0.21735   0.00000  Uiso   1.00
Zn457  Zn    0.20659  -0.00000   0.78265   0.00000  Uiso   1.00
Zn458  Zn   -0.00000   0.29340   0.21735   0.00000  Uiso   1.00
Zn459  Zn   -0.00000   0.20659   0.78265   0.00000  Uiso   1.00
Zn460  Zn    0.45659   0.25000   0.71735   0.00000  Uiso   1.00
C461   C     0.53155   0.23990   0.41864   0.00000  Uiso   1.00
C462   C     0.71839   0.00998   0.08134   0.00000  Uiso   1.00
C463   C     0.76086   0.46789   0.54067   0.00000  Uiso   1.00
C464   C     0.53194   0.23890   0.45934   0.00000  Uiso   1.00
C465   C     0.96805   0.26111   0.54065   0.00000  Uiso   1.00
C466   C     0.75635   0.46683   0.45930   0.00000  Uiso   1.00
C467   C     0.74404   0.03324   0.54071   0.00000  Uiso   1.00
C468   C     0.71684   0.00593   0.95930   0.00000  Uiso   1.00
C469   C     0.78312   0.49397   0.04069   0.00000  Uiso   1.00
C470   C     0.98930   0.28212   0.95936   0.00000  Uiso   1.00
C471   C     0.51090   0.21790   0.04066   0.00000  Uiso   1.00
C472   C     0.78201   0.48913   0.95934   0.00000  Uiso   1.00
C473   C     0.50692   0.21775   0.91863   0.00000  Uiso   1.00
C474   C     0.71797   0.01086   0.04065   0.00000  Uiso   1.00
C475   C     0.50640   0.21684   0.95929   0.00000  Uiso   1.00
C476   C     0.99396   0.28322   0.04071   0.00000  Uiso   1.00
C477   C     0.59809   0.34812   0.24935   0.00000  Uiso   1.00
C478   C     0.90191   0.15188   0.75067   0.00000  Uiso   1.00
C479   C     0.65196   0.09811   0.25002   0.00000  Uiso   1.00
C480   C     0.84800   0.40194   0.75000   0.00000  Uiso   1.00
C481   C     0.90226   0.15152   0.24993   0.00000  Uiso   1.00
C482   C     0.59775   0.34846   0.75006   0.00000  Uiso   1.00
C483   C     0.84797   0.40192   0.25001   0.00000  Uiso   1.00
C484   C     0.99334   0.28231   0.08138   0.00000  Uiso   1.00
C485   C     0.65203   0.09808   0.74999   0.00000  Uiso   1.00
C486   C     0.59803   0.15183   0.74999   0.00000  Uiso   1.00
C487   C     0.90197   0.34817   0.25001   0.00000  Uiso   1.00
C488   C     0.65226   0.40153   0.74993   0.00000  Uiso   1.00
C489   C     0.84775   0.09846   0.25006   0.00000  Uiso   1.00
C490   C     0.90196   0.34811   0.75002   0.00000  Uiso   1.00
C491   C     0.59800   0.15194   0.24999   0.00000  Uiso   1.00
C492   C     0.84809   0.09812   0.74936   0.00000  Uiso   1.00
C493   C     0.65191   0.40188   0.25066   0.00000  Uiso   1.00
C494   C     0.99979   0.24910   0.47968   0.00000  Uiso   1.00
C495   C     0.71773   0.00645   0.91863   0.00000  Uiso   1.00
C496   C     0.50018   0.25083   0.52031   0.00000  Uiso   1.00
C497   C     0.74937   0.49985   0.47969   0.00000  Uiso   1.00
C498   C     0.75098   0.00021   0.52032   0.00000  Uiso   1.00
C499   C     0.74979   0.49908   0.97968   0.00000  Uiso   1.00
C500   C     0.75017   0.00083   0.02031   0.00000  Uiso   1.00
C501   C     0.99935   0.24984   0.97969   0.00000  Uiso   1.00
C502   C     0.50096   0.25021   0.02032   0.00000  Uiso   1.00
C503   C     0.59703   0.46324   0.27555   0.00000  Uiso   1.00
C504   C     0.90278   0.03668   0.72448   0.00000  Uiso   1.00
C505   C     0.61522   0.18912   0.17318   0.00000  Uiso   1.00
C506   C     0.78224   0.49350   0.08136   0.00000  Uiso   1.00
C507   C     0.88237   0.31454   0.83007   0.00000  Uiso   1.00
C508   C     0.82661   0.11354   0.16337   0.00000  Uiso   1.00
C509   C     0.67359   0.38632   0.83648   0.00000  Uiso   1.00
C510   C     0.92318   0.35473   0.33747   0.00000  Uiso   1.00
C511   C     0.57663   0.14508   0.66263   0.00000  Uiso   1.00
C512   C     0.64371   0.07201   0.66585   0.00000  Uiso   1.00
C513   C     0.85633   0.42798   0.33414   0.00000  Uiso   1.00
C514   C     0.56525   0.38318   0.83074   0.00000  Uiso   1.00
C515   C     0.93481   0.11677   0.16928   0.00000  Uiso   1.00
C516   C     0.81115   0.38511   0.82706   0.00000  Uiso   1.00
C517   C     0.99024   0.28172   0.91867   0.00000  Uiso   1.00
C518   C     0.68519   0.11754   0.16970   0.00000  Uiso   1.00
C519   C     0.95296   0.09835   0.80409   0.00000  Uiso   1.00
C520   C     0.54692   0.40176   0.19613   0.00000  Uiso   1.00
C521   C     0.84703   0.21323   0.77557   0.00000  Uiso   1.00
C522   C     0.65278   0.28668   0.22448   0.00000  Uiso   1.00
C523   C     0.86524   0.43908   0.67316   0.00000  Uiso   1.00
C524   C     0.63234   0.06454   0.33006   0.00000  Uiso   1.00
C525   C     0.57659   0.36356   0.66339   0.00000  Uiso   1.00
C526   C     0.92360   0.13631   0.33647   0.00000  Uiso   1.00
C527   C     0.67804   0.10672   0.83403   0.00000  Uiso   1.00
C528   C     0.50977   0.21828   0.08135   0.00000  Uiso   1.00
C529   C     0.82197   0.39324   0.16600   0.00000  Uiso   1.00
C530   C     0.89567   0.32702   0.16241   0.00000  Uiso   1.00
C531   C     0.60449   0.17316   0.83750   0.00000  Uiso   1.00
C532   C     0.81525   0.13318   0.33074   0.00000  Uiso   1.00
C533   C     0.68479   0.36679   0.66927   0.00000  Uiso   1.00
C534   C     0.56106   0.13504   0.32696   0.00000  Uiso   1.00
C535   C     0.93523   0.36756   0.66975   0.00000  Uiso   1.00
C536   C     0.70296   0.34834   0.30408   0.00000  Uiso   1.00
C537   C     0.79691   0.15177   0.69615   0.00000  Uiso   1.00
C538   C     0.99982   0.24889   0.39844   0.00000  Uiso   1.00
C539   C     0.50016   0.25115   0.60156   0.00000  Uiso   1.00
C540   C     0.74909   0.49987   0.39846   0.00000  Uiso   1.00
C541   C     0.96846   0.26022   0.58134   0.00000  Uiso   1.00
C542   C     0.75100   0.00015   0.60155   0.00000  Uiso   1.00
C543   C     0.74982   0.49887   0.89844   0.00000  Uiso   1.00
C544   C     0.75016   0.00116   0.10156   0.00000  Uiso   1.00
C545   C     0.99909   0.24987   0.89846   0.00000  Uiso   1.00
C546   C     0.50098   0.25015   0.10155   0.00000  Uiso   1.00
C547   C     0.93417   0.26379   0.47977   0.00000  Uiso   1.00
C548   C     0.56578   0.23611   0.52023   0.00000  Uiso   1.00
C549   C     0.72968   0.06433   0.47992   0.00000  Uiso   1.00
C550   C     0.77065   0.43572   0.52012   0.00000  Uiso   1.00
C551   C     0.56397   0.22901   0.47990   0.00000  Uiso   1.00
C552   C     0.75686   0.46773   0.41863   0.00000  Uiso   1.00
C553   C     0.93604   0.27103   0.52007   0.00000  Uiso   1.00
C554   C     0.76372   0.43396   0.47975   0.00000  Uiso   1.00
C555   C     0.73680   0.06613   0.52024   0.00000  Uiso   1.00
C556   C     0.68406   0.01323   0.97978   0.00000  Uiso   1.00
C557   C     0.81589   0.48664   0.02022   0.00000  Uiso   1.00
C558   C     0.97954   0.31429   0.97993   0.00000  Uiso   1.00
C559   C     0.52073   0.18575   0.02012   0.00000  Uiso   1.00
C560   C     0.81413   0.47950   0.97990   0.00000  Uiso   1.00
C561   C     0.68587   0.02051   0.02007   0.00000  Uiso   1.00
C562   C     0.51383   0.18398   0.97974   0.00000  Uiso   1.00
C563   C     0.74342   0.03233   0.58137   0.00000  Uiso   1.00
C564   C     0.98665   0.31610   0.02025   0.00000  Uiso   1.00
C565   C     0.74994   0.49999   0.35600   0.00000  Uiso   1.00
C566   C     0.75006   0.00001   0.64401   0.00000  Uiso   1.00
C567   C     0.99998   0.24989   0.35597   0.00000  Uiso   1.00
C568   C     0.50002   0.25013   0.64403   0.00000  Uiso   1.00
C569   C     0.99994   0.24999   0.85600   0.00000  Uiso   1.00
C570   C     0.50005   0.25001   0.14401   0.00000  Uiso   1.00
C571   C     0.74998   0.49988   0.85597   0.00000  Uiso   1.00
C572   C     0.75002   0.00013   0.14403   0.00000  Uiso   1.00
C573   C     0.68002   0.07002   0.25001   0.00000  Uiso   1.00
C574   C     0.96779   0.25672   0.41862   0.00000  Uiso   1.00
C575   C     0.81997   0.42999   0.75000   0.00000  Uiso   1.00
C576   C     0.92998   0.17995   0.24988   0.00000  Uiso   1.00
C577   C     0.57002   0.32005   0.75012   0.00000  Uiso   1.00
C578   C     0.81997   0.42999   0.25001   0.00000  Uiso   1.00
C579   C     0.68003   0.07001   0.74999   0.00000  Uiso   1.00
C580   C     0.56997   0.32010   0.24993   0.00000  Uiso   1.00
C581   C     0.93003   0.17990   0.75007   0.00000  Uiso   1.00
C582   C     0.67998   0.42995   0.74988   0.00000  Uiso   1.00
C583   C     0.82002   0.07005   0.25012   0.00000  Uiso   1.00
C584   C     0.93002   0.32002   0.75001   0.00000  Uiso   1.00
C585   C     0.53218   0.24324   0.58136   0.00000  Uiso   1.00
C586   C     0.56997   0.17999   0.24999   0.00000  Uiso   1.00
C587   C     0.81997   0.07010   0.74993   0.00000  Uiso   1.00
C588   C     0.68003   0.42990   0.25007   0.00000  Uiso   1.00
C589   C     0.56999   0.17996   0.75000   0.00000  Uiso   1.00
C590   C     0.93001   0.32004   0.25000   0.00000  Uiso   1.00
C591   C     0.61533   0.41188   0.24402   0.00000  Uiso   1.00
C592   C     0.88466   0.08812   0.75601   0.00000  Uiso   1.00
C593   C     0.61289   0.13988   0.21439   0.00000  Uiso   1.00
C594   C     0.88738   0.36036   0.78557   0.00000  Uiso   1.00
C595   C     0.86482   0.10809   0.21489   0.00000  Uiso   1.00
C596   C     0.74030   0.03173   0.41867   0.00000  Uiso   1.00
C597   C     0.63523   0.39186   0.78511   0.00000  Uiso   1.00
C598   C     0.88487   0.35796   0.28525   0.00000  Uiso   1.00
C599   C     0.61508   0.14199   0.71474   0.00000  Uiso   1.00
C600   C     0.64161   0.11462   0.71462   0.00000  Uiso   1.00
C601   C     0.85837   0.38536   0.28538   0.00000  Uiso   1.00
C602   C     0.60690   0.36633   0.78497   0.00000  Uiso   1.00
C603   C     0.89314   0.13364   0.21502   0.00000  Uiso   1.00
C604   C     0.86015   0.38713   0.78562   0.00000  Uiso   1.00
C605   C     0.63966   0.11263   0.21445   0.00000  Uiso   1.00
C606   C     0.91141   0.11520   0.75829   0.00000  Uiso   1.00
C607   C     0.75973   0.46827   0.58135   0.00000  Uiso   1.00
C608   C     0.58857   0.38480   0.24177   0.00000  Uiso   1.00
C609   C     0.86533   0.16188   0.74403   0.00000  Uiso   1.00
C610   C     0.63466   0.33812   0.25600   0.00000  Uiso   1.00
C611   C     0.86288   0.38987   0.71440   0.00000  Uiso   1.00
C612   C     0.63738   0.11036   0.28557   0.00000  Uiso   1.00
C613   C     0.61481   0.35810   0.71489   0.00000  Uiso   1.00
C614   C     0.88523   0.14186   0.28511   0.00000  Uiso   1.00
C615   C     0.63545   0.10844   0.78537   0.00000  Uiso   1.00
C616   C     0.86457   0.39158   0.21464   0.00000  Uiso   1.00
C617   C     0.89213   0.36525   0.21478   0.00000  Uiso   1.00
C618   C     0.78161   0.49011   0.91864   0.00000  Uiso   1.00
C619   C     0.60792   0.13480   0.78523   0.00000  Uiso   1.00
C620   C     0.85690   0.11633   0.28497   0.00000  Uiso   1.00
C621   C     0.64313   0.38365   0.71502   0.00000  Uiso   1.00
C622   C     0.61013   0.13712   0.28561   0.00000  Uiso   1.00
C623   C     0.88966   0.36263   0.71446   0.00000  Uiso   1.00
C624   C     0.66142   0.36520   0.25829   0.00000  Uiso   1.00
C625   C     0.83857   0.13480   0.74178   0.00000  Uiso   1.00
C626   C     0.96689   0.25621   0.45929   0.00000  Uiso   1.00
C627   C     0.53307   0.24370   0.54070   0.00000  Uiso   1.00
C628   C     0.73938   0.03214   0.45936   0.00000  Uiso   1.00
H629   H     0.55617   0.23492   0.40220   0.00000  Uiso   1.00
H630   H     0.69374   0.01490   0.09778   0.00000  Uiso   1.00
H631   H     0.70146   0.09048   0.82298   0.00000  Uiso   1.00
H632   H     0.67837   0.10465   0.86619   0.00000  Uiso   1.00
H633   H     0.79852   0.40939   0.17711   0.00000  Uiso   1.00
H634   H     0.81804   0.36385   0.17356   0.00000  Uiso   1.00
H635   H     0.82159   0.39537   0.13384   0.00000  Uiso   1.00
H636   H     0.89156   0.30371   0.18276   0.00000  Uiso   1.00
H637   H     0.91480   0.31758   0.13947   0.00000  Uiso   1.00
H638   H     0.86958   0.33416   0.14796   0.00000  Uiso   1.00
H639   H     0.58545   0.18263   0.86050   0.00000  Uiso   1.00
H640   H     0.60851   0.19644   0.81708   0.00000  Uiso   1.00
H641   H     0.51520   0.19399   0.90214   0.00000  Uiso   1.00
H642   H     0.63064   0.16607   0.85185   0.00000  Uiso   1.00
H643   H     0.79914   0.12268   0.35565   0.00000  Uiso   1.00
H644   H     0.79568   0.13966   0.30693   0.00000  Uiso   1.00
H645   H     0.82916   0.15850   0.34053   0.00000  Uiso   1.00
H646   H     0.70433   0.36027   0.69310   0.00000  Uiso   1.00
H647   H     0.70094   0.37730   0.64440   0.00000  Uiso   1.00
H648   H     0.67089   0.34148   0.65943   0.00000  Uiso   1.00
H649   H     0.55597   0.10845   0.31203   0.00000  Uiso   1.00
H650   H     0.54023   0.15533   0.31768   0.00000  Uiso   1.00
H651   H     0.55717   0.13036   0.35853   0.00000  Uiso   1.00
H652   H     0.98513   0.30610   0.09785   0.00000  Uiso   1.00
H653   H     0.94837   0.35298   0.64518   0.00000  Uiso   1.00
H654   H     0.95526   0.36788   0.69406   0.00000  Uiso   1.00
H655   H     0.92937   0.39591   0.66001   0.00000  Uiso   1.00
H656   H     0.69345   0.37150   0.32258   0.00000  Uiso   1.00
H657   H     0.73262   0.34487   0.30931   0.00000  Uiso   1.00
H658   H     0.68934   0.32261   0.31316   0.00000  Uiso   1.00
H659   H     0.76723   0.15521   0.69101   0.00000  Uiso   1.00
H660   H     0.80641   0.12868   0.67755   0.00000  Uiso   1.00
H661   H     0.81046   0.17755   0.68712   0.00000  Uiso   1.00
H662   H     0.69397   0.01459   0.90217   0.00000  Uiso   1.00
H663   H     0.80601   0.48537   0.09781   0.00000  Uiso   1.00
H664   H     0.98530   0.30642   0.90223   0.00000  Uiso   1.00
H665   H     0.51451   0.19355   0.09779   0.00000  Uiso   1.00
H666   H     0.85897   0.29437   0.41797   0.00000  Uiso   1.00
H667   H     0.62983   0.27247   0.59206   0.00000  Uiso   1.00
H668   H     0.66405   0.10257   0.41037   0.00000  Uiso   1.00
H669   H     0.94385   0.26534   0.59778   0.00000  Uiso   1.00
H670   H     0.83519   0.39725   0.59068   0.00000  Uiso   1.00
H671   H     0.60199   0.16367   0.40974   0.00000  Uiso   1.00
H672   H     0.89855   0.33758   0.58925   0.00000  Uiso   1.00
H673   H     0.72851   0.37029   0.40684   0.00000  Uiso   1.00
H674   H     0.70660   0.14195   0.58169   0.00000  Uiso   1.00
H675   H     0.60823   0.04333   0.91856   0.00000  Uiso   1.00
H676   H     0.87969   0.02366   0.09193   0.00000  Uiso   1.00
H677   H     0.91396   0.35241   0.91026   0.00000  Uiso   1.00
H678   H     0.58449   0.14736   0.09145   0.00000  Uiso   1.00
H679   H     0.85262   0.41449   0.90969   0.00000  Uiso   1.00
H680   H     0.76509   0.44395   0.40215   0.00000  Uiso   1.00
H681   H     0.64784   0.08664   0.08938   0.00000  Uiso   1.00
H682   H     0.97875   0.12026   0.90680   0.00000  Uiso   1.00
H683   H     0.95639   0.39158   0.08211   0.00000  Uiso   1.00
H684   H     0.58936   0.49237   0.27150   0.00000  Uiso   1.00
H685   H     0.62094   0.46243   0.29547   0.00000  Uiso   1.00
H686   H     0.57335   0.44910   0.28904   0.00000  Uiso   1.00
H687   H     0.87881   0.03754   0.70465   0.00000  Uiso   1.00
H688   H     0.91035   0.00753   0.72855   0.00000  Uiso   1.00
H689   H     0.92647   0.05073   0.71090   0.00000  Uiso   1.00
H690   H     0.64214   0.19373   0.18744   0.00000  Uiso   1.00
H691   H     0.73525   0.05614   0.59784   0.00000  Uiso   1.00
H692   H     0.59547   0.21011   0.18332   0.00000  Uiso   1.00
H693   H     0.61916   0.19336   0.14155   0.00000  Uiso   1.00
H694   H     0.89606   0.30195   0.85552   0.00000  Uiso   1.00
H695   H     0.88335   0.29411   0.80611   0.00000  Uiso   1.00
H696   H     0.85364   0.32013   0.83837   0.00000  Uiso   1.00
H697   H     0.80218   0.11518   0.18253   0.00000  Uiso   1.00
H698   H     0.81803   0.10045   0.13578   0.00000  Uiso   1.00
H699   H     0.83658   0.14148   0.15628   0.00000  Uiso   1.00
H700   H     0.68223   0.39932   0.86410   0.00000  Uiso   1.00
H701   H     0.69798   0.38479   0.81725   0.00000  Uiso   1.00
H702   H     0.94410   0.26504   0.40215   0.00000  Uiso   1.00
H703   H     0.66369   0.35833   0.84348   0.00000  Uiso   1.00
H704   H     0.94644   0.35853   0.31706   0.00000  Uiso   1.00
H705   H     0.93254   0.33584   0.36069   0.00000  Uiso   1.00
H706   H     0.91612   0.38111   0.35152   0.00000  Uiso   1.00
H707   H     0.56726   0.16386   0.63932   0.00000  Uiso   1.00
H708   H     0.55340   0.14142   0.68311   0.00000  Uiso   1.00
H709   H     0.58364   0.11862   0.64874   0.00000  Uiso   1.00
H710   H     0.61458   0.06752   0.67380   0.00000  Uiso   1.00
H711   H     0.66031   0.04864   0.67646   0.00000  Uiso   1.00
H712   H     0.64543   0.07196   0.63366   0.00000  Uiso   1.00
H713   H     0.55587   0.23491   0.59782   0.00000  Uiso   1.00
H714   H     0.83985   0.45139   0.32339   0.00000  Uiso   1.00
H715   H     0.88552   0.43235   0.32631   0.00000  Uiso   1.00
H716   H     0.85448   0.42811   0.36632   0.00000  Uiso   1.00
H717   H     0.54914   0.37268   0.85564   0.00000  Uiso   1.00
H718   H     0.54568   0.38966   0.80693   0.00000  Uiso   1.00
H719   H     0.57915   0.40851   0.84053   0.00000  Uiso   1.00
H720   H     0.95433   0.11026   0.19312   0.00000  Uiso   1.00
H721   H     0.95096   0.12728   0.14441   0.00000  Uiso   1.00
H722   H     0.92090   0.09146   0.15944   0.00000  Uiso   1.00
H723   H     0.80608   0.35846   0.81227   0.00000  Uiso   1.00
H724   H     0.73541   0.05644   0.40223   0.00000  Uiso   1.00
H725   H     0.79029   0.40534   0.81770   0.00000  Uiso   1.00
H726   H     0.80729   0.38057   0.85866   0.00000  Uiso   1.00
H727   H     0.69815   0.10312   0.14490   0.00000  Uiso   1.00
H728   H     0.70534   0.11759   0.19389   0.00000  Uiso   1.00
H729   H     0.67936   0.14598   0.16025   0.00000  Uiso   1.00
H730   H     0.94345   0.12150   0.82258   0.00000  Uiso   1.00
H731   H     0.98262   0.09488   0.80931   0.00000  Uiso   1.00
H732   H     0.93935   0.07262   0.81316   0.00000  Uiso   1.00
H733   H     0.51723   0.40519   0.19099   0.00000  Uiso   1.00
H734   H     0.55642   0.37867   0.17754   0.00000  Uiso   1.00
H735   H     0.76444   0.44353   0.59779   0.00000  Uiso   1.00
H736   H     0.56046   0.42754   0.18710   0.00000  Uiso   1.00
H737   H     0.83935   0.24236   0.77152   0.00000  Uiso   1.00
H738   H     0.87094   0.21243   0.79548   0.00000  Uiso   1.00
H739   H     0.82335   0.19909   0.78905   0.00000  Uiso   1.00
H740   H     0.62882   0.28754   0.20465   0.00000  Uiso   1.00
H741   H     0.66036   0.25753   0.22855   0.00000  Uiso   1.00
H742   H     0.67648   0.30073   0.21090   0.00000  Uiso   1.00
H743   H     0.89222   0.44364   0.68731   0.00000  Uiso   1.00
H744   H     0.84556   0.46010   0.68339   0.00000  Uiso   1.00
H745   H     0.86908   0.44334   0.64151   0.00000  Uiso   1.00
H746   H     0.80627   0.48533   0.90221   0.00000  Uiso   1.00
H747   H     0.64594   0.05200   0.35560   0.00000  Uiso   1.00
H748   H     0.63342   0.04407   0.30614   0.00000  Uiso   1.00
H749   H     0.60358   0.07013   0.33824   0.00000  Uiso   1.00
H750   H     0.55216   0.36519   0.68255   0.00000  Uiso   1.00
H751   H     0.56799   0.35049   0.63579   0.00000  Uiso   1.00
H752   H     0.58656   0.39151   0.65630   0.00000  Uiso   1.00
H753   H     0.93223   0.14930   0.36409   0.00000  Uiso   1.00
H754   H     0.94798   0.13478   0.31724   0.00000  Uiso   1.00
H755   H     0.91369   0.10832   0.34348   0.00000  Uiso   1.00
H756   H     0.68206   0.13608   0.82640   0.00000  Uiso   1.00
O757   O     0.75000  -0.00000   0.25000   0.00000  Uiso   1.00
O758   O     0.75000   0.46964   0.66245   0.00000  Uiso   1.00
O759   O     0.95162   0.36869   0.06761   0.00000  Uiso   1.00
O760   O     0.60561   0.44818   0.23893   0.00000  Uiso   1.00
O761   O     0.89439   0.05182   0.76112   0.00000  Uiso   1.00
O762   O     0.60094   0.15362   0.17905   0.00000  Uiso   1.00
O763   O     0.90069   0.34725   0.82059   0.00000  Uiso   1.00
O764   O     0.85439   0.09201   0.18024   0.00000  Uiso   1.00
O765   O     0.64573   0.40785   0.81978   0.00000  Uiso   1.00
O766   O     0.89228   0.33930   0.31943   0.00000  Uiso   1.00
O767   O     0.60758   0.16057   0.68053   0.00000  Uiso   1.00
O768   O     0.65806   0.10546   0.67964   0.00000  Uiso   1.00
O769   O     0.96963   0.25000   0.33755   0.00000  Uiso   1.00
O770   O     0.84194   0.39455   0.32036   0.00000  Uiso   1.00
O771   O     0.59069   0.35604   0.81965   0.00000  Uiso   1.00
O772   O     0.90936   0.14391   0.18034   0.00000  Uiso   1.00
O773   O     0.84658   0.39925   0.82099   0.00000  Uiso   1.00
O774   O     0.65264   0.09916   0.17944   0.00000  Uiso   1.00
O775   O     0.94752   0.10537   0.76415   0.00000  Uiso   1.00
O776   O     0.55245   0.39463   0.23603   0.00000  Uiso   1.00
O777   O     0.85561   0.19818   0.73895   0.00000  Uiso   1.00
O778   O     0.64439   0.30182   0.26112   0.00000  Uiso   1.00
O779   O     0.85092   0.40361   0.67905   0.00000  Uiso   1.00
O780   O     0.53036   0.25000   0.66245   0.00000  Uiso   1.00
O781   O     0.65068   0.09724   0.32059   0.00000  Uiso   1.00
O782   O     0.60437   0.34203   0.68023   0.00000  Uiso   1.00
O783   O     0.89573   0.15785   0.31978   0.00000  Uiso   1.00
O784   O     0.64474   0.09209   0.82036   0.00000  Uiso   1.00
O785   O     0.85525   0.40791   0.17964   0.00000  Uiso   1.00
O786   O     0.91088   0.35800   0.18064   0.00000  Uiso   1.00
O787   O     0.58924   0.14213   0.81940   0.00000  Uiso   1.00
O788   O     0.84069   0.10604   0.31965   0.00000  Uiso   1.00
O789   O     0.65935   0.39392   0.68034   0.00000  Uiso   1.00
O790   O     0.59651   0.14918   0.32098   0.00000  Uiso   1.00
O791   O     0.50000   0.21963   0.83755   0.00000  Uiso   1.00
O792   O     0.90267   0.34918   0.67945   0.00000  Uiso   1.00
O793   O     0.69752   0.35537   0.26415   0.00000  Uiso   1.00
O794   O     0.80245   0.14463   0.73604   0.00000  Uiso   1.00
O795   O     0.50000   0.28036   0.16245   0.00000  Uiso   1.00
O796   O     0.78036  -0.00000   0.83755   0.00000  Uiso   1.00
O797   O     0.71963  -0.00000   0.16245   0.00000  Uiso   1.00
O798   O     0.50000   0.28036   0.83755   0.00000  Uiso   1.00
O799   O     0.50000   0.21964   0.16245   0.00000  Uiso   1.00
O800   O     0.71963  -0.00000   0.83755   0.00000  Uiso   1.00
O801   O     0.75000  -0.00000   0.75000   0.00000  Uiso   1.00
O802   O     0.78036  -0.00000   0.16245   0.00000  Uiso   1.00
O803   O     0.70724   0.07307   0.27302   0.00000  Uiso   1.00
O804   O     0.79275   0.42693   0.72698   0.00000  Uiso   1.00
O805   O     0.92692   0.20724   0.27302   0.00000  Uiso   1.00
O806   O     0.57307   0.29276   0.72698   0.00000  Uiso   1.00
O807   O     0.79275   0.42693   0.27302   0.00000  Uiso   1.00
O808   O     0.70724   0.07307   0.72698   0.00000  Uiso   1.00
O809   O     0.57307   0.29276   0.27302   0.00000  Uiso   1.00
O810   O     0.92692   0.20724   0.72698   0.00000  Uiso   1.00
O811   O     0.70724   0.42693   0.72698   0.00000  Uiso   1.00
O812   O     0.50000   0.25000   0.25000   0.00000  Uiso   1.00
O813   O     0.79275   0.07307   0.27302   0.00000  Uiso   1.00
O814   O     0.92692   0.29275   0.72698   0.00000  Uiso   1.00
O815   O     0.57307   0.20725   0.27302   0.00000  Uiso   1.00
O816   O     0.79275   0.07307   0.72698   0.00000  Uiso   1.00
O817   O     0.70724   0.42693   0.27302   0.00000  Uiso   1.00
O818   O     0.57307   0.20725   0.72698   0.00000  Uiso   1.00
O819   O     0.92692   0.29275   0.27302   0.00000  Uiso   1.00
O820   O     0.95724   0.32307   0.77302   0.00000  Uiso   1.00
O821   O     0.54275   0.17693   0.22698   0.00000  Uiso   1.00
O822   O     0.67692   0.45725   0.77302   0.00000  Uiso   1.00
O823   O     0.50000   0.25000   0.75000   0.00000  Uiso   1.00
O824   O     0.82307   0.04275   0.22698   0.00000  Uiso   1.00
O825   O     0.54275   0.17693   0.77302   0.00000  Uiso   1.00
O826   O     0.95724   0.32307   0.22698   0.00000  Uiso   1.00
O827   O     0.82307   0.04275   0.77302   0.00000  Uiso   1.00
O828   O     0.67692   0.45725   0.22698   0.00000  Uiso   1.00
O829   O     0.95724   0.17692   0.22698   0.00000  Uiso   1.00
O830   O     0.54275   0.32308   0.77302   0.00000  Uiso   1.00
O831   O     0.67692   0.04275   0.22698   0.00000  Uiso   1.00
O832   O     0.82307   0.45725   0.77302   0.00000  Uiso   1.00
O833   O     0.54275   0.32308   0.22698   0.00000  Uiso   1.00
O834   O     0.75000   0.46964   0.33755   0.00000  Uiso   1.00
O835   O     0.95724   0.17692   0.77302   0.00000  Uiso   1.00
O836   O     0.82307   0.45725   0.22698   0.00000  Uiso   1.00
O837   O     0.67692   0.04275   0.77302   0.00000  Uiso   1.00
O838   O     0.89243   0.22890   0.42686   0.00000  Uiso   1.00
O839   O     0.86095   0.25175   0.48422   0.00000  Uiso   1.00
O840   O     0.88193   0.29902   0.43229   0.00000  Uiso   1.00
O841   O     0.61744   0.20515   0.56497   0.00000  Uiso   1.00
O842   O     0.63885   0.24894   0.51597   0.00000  Uiso   1.00
O843   O     0.60694   0.27459   0.57692   0.00000  Uiso   1.00
O844   O     0.68197   0.12136   0.48476   0.00000  Uiso   1.00
O845   O     0.75000   0.03036   0.66245   0.00000  Uiso   1.00
O846   O     0.73031   0.12484   0.43549   0.00000  Uiso   1.00
O847   O     0.67554   0.08137   0.42355   0.00000  Uiso   1.00
O848   O     0.76951   0.37514   0.56440   0.00000  Uiso   1.00
O849   O     0.81833   0.37861   0.51569   0.00000  Uiso   1.00
O850   O     0.82425   0.41848   0.57705   0.00000  Uiso   1.00
O851   O     0.62439   0.22959   0.43560   0.00000  Uiso   1.00
O852   O     0.62066   0.18092   0.48459   0.00000  Uiso   1.00
O853   O     0.58087   0.17488   0.42326   0.00000  Uiso   1.00
O854   O     0.87969   0.31945   0.51505   0.00000  Uiso   1.00
O855   O     0.87566   0.27116   0.56445   0.00000  Uiso   1.00
O856   O     0.53036   0.25000   0.33755   0.00000  Uiso   1.00
O857   O     0.91958   0.32565   0.57628   0.00000  Uiso   1.00
O858   O     0.79482   0.38215   0.43520   0.00000  Uiso   1.00
O859   O     0.75076   0.36070   0.48382   0.00000  Uiso   1.00
O860   O     0.72567   0.39274   0.42269   0.00000  Uiso   1.00
O861   O     0.77170   0.10769   0.57336   0.00000  Uiso   1.00
O862   O     0.74949   0.13944   0.51588   0.00000  Uiso   1.00
O863   O     0.70190   0.11884   0.56755   0.00000  Uiso   1.00
O864   O     0.64261   0.47799   0.92687   0.00000  Uiso   1.00
O865   O     0.61097   0.00050   0.98428   0.00000  Uiso   1.00
O866   O     0.63145   0.04800   0.93237   0.00000  Uiso   1.00
O867   O     0.96963   0.25000   0.66245   0.00000  Uiso   1.00
O868   O     0.86784   0.45615   0.06494   0.00000  Uiso   1.00
O869   O     0.88883   0.00011   0.01590   0.00000  Uiso   1.00
O870   O     0.85673   0.02551   0.07687   0.00000  Uiso   1.00
O871   O     0.93170   0.37121   0.98476   0.00000  Uiso   1.00
O872   O     0.98005   0.37482   0.93552   0.00000  Uiso   1.00
O873   O     0.92538   0.33123   0.92354   0.00000  Uiso   1.00
O874   O     0.51962   0.12517   0.06439   0.00000  Uiso   1.00
O875   O     0.56847   0.12865   0.01573   0.00000  Uiso   1.00
O876   O     0.57432   0.16855   0.07707   0.00000  Uiso   1.00
O877   O     0.87451   0.48054   0.93555   0.00000  Uiso   1.00
O878   O     0.75000   0.03036   0.33755   0.00000  Uiso   1.00
O879   O     0.87121   0.43188   0.98459   0.00000  Uiso   1.00
O880   O     0.83143   0.42546   0.92330   0.00000  Uiso   1.00
O881   O     0.62910   0.06843   0.01507   0.00000  Uiso   1.00
O882   O     0.62552   0.02012   0.06450   0.00000  Uiso   1.00
O883   O     0.66896   0.07500   0.07627   0.00000  Uiso   1.00
O884   O     0.54503   0.13222   0.93520   0.00000  Uiso   1.00
O885   O     0.50097   0.11069   0.98378   0.00000  Uiso   1.00
O886   O     0.97587   0.14271   0.92265   0.00000  Uiso   1.00
O887   O     0.52145   0.35774   0.07336   0.00000  Uiso   1.00
O888   O     0.99911   0.38946   0.01592   0.00000  Uiso   1.00
S889   S     0.89104   0.25970   0.45580   0.00000  Uiso   1.00
S890   S     0.85892   0.49127   0.04423   0.00000  Uiso   1.00
S891   S     0.95411   0.34967   0.95618   0.00000  Uiso   1.00
S892   S     0.54585   0.15026   0.04407   0.00000  Uiso   1.00
S893   S     0.84959   0.45429   0.95608   0.00000  Uiso   1.00
S894   S     0.65059   0.04607   0.04374   0.00000  Uiso   1.00
S895   S     0.50975   0.14082   0.95560   0.00000  Uiso   1.00
S896   S     0.99087   0.35932   0.04428   0.00000  Uiso   1.00
S897   S     0.60884   0.24035   0.54427   0.00000  Uiso   1.00
S898   S     0.70432   0.09975   0.45617   0.00000  Uiso   1.00
S899   S     0.79575   0.40021   0.54406   0.00000  Uiso   1.00
S900   S     0.59924   0.20353   0.45608   0.00000  Uiso   1.00
S901   S     0.90097   0.29689   0.54372   0.00000  Uiso   1.00
S902   S     0.75957   0.39080   0.45562   0.00000  Uiso   1.00
S903   S     0.74114   0.10935   0.54425   0.00000  Uiso   1.00
S904   S     0.64095   0.00876   0.95584   0.00000  Uiso   1.00
Zn905  Zn    0.70659   0.00000   0.21735   0.00000  Uiso   1.00
Zn906  Zn    0.54340   0.25000   0.28265   0.00000  Uiso   1.00
Zn907  Zn    0.75000   0.45660   0.71735   0.00000  Uiso   1.00
Zn908  Zn    0.75000   0.04340   0.28265   0.00000  Uiso   1.00
Zn909  Zn    0.54340   0.25000   0.71735   0.00000  Uiso   1.00
Zn910  Zn    0.95659   0.25000   0.28265   0.00000  Uiso   1.00
Zn911  Zn    0.75000   0.04340   0.71735   0.00000  Uiso   1.00
Zn912  Zn    0.75000   0.45660   0.28265   0.00000  Uiso   1.00
Zn913  Zn    0.79340  -0.00000   0.78265   0.00000  Uiso   1.00
Zn914  Zn    0.50000   0.20659   0.21735   0.00000  Uiso   1.00
Zn915  Zn    0.50000   0.29340   0.78265   0.00000  Uiso   1.00
Zn916  Zn    0.79340   0.00000   0.21735   0.00000  Uiso   1.00
Zn917  Zn    0.70659  -0.00000   0.78265   0.00000  Uiso   1.00
Zn918  Zn    0.50000   0.29340   0.21735   0.00000  Uiso   1.00
Zn919  Zn    0.50000   0.20659   0.78265   0.00000  Uiso   1.00
Zn920  Zn    0.95659   0.25000   0.71735   0.00000  Uiso   1.00
C921   C     0.03155   0.73990   0.41864   0.00000  Uiso   1.00
C922   C     0.21839   0.50998   0.08134   0.00000  Uiso   1.00
C923   C     0.26086   0.96789   0.54067   0.00000  Uiso   1.00
C924   C     0.03194   0.73890   0.45934   0.00000  Uiso   1.00
C925   C     0.46805   0.76111   0.54065   0.00000  Uiso   1.00
C926   C     0.25635   0.96683   0.45930   0.00000  Uiso   1.00
C927   C     0.24404   0.53324   0.54071   0.00000  Uiso   1.00
C928   C     0.21684   0.50593   0.95930   0.00000  Uiso   1.00
C929   C     0.28312   0.99397   0.04069   0.00000  Uiso   1.00
C930   C     0.48930   0.78212   0.95936   0.00000  Uiso   1.00
C931   C     0.01090   0.71790   0.04066   0.00000  Uiso   1.00
C932   C     0.28201   0.98913   0.95934   0.00000  Uiso   1.00
C933   C     0.00692   0.71775   0.91863   0.00000  Uiso   1.00
C934   C     0.21797   0.51086   0.04065   0.00000  Uiso   1.00
C935   C     0.00640   0.71684   0.95929   0.00000  Uiso   1.00
C936   C     0.49396   0.78322   0.04071   0.00000  Uiso   1.00
C937   C     0.09809   0.84812   0.24935   0.00000  Uiso   1.00
C938   C     0.40191   0.65188   0.75067   0.00000  Uiso   1.00
C939   C     0.15196   0.59811   0.25002   0.00000  Uiso   1.00
C940   C     0.34800   0.90194   0.75000   0.00000  Uiso   1.00
C941   C     0.40226   0.65152   0.24993   0.00000  Uiso   1.00
C942   C     0.09775   0.84846   0.75006   0.00000  Uiso   1.00
C943   C     0.34797   0.90192   0.25001   0.00000  Uiso   1.00
C944   C     0.49334   0.78231   0.08138   0.00000  Uiso   1.00
C945   C     0.15203   0.59808   0.74999   0.00000  Uiso   1.00
C946   C     0.09803   0.65183   0.74999   0.00000  Uiso   1.00
C947   C     0.40197   0.84817   0.25001   0.00000  Uiso   1.00
C948   C     0.15226   0.90153   0.74993   0.00000  Uiso   1.00
C949   C     0.34775   0.59846   0.25006   0.00000  Uiso   1.00
C950   C     0.40196   0.84811   0.75002   0.00000  Uiso   1.00
C951   C     0.09800   0.65194   0.24999   0.00000  Uiso   1.00
C952   C     0.34809   0.59812   0.74936   0.00000  Uiso   1.00
C953   C     0.15191   0.90188   0.25066   0.00000  Uiso   1.00
C954   C     0.49979   0.74910   0.47968   0.00000  Uiso   1.00
C955   C     0.21773   0.50645   0.91863   0.00000  Uiso   1.00
C956   C     0.00018   0.75083   0.52031   0.00000  Uiso   1.00
C957   C     0.24937   0.99985   0.47969   0.00000  Uiso   1.00
C958   C     0.25098   0.50021   0.52032   0.00000  Uiso   1.00
C959   C     0.24979   0.99908   0.97968   0.00000  Uiso   1.00
C960   C     0.25017   0.50083   0.02031   0.00000  Uiso   1.00
C961   C     0.49935   0.74984   0.97969   0.00000  Uiso   1.00
C962   C     0.00096   0.75021   0.02032   0.00000  Uiso   1.00
C963   C     0.09703   0.96324   0.27555   0.00000  Uiso   1.00
C964   C     0.40278   0.53668   0.72448   0.00000  Uiso   1.00
C965   C     0.11522   0.68912   0.17318   0.00000  Uiso   1.00
C966   C     0.28224   0.99350   0.08136   0.00000  Uiso   1.00
C967   C     0.38237   0.81454   0.83007   0.00000  Uiso   1.00
C968   C     0.32661   0.61354   0.16337   0.00000  Uiso   1.00
C969   C     0.17359   0.88632   0.83648   0.00000  Uiso   1.00
C970   C     0.42318   0.85473   0.33747   0.00000  Uiso   1.00
C971   C     0.07663   0.64508   0.66263   0.00000  Uiso   1.00
C972   C     0.14371   0.57201   0.66585   0.00000  Uiso   1.00
C973   C     0.35633   0.92798   0.33414   0.00000  Uiso   1.00
C974   C     0.06525   0.88318   0.83074   0.00000  Uiso   1.00
C975   C     0.43481   0.61677   0.16928   0.00000  Uiso   1.00
C976   C     0.31115   0.88511   0.82706   0.00000  Uiso   1.00
C977   C     0.49024   0.78172   0.91867   0.00000  Uiso   1.00
C978   C     0.18519   0.61754   0.16970   0.00000  Uiso   1.00
C979   C     0.45296   0.59835   0.80409   0.00000  Uiso   1.00
C980   C     0.04692   0.90176   0.19613   0.00000  Uiso   1.00
C981   C     0.34703   0.71323   0.77557   0.00000  Uiso   1.00
C982   C     0.15278   0.78668   0.22448   0.00000  Uiso   1.00
C983   C     0.36524   0.93908   0.67316   0.00000  Uiso   1.00
C984   C     0.13234   0.56454   0.33006   0.00000  Uiso   1.00
C985   C     0.07659   0.86356   0.66339   0.00000  Uiso   1.00
C986   C     0.42360   0.63631   0.33647   0.00000  Uiso   1.00
C987   C     0.17804   0.60672   0.83403   0.00000  Uiso   1.00
C988   C     0.00977   0.71828   0.08135   0.00000  Uiso   1.00
C989   C     0.32197   0.89324   0.16600   0.00000  Uiso   1.00
C990   C     0.39567   0.82702   0.16241   0.00000  Uiso   1.00
C991   C     0.10449   0.67316   0.83750   0.00000  Uiso   1.00
C992   C     0.31525   0.63318   0.33074   0.00000  Uiso   1.00
C993   C     0.18479   0.86679   0.66927   0.00000  Uiso   1.00
C994   C     0.06106   0.63504   0.32696   0.00000  Uiso   1.00
C995   C     0.43523   0.86756   0.66975   0.00000  Uiso   1.00
C996   C     0.20296   0.84834   0.30408   0.00000  Uiso   1.00
C997   C     0.29691   0.65177   0.69615   0.00000  Uiso   1.00
C998   C     0.49982   0.74889   0.39844   0.00000  Uiso   1.00
C999   C     0.00016   0.75115   0.60156   0.00000  Uiso   1.00
C1000  C     0.24909   0.99987   0.39846   0.00000  Uiso   1.00
C1001  C     0.46846   0.76022   0.58134   0.00000  Uiso   1.00
C1002  C     0.25100   0.50015   0.60155   0.00000  Uiso   1.00
C1003  C     0.24982   0.99887   0.89844   0.00000  Uiso   1.00
C1004  C     0.25016   0.50116   0.10156   0.00000  Uiso   1.00
C1005  C     0.49909   0.74987   0.89846   0.00000  Uiso   1.00
C1006  C     0.00098   0.75015   0.10155   0.00000  Uiso   1.00
C1007  C     0.43417   0.76379   0.47977   0.00000  Uiso   1.00
C1008  C     0.06578   0.73611   0.52023   0.00000  Uiso   1.00
C1009  C     0.22968   0.56433   0.47992   0.00000  Uiso   1.00
C1010  C     0.27065   0.93572   0.52012   0.00000  Uiso   1.00
C1011  C     0.06397   0.72901   0.47990   0.00000  Uiso   1.00
C1012  C     0.25686   0.96773   0.41863   0.00000  Uiso   1.00
C1013  C     0.43604   0.77103   0.52007   0.00000  Uiso   1.00
C1014  C     0.26372   0.93396   0.47975   0.00000  Uiso   1.00
C1015  C     0.23680   0.56613   0.52024   0.00000  Uiso   1.00
C1016  C     0.18406   0.51323   0.97978   0.00000  Uiso   1.00
C1017  C     0.31589   0.98664   0.02022   0.00000  Uiso   1.00
C1018  C     0.47954   0.81429   0.97993   0.00000  Uiso   1.00
C1019  C     0.02073   0.68575   0.02012   0.00000  Uiso   1.00
C1020  C     0.31413   0.97950   0.97990   0.00000  Uiso   1.00
C1021  C     0.18587   0.52051   0.02007   0.00000  Uiso   1.00
C1022  C     0.01383   0.68398   0.97974   0.00000  Uiso   1.00
C1023  C     0.24342   0.53233   0.58137   0.00000  Uiso   1.00
C1024  C     0.48665   0.81610   0.02025   0.00000  Uiso   1.00
C1025  C     0.24994   0.99999   0.35600   0.00000  Uiso   1.00
C1026  C     0.25006   0.50001   0.64401   0.00000  Uiso   1.00
C1027  C     0.49998   0.74989   0.35597   0.00000  Uiso   1.00
C1028  C     0.00002   0.75013   0.64403   0.00000  Uiso   1.00
C1029  C     0.49994   0.74999   0.85600   0.00000  Uiso   1.00
C1030  C     0.00005   0.75001   0.14401   0.00000  Uiso   1.00
C1031  C     0.24998   0.99988   0.85597   0.00000  Uiso   1.00
C1032  C     0.25002   0.50013   0.14403   0.00000  Uiso   1.00
C1033  C     0.18002   0.57002   0.25001   0.00000  Uiso   1.00
C1034  C     0.46779   0.75672   0.41862   0.00000  Uiso   1.00
C1035  C     0.31997   0.92999   0.75000   0.00000  Uiso   1.00
C1036  C     0.42998   0.67995   0.24988   0.00000  Uiso   1.00
C1037  C     0.07002   0.82005   0.75012   0.00000  Uiso   1.00
C1038  C     0.31997   0.92999   0.25001   0.00000  Uiso   1.00
C1039  C     0.18003   0.57001   0.74999   0.00000  Uiso   1.00
C1040  C     0.06997   0.82010   0.24993   0.00000  Uiso   1.00
C1041  C     0.43003   0.67990   0.75007   0.00000  Uiso   1.00
C1042  C     0.17998   0.92995   0.74988   0.00000  Uiso   1.00
C1043  C     0.32002   0.57005   0.25012   0.00000  Uiso   1.00
C1044  C     0.43002   0.82002   0.75001   0.00000  Uiso   1.00
C1045  C     0.03218   0.74324   0.58136   0.00000  Uiso   1.00
C1046  C     0.06997   0.67999   0.24999   0.00000  Uiso   1.00
C1047  C     0.31997   0.57010   0.74993   0.00000  Uiso   1.00
C1048  C     0.18003   0.92990   0.25007   0.00000  Uiso   1.00
C1049  C     0.06999   0.67996   0.75000   0.00000  Uiso   1.00
C1050  C     0.43001   0.82004   0.25000   0.00000  Uiso   1.00
C1051  C     0.11533   0.91188   0.24402   0.00000  Uiso   1.00
C1052  C     0.38466   0.58812   0.75601   0.00000  Uiso   1.00
C1053  C     0.11289   0.63988   0.21439   0.00000  Uiso   1.00
C1054  C     0.38738   0.86036   0.78557   0.00000  Uiso   1.00
C1055  C     0.36482   0.60809   0.21489   0.00000  Uiso   1.00
C1056  C     0.24030   0.53173   0.41867   0.00000  Uiso   1.00
C1057  C     0.13523   0.89186   0.78511   0.00000  Uiso   1.00
C1058  C     0.38487   0.85796   0.28525   0.00000  Uiso   1.00
C1059  C     0.11508   0.64199   0.71474   0.00000  Uiso   1.00
C1060  C     0.14161   0.61462   0.71462   0.00000  Uiso   1.00
C1061  C     0.35837   0.88536   0.28538   0.00000  Uiso   1.00
C1062  C     0.10690   0.86633   0.78497   0.00000  Uiso   1.00
C1063  C     0.39314   0.63364   0.21502   0.00000  Uiso   1.00
C1064  C     0.36015   0.88713   0.78562   0.00000  Uiso   1.00
C1065  C     0.13966   0.61263   0.21445   0.00000  Uiso   1.00
C1066  C     0.41141   0.61520   0.75829   0.00000  Uiso   1.00
C1067  C     0.25973   0.96827   0.58135   0.00000  Uiso   1.00
C1068  C     0.08857   0.88480   0.24177   0.00000  Uiso   1.00
C1069  C     0.36533   0.66188   0.74403   0.00000  Uiso   1.00
C1070  C     0.13466   0.83812   0.25600   0.00000  Uiso   1.00
C1071  C     0.36288   0.88987   0.71440   0.00000  Uiso   1.00
C1072  C     0.13738   0.61036   0.28557   0.00000  Uiso   1.00
C1073  C     0.11481   0.85810   0.71489   0.00000  Uiso   1.00
C1074  C     0.38523   0.64186   0.28511   0.00000  Uiso   1.00
C1075  C     0.13545   0.60844   0.78537   0.00000  Uiso   1.00
C1076  C     0.36457   0.89158   0.21464   0.00000  Uiso   1.00
C1077  C     0.39213   0.86525   0.21478   0.00000  Uiso   1.00
C1078  C     0.28161   0.99011   0.91864   0.00000  Uiso   1.00
C1079  C     0.10792   0.63480   0.78523   0.00000  Uiso   1.00
C1080  C     0.35690   0.61633   0.28497   0.00000  Uiso   1.00
C1081  C     0.14313   0.88365   0.71502   0.00000  Uiso   1.00
C1082  C     0.11013   0.63712   0.28561   0.00000  Uiso   1.00
C1083  C     0.38966   0.86263   0.71446   0.00000  Uiso   1.00
C1084  C     0.16142   0.86520   0.25829   0.00000  Uiso   1.00
C1085  C     0.33857   0.63480   0.74178   0.00000  Uiso   1.00
C1086  C     0.46689   0.75621   0.45929   0.00000  Uiso   1.00
C1087  C     0.03307   0.74370   0.54070   0.00000  Uiso   1.00
C1088  C     0.23938   0.53214   0.45936   0.00000  Uiso   1.00
H1089  H     0.05617   0.73492   0.40220   0.00000  Uiso   1.00
H1090  H     0.19374   0.51490   0.09778   0.00000  Uiso   1.00
H1091  H     0.20146   0.59048   0.82298   0.00000  Uiso   1.00
H1092  H     0.17837   0.60465   0.86619   0.00000  Uiso   1.00
H1093  H     0.29852   0.90939   0.17711   0.00000  Uiso   1.00
H1094  H     0.31804   0.86385   0.17356   0.00000  Uiso   1.00
H1095  H     0.32159   0.89537   0.13384   0.00000  Uiso   1.00
H1096  H     0.39156   0.80371   0.18276   0.00000  Uiso   1.00
H1097  H     0.41480   0.81758   0.13947   0.00000  Uiso   1.00
H1098  H     0.36958   0.83416   0.14796   0.00000  Uiso   1.00
H1099  H     0.08545   0.68263   0.86050   0.00000  Uiso   1.00
H1100  H     0.10851   0.69644   0.81708   0.00000  Uiso   1.00
H1101  H     0.01520   0.69399   0.90214   0.00000  Uiso   1.00
H1102  H     0.13064   0.66607   0.85185   0.00000  Uiso   1.00
H1103  H     0.29914   0.62268   0.35565   0.00000  Uiso   1.00
H1104  H     0.29568   0.63966   0.30693   0.00000  Uiso   1.00
H1105  H     0.32916   0.65850   0.34053   0.00000  Uiso   1.00
H1106  H     0.20433   0.86027   0.69310   0.00000  Uiso   1.00
H1107  H     0.20094   0.87730   0.64440   0.00000  Uiso   1.00
H1108  H     0.17089   0.84148   0.65943   0.00000  Uiso   1.00
H1109  H     0.05597   0.60845   0.31203   0.00000  Uiso   1.00
H1110  H     0.04023   0.65533   0.31768   0.00000  Uiso   1.00
H1111  H     0.05717   0.63036   0.35853   0.00000  Uiso   1.00
H1112  H     0.48513   0.80610   0.09785   0.00000  Uiso   1.00
H1113  H     0.44837   0.85298   0.64518   0.00000  Uiso   1.00
H1114  H     0.45526   0.86788   0.69406   0.00000  Uiso   1.00
H1115  H     0.42937   0.89591   0.66001   0.00000  Uiso   1.00
H1116  H     0.19345   0.87150   0.32258   0.00000  Uiso   1.00
H1117  H     0.23262   0.84487   0.30931   0.00000  Uiso   1.00
H1118  H     0.18934   0.82261   0.31316   0.00000  Uiso   1.00
H1119  H     0.26723   0.65521   0.69101   0.00000  Uiso   1.00
H1120  H     0.30641   0.62868   0.67755   0.00000  Uiso   1.00
H1121  H     0.31046   0.67755   0.68712   0.00000  Uiso   1.00
H1122  H     0.19397   0.51459   0.90217   0.00000  Uiso   1.00
H1123  H     0.30601   0.98537   0.09781   0.00000  Uiso   1.00
H1124  H     0.48530   0.80642   0.90223   0.00000  Uiso   1.00
H1125  H     0.01451   0.69355   0.09779   0.00000  Uiso   1.00
H1126  H     0.35897   0.79437   0.41797   0.00000  Uiso   1.00
H1127  H     0.12983   0.77247   0.59206   0.00000  Uiso   1.00
H1128  H     0.16405   0.60257   0.41037   0.00000  Uiso   1.00
H1129  H     0.44385   0.76534   0.59778   0.00000  Uiso   1.00
H1130  H     0.33519   0.89725   0.59068   0.00000  Uiso   1.00
H1131  H     0.10199   0.66367   0.40974   0.00000  Uiso   1.00
H1132  H     0.39855   0.83758   0.58925   0.00000  Uiso   1.00
H1133  H     0.22851   0.87029   0.40684   0.00000  Uiso   1.00
H1134  H     0.20660   0.64195   0.58169   0.00000  Uiso   1.00
H1135  H     0.10823   0.54333   0.91856   0.00000  Uiso   1.00
H1136  H     0.37969   0.52366   0.09193   0.00000  Uiso   1.00
H1137  H     0.41396   0.85241   0.91026   0.00000  Uiso   1.00
H1138  H     0.08449   0.64736   0.09145   0.00000  Uiso   1.00
H1139  H     0.35262   0.91449   0.90969   0.00000  Uiso   1.00
H1140  H     0.26509   0.94395   0.40215   0.00000  Uiso   1.00
H1141  H     0.14784   0.58664   0.08938   0.00000  Uiso   1.00
H1142  H     0.47875   0.62026   0.90680   0.00000  Uiso   1.00
H1143  H     0.45639   0.89158   0.08211   0.00000  Uiso   1.00
H1144  H     0.08936   0.99237   0.27150   0.00000  Uiso   1.00
H1145  H     0.12094   0.96243   0.29547   0.00000  Uiso   1.00
H1146  H     0.07335   0.94910   0.28904   0.00000  Uiso   1.00
H1147  H     0.37881   0.53754   0.70465   0.00000  Uiso   1.00
H1148  H     0.41035   0.50753   0.72855   0.00000  Uiso   1.00
H1149  H     0.42647   0.55073   0.71090   0.00000  Uiso   1.00
H1150  H     0.14214   0.69373   0.18744   0.00000  Uiso   1.00
H1151  H     0.23525   0.55614   0.59784   0.00000  Uiso   1.00
H1152  H     0.09547   0.71011   0.18332   0.00000  Uiso   1.00
H1153  H     0.11916   0.69336   0.14155   0.00000  Uiso   1.00
H1154  H     0.39606   0.80195   0.85552   0.00000  Uiso   1.00
H1155  H     0.38335   0.79411   0.80611   0.00000  Uiso   1.00
H1156  H     0.35364   0.82013   0.83837   0.00000  Uiso   1.00
H1157  H     0.30218   0.61518   0.18253   0.00000  Uiso   1.00
H1158  H     0.31803   0.60045   0.13578   0.00000  Uiso   1.00
H1159  H     0.33658   0.64148   0.15628   0.00000  Uiso   1.00
H1160  H     0.18223   0.89932   0.86410   0.00000  Uiso   1.00
H1161  H     0.19798   0.88479   0.81725   0.00000  Uiso   1.00
H1162  H     0.44410   0.76504   0.40215   0.00000  Uiso   1.00
H1163  H     0.16369   0.85833   0.84348   0.00000  Uiso   1.00
H1164  H     0.44644   0.85853   0.31706   0.00000  Uiso   1.00
H1165  H     0.43254   0.83584   0.36069   0.00000  Uiso   1.00
H1166  H     0.41612   0.88111   0.35152   0.00000  Uiso   1.00
H1167  H     0.06726   0.66386   0.63932   0.00000  Uiso   1.00
H1168  H     0.05340   0.64142   0.68311   0.00000  Uiso   1.00
H1169  H     0.08364   0.61862   0.64874   0.00000  Uiso   1.00
H1170  H     0.11458   0.56752   0.67380   0.00000  Uiso   1.00
H1171  H     0.16031   0.54864   0.67646   0.00000  Uiso   1.00
H1172  H     0.14543   0.57196   0.63366   0.00000  Uiso   1.00
H1173  H     0.05587   0.73491   0.59782   0.00000  Uiso   1.00
H1174  H     0.33985   0.95139   0.32339   0.00000  Uiso   1.00
H1175  H     0.38552   0.93235   0.32631   0.00000  Uiso   1.00
H1176  H     0.35448   0.92811   0.36632   0.00000  Uiso   1.00
H1177  H     0.04914   0.87268   0.85564   0.00000  Uiso   1.00
H1178  H     0.04568   0.88966   0.80693   0.00000  Uiso   1.00
H1179  H     0.07915   0.90851   0.84053   0.00000  Uiso   1.00
H1180  H     0.45433   0.61026   0.19312   0.00000  Uiso   1.00
H1181  H     0.45096   0.62728   0.14441   0.00000  Uiso   1.00
H1182  H     0.42090   0.59146   0.15944   0.00000  Uiso   1.00
H1183  H     0.30608   0.85846   0.81227   0.00000  Uiso   1.00
H1184  H     0.23541   0.55644   0.40223   0.00000  Uiso   1.00
H1185  H     0.29029   0.90534   0.81770   0.00000  Uiso   1.00
H1186  H     0.30729   0.88057   0.85866   0.00000  Uiso   1.00
H1187  H     0.19815   0.60312   0.14490   0.00000  Uiso   1.00
H1188  H     0.20534   0.61759   0.19389   0.00000  Uiso   1.00
H1189  H     0.17936   0.64598   0.16025   0.00000  Uiso   1.00
H1190  H     0.44345   0.62150   0.82258   0.00000  Uiso   1.00
H1191  H     0.48262   0.59488   0.80931   0.00000  Uiso   1.00
H1192  H     0.43935   0.57262   0.81316   0.00000  Uiso   1.00
H1193  H     0.01723   0.90519   0.19099   0.00000  Uiso   1.00
H1194  H     0.05642   0.87867   0.17754   0.00000  Uiso   1.00
H1195  H     0.26444   0.94353   0.59779   0.00000  Uiso   1.00
H1196  H     0.06046   0.92754   0.18710   0.00000  Uiso   1.00
H1197  H     0.33935   0.74236   0.77152   0.00000  Uiso   1.00
H1198  H     0.37094   0.71243   0.79548   0.00000  Uiso   1.00
H1199  H     0.32335   0.69909   0.78905   0.00000  Uiso   1.00
H1200  H     0.12882   0.78754   0.20465   0.00000  Uiso   1.00
H1201  H     0.16036   0.75753   0.22855   0.00000  Uiso   1.00
H1202  H     0.17648   0.80073   0.21090   0.00000  Uiso   1.00
H1203  H     0.39222   0.94364   0.68731   0.00000  Uiso   1.00
H1204  H     0.34556   0.96010   0.68339   0.00000  Uiso   1.00
H1205  H     0.36908   0.94334   0.64151   0.00000  Uiso   1.00
H1206  H     0.30627   0.98533   0.90221   0.00000  Uiso   1.00
H1207  H     0.14594   0.55200   0.35560   0.00000  Uiso   1.00
H1208  H     0.13342   0.54407   0.30614   0.00000  Uiso   1.00
H1209  H     0.10358   0.57013   0.33824   0.00000  Uiso   1.00
H1210  H     0.05216   0.86519   0.68255   0.00000  Uiso   1.00
H1211  H     0.06799   0.85049   0.63579   0.00000  Uiso   1.00
H1212  H     0.08656   0.89151   0.65630   0.00000  Uiso   1.00
H1213  H     0.43223   0.64930   0.36409   0.00000  Uiso   1.00
H1214  H     0.44798   0.63478   0.31724   0.00000  Uiso   1.00
H1215  H     0.41369   0.60832   0.34348   0.00000  Uiso   1.00
H1216  H     0.18206   0.63608   0.82640   0.00000  Uiso   1.00
O1217  O     0.25000   0.50000   0.25000   0.00000  Uiso   1.00
O1218  O     0.25000   0.96964   0.66245   0.00000  Uiso   1.00
O1219  O     0.45162   0.86869   0.06761   0.00000  Uiso   1.00
O1220  O     0.10561   0.94818   0.23893   0.00000  Uiso   1.00
O1221  O     0.39439   0.55182   0.76112   0.00000  Uiso   1.00
O1222  O     0.10094   0.65362   0.17905   0.00000  Uiso   1.00
O1223  O     0.40069   0.84725   0.82059   0.00000  Uiso   1.00
O1224  O     0.35439   0.59201   0.18024   0.00000  Uiso   1.00
O1225  O     0.14573   0.90785   0.81978   0.00000  Uiso   1.00
O1226  O     0.39228   0.83930   0.31943   0.00000  Uiso   1.00
O1227  O     0.10758   0.66057   0.68053   0.00000  Uiso   1.00
O1228  O     0.15806   0.60546   0.67964   0.00000  Uiso   1.00
O1229  O     0.46963   0.75000   0.33755   0.00000  Uiso   1.00
O1230  O     0.34194   0.89455   0.32036   0.00000  Uiso   1.00
O1231  O     0.09069   0.85604   0.81965   0.00000  Uiso   1.00
O1232  O     0.40936   0.64391   0.18034   0.00000  Uiso   1.00
O1233  O     0.34658   0.89925   0.82099   0.00000  Uiso   1.00
O1234  O     0.15264   0.59916   0.17944   0.00000  Uiso   1.00
O1235  O     0.44752   0.60537   0.76415   0.00000  Uiso   1.00
O1236  O     0.05245   0.89463   0.23603   0.00000  Uiso   1.00
O1237  O     0.35561   0.69818   0.73895   0.00000  Uiso   1.00
O1238  O     0.14439   0.80182   0.26112   0.00000  Uiso   1.00
O1239  O     0.35092   0.90361   0.67905   0.00000  Uiso   1.00
O1240  O     0.03036   0.75000   0.66245   0.00000  Uiso   1.00
O1241  O     0.15068   0.59724   0.32059   0.00000  Uiso   1.00
O1242  O     0.10437   0.84203   0.68023   0.00000  Uiso   1.00
O1243  O     0.39573   0.65785   0.31978   0.00000  Uiso   1.00
O1244  O     0.14474   0.59209   0.82036   0.00000  Uiso   1.00
O1245  O     0.35525   0.90791   0.17964   0.00000  Uiso   1.00
O1246  O     0.41088   0.85800   0.18064   0.00000  Uiso   1.00
O1247  O     0.08924   0.64213   0.81940   0.00000  Uiso   1.00
O1248  O     0.34069   0.60604   0.31965   0.00000  Uiso   1.00
O1249  O     0.15935   0.89392   0.68034   0.00000  Uiso   1.00
O1250  O     0.09651   0.64918   0.32098   0.00000  Uiso   1.00
O1251  O    -0.00000   0.71963   0.83755   0.00000  Uiso   1.00
O1252  O     0.40267   0.84918   0.67945   0.00000  Uiso   1.00
O1253  O     0.19752   0.85537   0.26415   0.00000  Uiso   1.00
O1254  O     0.30245   0.64463   0.73604   0.00000  Uiso   1.00
O1255  O    -0.00000   0.78036   0.16245   0.00000  Uiso   1.00
O1256  O     0.28036   0.50000   0.83755   0.00000  Uiso   1.00
O1257  O     0.21963   0.50000   0.16245   0.00000  Uiso   1.00
O1258  O    -0.00000   0.78036   0.83755   0.00000  Uiso   1.00
O1259  O     0.00000   0.71964   0.16245   0.00000  Uiso   1.00
O1260  O     0.21963   0.50000   0.83755   0.00000  Uiso   1.00
O1261  O     0.25000   0.50000   0.75000   0.00000  Uiso   1.00
O1262  O     0.28036   0.50000   0.16245   0.00000  Uiso   1.00
O1263  O     0.20724   0.57307   0.27302   0.00000  Uiso   1.00
O1264  O     0.29275   0.92693   0.72698   0.00000  Uiso   1.00
O1265  O     0.42692   0.70724   0.27302   0.00000  Uiso   1.00
O1266  O     0.07307   0.79276   0.72698   0.00000  Uiso   1.00
O1267  O     0.29275   0.92693   0.27302   0.00000  Uiso   1.00
O1268  O     0.20724   0.57307   0.72698   0.00000  Uiso   1.00
O1269  O     0.07307   0.79276   0.27302   0.00000  Uiso   1.00
O1270  O     0.42692   0.70724   0.72698   0.00000  Uiso   1.00
O1271  O     0.20724   0.92693   0.72698   0.00000  Uiso   1.00
O1272  O    -0.00000   0.75000   0.25000   0.00000  Uiso   1.00
O1273  O     0.29275   0.57307   0.27302   0.00000  Uiso   1.00
O1274  O     0.42692   0.79275   0.72698   0.00000  Uiso   1.00
O1275  O     0.07307   0.70725   0.27302   0.00000  Uiso   1.00
O1276  O     0.29275   0.57307   0.72698   0.00000  Uiso   1.00
O1277  O     0.20724   0.92693   0.27302   0.00000  Uiso   1.00
O1278  O     0.07307   0.70725   0.72698   0.00000  Uiso   1.00
O1279  O     0.42692   0.79275   0.27302   0.00000  Uiso   1.00
O1280  O     0.45724   0.82307   0.77302   0.00000  Uiso   1.00
O1281  O     0.04275   0.67693   0.22698   0.00000  Uiso   1.00
O1282  O     0.17692   0.95725   0.77302   0.00000  Uiso   1.00
O1283  O    -0.00000   0.75000   0.75000   0.00000  Uiso   1.00
O1284  O     0.32307   0.54275   0.22698   0.00000  Uiso   1.00
O1285  O     0.04275   0.67693   0.77302   0.00000  Uiso   1.00
O1286  O     0.45724   0.82307   0.22698   0.00000  Uiso   1.00
O1287  O     0.32307   0.54275   0.77302   0.00000  Uiso   1.00
O1288  O     0.17692   0.95725   0.22698   0.00000  Uiso   1.00
O1289  O     0.45724   0.67692   0.22698   0.00000  Uiso   1.00
O1290  O     0.04275   0.82308   0.77302   0.00000  Uiso   1.00
O1291  O     0.17692   0.54275   0.22698   0.00000  Uiso   1.00
O1292  O     0.32307   0.95725   0.77302   0.00000  Uiso   1.00
O1293  O     0.04275   0.82308   0.22698   0.00000  Uiso   1.00
O1294  O     0.25000   0.96964   0.33755   0.00000  Uiso   1.00
O1295  O     0.45724   0.67692   0.77302   0.00000  Uiso   1.00
O1296  O     0.32307   0.95725   0.22698   0.00000  Uiso   1.00
O1297  O     0.17692   0.54275   0.77302   0.00000  Uiso   1.00
O1298  O     0.39243   0.72890   0.42686   0.00000  Uiso   1.00
O1299  O     0.36095   0.75175   0.48422   0.00000  Uiso   1.00
O1300  O     0.38193   0.79902   0.43229   0.00000  Uiso   1.00
O1301  O     0.11744   0.70515   0.56497   0.00000  Uiso   1.00
O1302  O     0.13885   0.74894   0.51597   0.00000  Uiso   1.00
O1303  O     0.10694   0.77459   0.57692   0.00000  Uiso   1.00
O1304  O     0.18197   0.62136   0.48476   0.00000  Uiso   1.00
O1305  O     0.25000   0.53036   0.66245   0.00000  Uiso   1.00
O1306  O     0.23031   0.62484   0.43549   0.00000  Uiso   1.00
O1307  O     0.17554   0.58137   0.42355   0.00000  Uiso   1.00
O1308  O     0.26951   0.87514   0.56440   0.00000  Uiso   1.00
O1309  O     0.31833   0.87861   0.51569   0.00000  Uiso   1.00
O1310  O     0.32425   0.91848   0.57705   0.00000  Uiso   1.00
O1311  O     0.12439   0.72959   0.43560   0.00000  Uiso   1.00
O1312  O     0.12066   0.68092   0.48459   0.00000  Uiso   1.00
O1313  O     0.08087   0.67488   0.42326   0.00000  Uiso   1.00
O1314  O     0.37969   0.81945   0.51505   0.00000  Uiso   1.00
O1315  O     0.37566   0.77116   0.56445   0.00000  Uiso   1.00
O1316  O     0.03036   0.75000   0.33755   0.00000  Uiso   1.00
O1317  O     0.41958   0.82565   0.57628   0.00000  Uiso   1.00
O1318  O     0.29482   0.88215   0.43520   0.00000  Uiso   1.00
O1319  O     0.25076   0.86070   0.48382   0.00000  Uiso   1.00
O1320  O     0.22567   0.89274   0.42269   0.00000  Uiso   1.00
O1321  O     0.27170   0.60769   0.57336   0.00000  Uiso   1.00
O1322  O     0.24949   0.63944   0.51588   0.00000  Uiso   1.00
O1323  O     0.20190   0.61884   0.56755   0.00000  Uiso   1.00
O1324  O     0.14261   0.97799   0.92687   0.00000  Uiso   1.00
O1325  O     0.11097   0.50050   0.98428   0.00000  Uiso   1.00
O1326  O     0.13145   0.54800   0.93237   0.00000  Uiso   1.00
O1327  O     0.46963   0.75000   0.66245   0.00000  Uiso   1.00
O1328  O     0.36784   0.95615   0.06494   0.00000  Uiso   1.00
O1329  O     0.38883   0.50011   0.01590   0.00000  Uiso   1.00
O1330  O     0.35673   0.52551   0.07687   0.00000  Uiso   1.00
O1331  O     0.43170   0.87121   0.98476   0.00000  Uiso   1.00
O1332  O     0.48005   0.87482   0.93552   0.00000  Uiso   1.00
O1333  O     0.42538   0.83123   0.92354   0.00000  Uiso   1.00
O1334  O     0.01962   0.62517   0.06439   0.00000  Uiso   1.00
O1335  O     0.06847   0.62865   0.01573   0.00000  Uiso   1.00
O1336  O     0.07432   0.66855   0.07707   0.00000  Uiso   1.00
O1337  O     0.37451   0.98054   0.93555   0.00000  Uiso   1.00
O1338  O     0.25000   0.53036   0.33755   0.00000  Uiso   1.00
O1339  O     0.37121   0.93188   0.98459   0.00000  Uiso   1.00
O1340  O     0.33143   0.92546   0.92330   0.00000  Uiso   1.00
O1341  O     0.12910   0.56843   0.01507   0.00000  Uiso   1.00
O1342  O     0.12552   0.52012   0.06450   0.00000  Uiso   1.00
O1343  O     0.16896   0.57500   0.07627   0.00000  Uiso   1.00
O1344  O     0.04503   0.63222   0.93520   0.00000  Uiso   1.00
O1345  O     0.00097   0.61069   0.98378   0.00000  Uiso   1.00
O1346  O     0.47587   0.64271   0.92265   0.00000  Uiso   1.00
O1347  O     0.02145   0.85774   0.07336   0.00000  Uiso   1.00
O1348  O     0.49911   0.88946   0.01592   0.00000  Uiso   1.00
S1349  S     0.39104   0.75970   0.45580   0.00000  Uiso   1.00
S1350  S     0.35892   0.99127   0.04423   0.00000  Uiso   1.00
S1351  S     0.45411   0.84967   0.95618   0.00000  Uiso   1.00
S1352  S     0.04585   0.65026   0.04407   0.00000  Uiso   1.00
S1353  S     0.34959   0.95429   0.95608   0.00000  Uiso   1.00
S1354  S     0.15059   0.54607   0.04374   0.00000  Uiso   1.00
S1355  S     0.00975   0.64082   0.95560   0.00000  Uiso   1.00
S1356  S     0.49087   0.85932   0.04428   0.00000  Uiso   1.00
S1357  S     0.10884   0.74035   0.54427   0.00000  Uiso   1.00
S1358  S     0.20432   0.59975   0.45617   0.00000  Uiso   1.00
S1359  S     0.29575   0.90021   0.54406   0.00000  Uiso   1.00
S1360  S     0.09924   0.70353   0.45608   0.00000  Uiso   1.00
S1361  S     0.40097   0.79689   0.54372   0.00000  Uiso   1.00
S1362  S     0.25957   0.89080   0.45562   0.00000  Uiso   1.00
S1363  S     0.24114   0.60935   0.54425   0.00000  Uiso   1.00
S1364  S     0.14095   0.50876   0.95584   0.00000  Uiso   1.00
Zn1365 Zn    0.20659   0.50000   0.21735   0.00000  Uiso   1.00
Zn1366 Zn    0.04340   0.75000   0.28265   0.00000  Uiso   1.00
Zn1367 Zn    0.25000   0.95660   0.71735   0.00000  Uiso   1.00
Zn1368 Zn    0.25000   0.54340   0.28265   0.00000  Uiso   1.00
Zn1369 Zn    0.04340   0.75000   0.71735   0.00000  Uiso   1.00
Zn1370 Zn    0.45659   0.75000   0.28265   0.00000  Uiso   1.00
Zn1371 Zn    0.25000   0.54340   0.71735   0.00000  Uiso   1.00
Zn1372 Zn    0.25000   0.95660   0.28265   0.00000  Uiso   1.00
Zn1373 Zn    0.29340   0.50000   0.78265   0.00000  Uiso   1.00
Zn1374 Zn   -0.00000   0.70659   0.21735   0.00000  Uiso   1.00
Zn1375 Zn   -0.00000   0.79340   0.78265   0.00000  Uiso   1.00
Zn1376 Zn    0.29340   0.50000   0.21735   0.00000  Uiso   1.00
Zn1377 Zn    0.20659   0.50000   0.78265   0.00000  Uiso   1.00
Zn1378 Zn   -0.00000   0.79340   0.21735   0.00000  Uiso   1.00
Zn1379 Zn   -0.00000   0.70659   0.78265   0.00000  Uiso   1.00
Zn1380 Zn    0.45659   0.75000   0.71735   0.00000  Uiso   1.00
C1381  C     0.53155   0.73990   0.41864   0.00000  Uiso   1.00
C1382  C     0.71839   0.50998   0.08134   0.00000  Uiso   1.00
C1383  C     0.76086   0.96789   0.54067   0.00000  Uiso   1.00
C1384  C     0.53194   0.73890   0.45934   0.00000  Uiso   1.00
C1385  C     0.96805   0.76111   0.54065   0.00000  Uiso   1.00
C1386  C     0.75635   0.96683   0.45930   0.00000  Uiso   1.00
C1387  C     0.74404   0.53324   0.54071   0.00000  Uiso   1.00
C1388  C     0.71684   0.50593   0.95930   0.00000  Uiso   1.00
C1389  C     0.78312   0.99397   0.04069   0.00000  Uiso   1.00
C1390  C     0.98930   0.78212   0.95936   0.00000  Uiso   1.00
C1391  C     0.51090   0.71790   0.04066   0.00000  Uiso   1.00
C1392  C     0.78201   0.98913   0.95934   0.00000  Uiso   1.00
C1393  C     0.50692   0.71775   0.91863   0.00000  Uiso   1.00
C1394  C     0.71797   0.51086   0.04065   0.00000  Uiso   1.00
C1395  C     0.50640   0.71684   0.95929   0.00000  Uiso   1.00
C1396  C     0.99396   0.78322   0.04071   0.00000  Uiso   1.00
C1397  C     0.59809   0.84812   0.24935   0.00000  Uiso   1.00
C1398  C     0.90191   0.65188   0.75067   0.00000  Uiso   1.00
C1399  C     0.65196   0.59811   0.25002   0.00000  Uiso   1.00
C1400  C     0.84800   0.90194   0.75000   0.00000  Uiso   1.00
C1401  C     0.90226   0.65152   0.24993   0.00000  Uiso   1.00
C1402  C     0.59775   0.84846   0.75006   0.00000  Uiso   1.00
C1403  C     0.84797   0.90192   0.25001   0.00000  Uiso   1.00
C1404  C     0.99334   0.78231   0.08138   0.00000  Uiso   1.00
C1405  C     0.65203   0.59808   0.74999   0.00000  Uiso   1.00
C1406  C     0.59803   0.65183   0.74999   0.00000  Uiso   1.00
C1407  C     0.90197   0.84817   0.25001   0.00000  Uiso   1.00
C1408  C     0.65226   0.90153   0.74993   0.00000  Uiso   1.00
C1409  C     0.84775   0.59846   0.25006   0.00000  Uiso   1.00
C1410  C     0.90196   0.84811   0.75002   0.00000  Uiso   1.00
C1411  C     0.59800   0.65194   0.24999   0.00000  Uiso   1.00
C1412  C     0.84809   0.59812   0.74936   0.00000  Uiso   1.00
C1413  C     0.65191   0.90188   0.25066   0.00000  Uiso   1.00
C1414  C     0.99979   0.74910   0.47968   0.00000  Uiso   1.00
C1415  C     0.71773   0.50645   0.91863   0.00000  Uiso   1.00
C1416  C     0.50018   0.75083   0.52031   0.00000  Uiso   1.00
C1417  C     0.74937   0.99985   0.47969   0.00000  Uiso   1.00
C1418  C     0.75098   0.50021   0.52032   0.00000  Uiso   1.00
C1419  C     0.74979   0.99908   0.97968   0.00000  Uiso   1.00
C1420  C     0.75017   0.50083   0.02031   0.00000  Uiso   1.00
C1421  C     0.99935   0.74984   0.97969   0.00000  Uiso   1.00
C1422  C     0.50096   0.75021   0.02032   0.00000  Uiso   1.00
C1423  C     0.59703   0.96324   0.27555   0.00000  Uiso   1.00
C1424  C     0.90278   0.53668   0.72448   0.00000  Uiso   1.00
C1425  C     0.61522   0.68912   0.17318   0.00000  Uiso   1.00
C1426  C     0.78224   0.99350   0.08136   0.00000  Uiso   1.00
C1427  C     0.88237   0.81454   0.83007   0.00000  Uiso   1.00
C1428  C     0.82661   0.61354   0.16337   0.00000  Uiso   1.00
C1429  C     0.67359   0.88632   0.83648   0.00000  Uiso   1.00
C1430  C     0.92318   0.85473   0.33747   0.00000  Uiso   1.00
C1431  C     0.57663   0.64508   0.66263   0.00000  Uiso   1.00
C1432  C     0.64371   0.57201   0.66585   0.00000  Uiso   1.00
C1433  C     0.85633   0.92798   0.33414   0.00000  Uiso   1.00
C1434  C     0.56525   0.88318   0.83074   0.00000  Uiso   1.00
C1435  C     0.93481   0.61677   0.16928   0.00000  Uiso   1.00
C1436  C     0.81115   0.88511   0.82706   0.00000  Uiso   1.00
C1437  C     0.99024   0.78172   0.91867   0.00000  Uiso   1.00
C1438  C     0.68519   0.61754   0.16970   0.00000  Uiso   1.00
C1439  C     0.95296   0.59835   0.80409   0.00000  Uiso   1.00
C1440  C     0.54692   0.90176   0.19613   0.00000  Uiso   1.00
C1441  C     0.84703   0.71323   0.77557   0.00000  Uiso   1.00
C1442  C     0.65278   0.78668   0.22448   0.00000  Uiso   1.00
C1443  C     0.86524   0.93908   0.67316   0.00000  Uiso   1.00
C1444  C     0.63234   0.56454   0.33006   0.00000  Uiso   1.00
C1445  C     0.57659   0.86356   0.66339   0.00000  Uiso   1.00
C1446  C     0.92360   0.63631   0.33647   0.00000  Uiso   1.00
C1447  C     0.67804   0.60672   0.83403   0.00000  Uiso   1.00
C1448  C     0.50977   0.71828   0.08135   0.00000  Uiso   1.00
C1449  C     0.82197   0.89324   0.16600   0.00000  Uiso   1.00
C1450  C     0.89567   0.82702   0.16241   0.00000  Uiso   1.00
C1451  C     0.60449   0.67316   0.83750   0.00000  Uiso   1.00
C1452  C     0.81525   0.63318   0.33074   0.00000  Uiso   1.00
C1453  C     0.68479   0.86679   0.66927   0.00000  Uiso   1.00
C1454  C     0.56106   0.63504   0.32696   0.00000  Uiso   1.00
C1455  C     0.93523   0.86756   0.66975   0.00000  Uiso   1.00
C1456  C     0.70296   0.84834   0.30408   0.00000  Uiso   1.00
C1457  C     0.79691   0.65177   0.69615   0.00000  Uiso   1.00
C1458  C     0.99982   0.74889   0.39844   0.00000  Uiso   1.00
C1459  C     0.50016   0.75115   0.60156   0.00000  Uiso   1.00
C1460  C     0.74909   0.99987   0.39846   0.00000  Uiso   1.00
C1461  C     0.96846   0.76022   0.58134   0.00000  Uiso   1.00
C1462  C     0.75100   0.50015   0.60155   0.00000  Uiso   1.00
C1463  C     0.74982   0.99887   0.89844   0.00000  Uiso   1.00
C1464  C     0.75016   0.50116   0.10156   0.00000  Uiso   1.00
C1465  C     0.99909   0.74987   0.89846   0.00000  Uiso   1.00
C1466  C     0.50098   0.75015   0.10155   0.00000  Uiso   1.00
C1467  C     0.93417   0.76379   0.47977   0.00000  Uiso   1.00
C1468  C     0.56578   0.73611   0.52023   0.00000  Uiso   1.00
C1469  C     0.72968   0.56433   0.47992   0.00000  Uiso   1.00
C1470  C     0.77065   0.93572   0.52012   0.00000  Uiso   1.00
C1471  C     0.56397   0.72901   0.47990   0.00000  Uiso   1.00
C1472  C     0.75686   0.96773   0.41863   0.00000  Uiso   1.00
C1473  C     0.93604   0.77103   0.52007   0.00000  Uiso   1.00
C1474  C     0.76372   0.93396   0.47975   0.00000  Uiso   1.00
C1475  C     0.73680   0.56613   0.52024   0.00000  Uiso   1.00
C1476  C     0.68406   0.51323   0.97978   0.00000  Uiso   1.00
C1477  C     0.81589   0.98664   0.02022   0.00000  Uiso   1.00
C1478  C     0.97954   0.81429   0.97993   0.00000  Uiso   1.00
C1479  C     0.52073   0.68575   0.02012   0.00000  Uiso   1.00
C1480  C     0.81413   0.97950   0.97990   0.00000  Uiso   1.00
C1481  C     0.68587   0.52051   0.02007   0.00000  Uiso   1.00
C1482  C     0.51383   0.68398   0.97974   0.00000  Uiso   1.00
C1483  C     0.74342   0.53233   0.58137   0.00000  Uiso   1.00
C1484  C     0.98665   0.81610   0.02025   0.00000  Uiso   1.00
C1485  C     0.74994   0.99999   0.35600   0.00000  Uiso   1.00
C1486  C     0.75006   0.50001   0.64401   0.00000  Uiso   1.00
C1487  C     0.99998   0.74989   0.35597   0.00000  Uiso   1.00
C1488  C     0.50002   0.75013   0.64403   0.00000  Uiso   1.00
C1489  C     0.99994   0.74999   0.85600   0.00000  Uiso   1.00
C1490  C     0.50005   0.75001   0.14401   0.00000  Uiso   1.00
C1491  C     0.74998   0.99988   0.85597   0.00000  Uiso   1.00
C1492  C     0.75002   0.50013   0.14403   0.00000  Uiso   1.00
C1493  C     0.68002   0.57002   0.25001   0.00000  Uiso   1.00
C1494  C     0.96779   0.75672   0.41862   0.00000  Uiso   1.00
C1495  C     0.81997   0.92999   0.75000   0.00000  Uiso   1.00
C1496  C     0.92998   0.67995   0.24988   0.00000  Uiso   1.00
C1497  C     0.57002   0.82005   0.75012   0.00000  Uiso   1.00
C1498  C     0.81997   0.92999   0.25001   0.00000  Uiso   1.00
C1499  C     0.68003   0.57001   0.74999   0.00000  Uiso   1.00
C1500  C     0.56997   0.82010   0.24993   0.00000  Uiso   1.00
C1501  C     0.93003   0.67990   0.75007   0.00000  Uiso   1.00
C1502  C     0.67998   0.92995   0.74988   0.00000  Uiso   1.00
C1503  C     0.82002   0.57005   0.25012   0.00000  Uiso   1.00
C1504  C     0.93002   0.82002   0.75001   0.00000  Uiso   1.00
C1505  C     0.53218   0.74324   0.58136   0.00000  Uiso   1.00
C1506  C     0.56997   0.67999   0.24999   0.00000  Uiso   1.00
C1507  C     0.81997   0.57010   0.74993   0.00000  Uiso   1.00
C1508  C     0.68003   0.92990   0.25007   0.00000  Uiso   1.00
C1509  C     0.56999   0.67996   0.75000   0.00000  Uiso   1.00
C1510  C     0.93001   0.82004   0.25000   0.00000  Uiso   1.00
C1511  C     0.61533   0.91188   0.24402   0.00000  Uiso   1.00
C1512  C     0.88466   0.58812   0.75601   0.00000  Uiso   1.00
C1513  C     0.61289   0.63988   0.21439   0.00000  Uiso   1.00
C1514  C     0.88738   0.86036   0.78557   0.00000  Uiso   1.00
C1515  C     0.86482   0.60809   0.21489   0.00000  Uiso   1.00
C1516  C     0.74030   0.53173   0.41867   0.00000  Uiso   1.00
C1517  C     0.63523   0.89186   0.78511   0.00000  Uiso   1.00
C1518  C     0.88487   0.85796   0.28525   0.00000  Uiso   1.00
C1519  C     0.61508   0.64199   0.71474   0.00000  Uiso   1.00
C1520  C     0.64161   0.61462   0.71462   0.00000  Uiso   1.00
C1521  C     0.85837   0.88536   0.28538   0.00000  Uiso   1.00
C1522  C     0.60690   0.86633   0.78497   0.00000  Uiso   1.00
C1523  C     0.89314   0.63364   0.21502   0.00000  Uiso   1.00
C1524  C     0.86015   0.88713   0.78562   0.00000  Uiso   1.00
C1525  C     0.63966   0.61263   0.21445   0.00000  Uiso   1.00
C1526  C     0.91141   0.61520   0.75829   0.00000  Uiso   1.00
C1527  C     0.75973   0.96827   0.58135   0.00000  Uiso   1.00
C1528  C     0.58857   0.88480   0.24177   0.00000  Uiso   1.00
C1529  C     0.86533   0.66188   0.74403   0.00000  Uiso   1.00
C1530  C     0.63466   0.83812   0.25600   0.00000  Uiso   1.00
C1531  C     0.86288   0.88987   0.71440   0.00000  Uiso   1.00
C1532  C     0.63738   0.61036   0.28557   0.00000  Uiso   1.00
C1533  C     0.61481   0.85810   0.71489   0.00000  Uiso   1.00
C1534  C     0.88523   0.64186   0.28511   0.00000  Uiso   1.00
C1535  C     0.63545   0.60844   0.78537   0.00000  Uiso   1.00
C1536  C     0.86457   0.89158   0.21464   0.00000  Uiso   1.00
C1537  C     0.89213   0.86525   0.21478   0.00000  Uiso   1.00
C1538  C     0.78161   0.99011   0.91864   0.00000  Uiso   1.00
C1539  C     0.60792   0.63480   0.78523   0.00000  Uiso   1.00
C1540  C     0.85690   0.61633   0.28497   0.00000  Uiso   1.00
C1541  C     0.64313   0.88365   0.71502   0.00000  Uiso   1.00
C1542  C     0.61013   0.63712   0.28561   0.00000  Uiso   1.00
C1543  C     0.88966   0.86263   0.71446   0.00000  Uiso   1.00
C1544  C     0.66142   0.86520   0.25829   0.00000  Uiso   1.00
C1545  C     0.83857   0.63480   0.74178   0.00000  Uiso   1.00
C1546  C     0.96689   0.75621   0.45929   0.00000  Uiso   1.00
C1547  C     0.53307   0.74370   0.54070   0.00000  Uiso   1.00
C1548  C     0.73938   0.53214   0.45936   0.00000  Uiso   1.00
H1549  H     0.55617   0.73492   0.40220   0.00000  Uiso   1.00
H1550  H     0.69374   0.51490   0.09778   0.00000  Uiso   1.00
H1551  H     0.70146   0.59048   0.82298   0.00000  Uiso   1.00
H1552  H     0.67837   0.60465   0.86619   0.00000  Uiso   1.00
H1553  H     0.79852   0.90939   0.17711   0.00000  Uiso   1.00
H1554  H     0.81804   0.86385   0.17356   0.00000  Uiso   1.00
H1555  H     0.82159   0.89537   0.13384   0.00000  Uiso   1.00
H1556  H     0.89156   0.80371   0.18276   0.00000  Uiso   1.00
H1557  H     0.91480   0.81758   0.13947   0.00000  Uiso   1.00
H1558  H     0.86958   0.83416   0.14796   0.00000  Uiso   1.00
H1559  H     0.58545   0.68263   0.86050   0.00000  Uiso   1.00
H1560  H     0.60851   0.69644   0.81708   0.00000  Uiso   1.00
H1561  H     0.51520   0.69399   0.90214   0.00000  Uiso   1.00
H1562  H     0.63064   0.66607   0.85185   0.00000  Uiso   1.00
H1563  H     0.79914   0.62268   0.35565   0.00000  Uiso   1.00
H1564  H     0.79568   0.63966   0.30693   0.00000  Uiso   1.00
H1565  H     0.82916   0.65850   0.34053   0.00000  Uiso   1.00
H1566  H     0.70433   0.86027   0.69310   0.00000  Uiso   1.00
H1567  H     0.70094   0.87730   0.64440   0.00000  Uiso   1.00
H1568  H     0.67089   0.84148   0.65943   0.00000  Uiso   1.00
H1569  H     0.55597   0.60845   0.31203   0.00000  Uiso   1.00
H1570  H     0.54023   0.65533   0.31768   0.00000  Uiso   1.00
H1571  H     0.55717   0.63036   0.35853   0.00000  Uiso   1.00
H1572  H     0.98513   0.80610   0.09785   0.00000  Uiso   1.00
H1573  H     0.94837   0.85298   0.64518   0.00000  Uiso   1.00
H1574  H     0.95526   0.86788   0.69406   0.00000  Uiso   1.00
H1575  H     0.92937   0.89591   0.66001   0.00000  Uiso   1.00
H1576  H     0.69345   0.87150   0.32258   0.00000  Uiso   1.00
H1577  H     0.73262   0.84487   0.30931   0.00000  Uiso   1.00
H1578  H     0.68934   0.82261   0.31316   0.00000  Uiso   1.00
H1579  H     0.76723   0.65521   0.69101   0.00000  Uiso   1.00
H1580  H     0.80641   0.62868   0.67755   0.00000  Uiso   1.00
H1581  H     0.81046   0.67755   0.68712   0.00000  Uiso   1.00
H1582  H     0.69397   0.51459   0.90217   0.00000  Uiso   1.00
H1583  H     0.80601   0.98537   0.09781   0.00000  Uiso   1.00
H1584  H     0.98530   0.80642   0.90223   0.00000  Uiso   1.00
H1585  H     0.51451   0.69355   0.09779   0.00000  Uiso   1.00
H1586  H     0.85897   0.79437   0.41797   0.00000  Uiso   1.00
H1587  H     0.62983   0.77247   0.59206   0.00000  Uiso   1.00
H1588  H     0.66405   0.60257   0.41037   0.00000  Uiso   1.00
H1589  H     0.94385   0.76534   0.59778   0.00000  Uiso   1.00
H1590  H     0.83519   0.89725   0.59068   0.00000  Uiso   1.00
H1591  H     0.60199   0.66367   0.40974   0.00000  Uiso   1.00
H1592  H     0.89855   0.83758   0.58925   0.00000  Uiso   1.00
H1593  H     0.72851   0.87029   0.40684   0.00000  Uiso   1.00
H1594  H     0.70660   0.64195   0.58169   0.00000  Uiso   1.00
H1595  H     0.60823   0.54333   0.91856   0.00000  Uiso   1.00
H1596  H     0.87969   0.52366   0.09193   0.00000  Uiso   1.00
H1597  H     0.91396   0.85241   0.91026   0.00000  Uiso   1.00
H1598  H     0.58449   0.64736   0.09145   0.00000  Uiso   1.00
H1599  H     0.85262   0.91449   0.90969   0.00000  Uiso   1.00
H1600  H     0.76509   0.94395   0.40215   0.00000  Uiso   1.00
H1601  H     0.64784   0.58664   0.08938   0.00000  Uiso   1.00
H1602  H     0.97875   0.62026   0.90680   0.00000  Uiso   1.00
H1603  H     0.95639   0.89158   0.08211   0.00000  Uiso   1.00
H1604  H     0.58936   0.99237   0.27150   0.00000  Uiso   1.00
H1605  H     0.62094   0.96243   0.29547   0.00000  Uiso   1.00
H1606  H     0.57335   0.94910   0.28904   0.00000  Uiso   1.00
H1607  H     0.87881   0.53754   0.70465   0.00000  Uiso   1.00
H1608  H     0.91035   0.50753   0.72855   0.00000  Uiso   1.00
H1609  H     0.92647   0.55073   0.71090   0.00000  Uiso   1.00
H1610  H     0.64214   0.69373   0.18744   0.00000  Uiso   1.00
H1611  H     0.73525   0.55614   0.59784   0.00000  Uiso   1.00
H1612  H     0.59547   0.71011   0.18332   0.00000  Uiso   1.00
H1613  H     0.61916   0.69336   0.14155   0.00000  Uiso   1.00
H1614  H     0.89606   0.80195   0.85552   0.00000  Uiso   1.00
H1615  H     0.88335   0.79411   0.80611   0.00000  Uiso   1.00
H1616  H     0.85364   0.82013   0.83837   0.00000  Uiso   1.00
H1617  H     0.80218   0.61518   0.18253   0.00000  Uiso   1.00
H1618  H     0.81803   0.60045   0.13578   0.00000  Uiso   1.00
H1619  H     0.83658   0.64148   0.15628   0.00000  Uiso   1.00
H1620  H     0.68223   0.89932   0.86410   0.00000  Uiso   1.00
H1621  H     0.69798   0.88479   0.81725   0.00000  Uiso   1.00
H1622  H     0.94410   0.76504   0.40215   0.00000  Uiso   1.00
H1623  H     0.66369   0.85833   0.84348   0.00000  Uiso   1.00
H1624  H     0.94644   0.85853   0.31706   0.00000  Uiso   1.00
H1625  H     0.93254   0.83584   0.36069   0.00000  Uiso   1.00
H1626  H     0.91612   0.88111   0.35152   0.00000  Uiso   1.00
H1627  H     0.56726   0.66386   0.63932   0.00000  Uiso   1.00
H1628  H     0.55340   0.64142   0.68311   0.00000  Uiso   1.00
H1629  H     0.58364   0.61862   0.64874   0.00000  Uiso   1.00
H1630  H     0.61458   0.56752   0.67380   0.00000  Uiso   1.00
H1631  H     0.66031   0.54864   0.67646   0.00000  Uiso   1.00
H1632  H     0.64543   0.57196   0.63366   0.00000  Uiso   1.00
H1633  H     0.55587   0.73491   0.59782   0.00000  Uiso   1.00
H1634  H     0.83985   0.95139   0.32339   0.00000  Uiso   1.00
H1635  H     0.88552   0.93235   0.32631   0.00000  Uiso   1.00
H1636  H     0.85448   0.92811   0.36632   0.00000  Uiso   1.00
H1637  H     0.54914   0.87268   0.85564   0.00000  Uiso   1.00
H1638  H     0.54568   0.88966   0.80693   0.00000  Uiso   1.00
H1639  H     0.57915   0.90851   0.84053   0.00000  Uiso   1.00
H1640  H     0.95433   0.61026   0.19312   0.00000  Uiso   1.00
H1641  H     0.95096   0.62728   0.14441   0.00000  Uiso   1.00
H1642  H     0.92090   0.59146   0.15944   0.00000  Uiso   1.00
H1643  H     0.80608   0.85846   0.81227   0.00000  Uiso   1.00
H1644  H     0.73541   0.55644   0.40223   0.00000  Uiso   1.00
H1645  H     0.79029   0.90534   0.81770   0.00000  Uiso   1.00
H1646  H     0.80729   0.88057   0.85866   0.00000  Uiso   1.00
H1647  H     0.69815   0.60312   0.14490   0.00000  Uiso   1.00
H1648  H     0.70534   0.61759   0.19389   0.00000  Uiso   1.00
H1649  H     0.67936   0.64598   0.16025   0.00000  Uiso   1.00
H1650  H     0.94345   0.62150   0.82258   0.00000  Uiso   1.00
H1651  H     0.98262   0.59488   0.80931   0.00000  Uiso   1.00
H1652  H     0.93935   0.57262   0.81316   0.00000  Uiso   1.00
H1653  H     0.51723   0.90519   0.19099   0.00000  Uiso   1.00
H1654  H     0.55642   0.87867   0.17754   0.00000  Uiso   1.00
H1655  H     0.76444   0.94353   0.59779   0.00000  Uiso   1.00
H1656  H     0.56046   0.92754   0.18710   0.00000  Uiso   1.00
H1657  H     0.83935   0.74236   0.77152   0.00000  Uiso   1.00
H1658  H     0.87094   0.71243   0.79548   0.00000  Uiso   1.00
H1659  H     0.82335   0.69909   0.78905   0.00000  Uiso   1.00
H1660  H     0.62882   0.78754   0.20465   0.00000  Uiso   1.00
H1661  H     0.66036   0.75753   0.22855   0.00000  Uiso   1.00
H1662  H     0.67648   0.80073   0.21090   0.00000  Uiso   1.00
H1663  H     0.89222   0.94364   0.68731   0.00000  Uiso   1.00
H1664  H     0.84556   0.96010   0.68339   0.00000  Uiso   1.00
H1665  H     0.86908   0.94334   0.64151   0.00000  Uiso   1.00
H1666  H     0.80627   0.98533   0.90221   0.00000  Uiso   1.00
H1667  H     0.64594   0.55200   0.35560   0.00000  Uiso   1.00
H1668  H     0.63342   0.54407   0.30614   0.00000  Uiso   1.00
H1669  H     0.60358   0.57013   0.33824   0.00000  Uiso   1.00
H1670  H     0.55216   0.86519   0.68255   0.00000  Uiso   1.00
H1671  H     0.56799   0.85049   0.63579   0.00000  Uiso   1.00
H1672  H     0.58656   0.89151   0.65630   0.00000  Uiso   1.00
H1673  H     0.93223   0.64930   0.36409   0.00000  Uiso   1.00
H1674  H     0.94798   0.63478   0.31724   0.00000  Uiso   1.00
H1675  H     0.91369   0.60832   0.34348   0.00000  Uiso   1.00
H1676  H     0.68206   0.63608   0.82640   0.00000  Uiso   1.00
O1677  O     0.75000   0.50000   0.25000   0.00000  Uiso   1.00
O1678  O     0.75000   0.96964   0.66245   0.00000  Uiso   1.00
O1679  O     0.95162   0.86869   0.06761   0.00000  Uiso   1.00
O1680  O     0.60561   0.94818   0.23893   0.00000  Uiso   1.00
O1681  O     0.89439   0.55182   0.76112   0.00000  Uiso   1.00
O1682  O     0.60094   0.65362   0.17905   0.00000  Uiso   1.00
O1683  O     0.90069   0.84725   0.82059   0.00000  Uiso   1.00
O1684  O     0.85439   0.59201   0.18024   0.00000  Uiso   1.00
O1685  O     0.64573   0.90785   0.81978   0.00000  Uiso   1.00
O1686  O     0.89228   0.83930   0.31943   0.00000  Uiso   1.00
O1687  O     0.60758   0.66057   0.68053   0.00000  Uiso   1.00
O1688  O     0.65806   0.60546   0.67964   0.00000  Uiso   1.00
O1689  O     0.96963   0.75000   0.33755   0.00000  Uiso   1.00
O1690  O     0.84194   0.89455   0.32036   0.00000  Uiso   1.00
O1691  O     0.59069   0.85604   0.81965   0.00000  Uiso   1.00
O1692  O     0.90936   0.64391   0.18034   0.00000  Uiso   1.00
O1693  O     0.84658   0.89925   0.82099   0.00000  Uiso   1.00
O1694  O     0.65264   0.59916   0.17944   0.00000  Uiso   1.00
O1695  O     0.94752   0.60537   0.76415   0.00000  Uiso   1.00
O1696  O     0.55245   0.89463   0.23603   0.00000  Uiso   1.00
O1697  O     0.85561   0.69818   0.73895   0.00000  Uiso   1.00
O1698  O     0.64439   0.80182   0.26112   0.00000  Uiso   1.00
O1699  O     0.85092   0.90361   0.67905   0.00000  Uiso   1.00
O1700  O     0.53036   0.75000   0.66245   0.00000  Uiso   1.00
O1701  O     0.65068   0.59724   0.32059   0.00000  Uiso   1.00
O1702  O     0.60437   0.84203   0.68023   0.00000  Uiso   1.00
O1703  O     0.89573   0.65785   0.31978   0.00000  Uiso   1.00
O1704  O     0.64474   0.59209   0.82036   0.00000  Uiso   1.00
O1705  O     0.85525   0.90791   0.17964   0.00000  Uiso   1.00
O1706  O     0.91088   0.85800   0.18064   0.00000  Uiso   1.00
O1707  O     0.58924   0.64213   0.81940   0.00000  Uiso   1.00
O1708  O     0.84069   0.60604   0.31965   0.00000  Uiso   1.00
O1709  O     0.65935   0.89392   0.68034   0.00000  Uiso   1.00
O1710  O     0.59651   0.64918   0.32098   0.00000  Uiso   1.00
O1711  O     0.50000   0.71963   0.83755   0.00000  Uiso   1.00
O1712  O     0.90267   0.84918   0.67945   0.00000  Uiso   1.00
O1713  O     0.69752   0.85537   0.26415   0.00000  Uiso   1.00
O1714  O     0.80245   0.64463   0.73604   0.00000  Uiso   1.00
O1715  O     0.50000   0.78036   0.16245   0.00000  Uiso   1.00
O1716  O     0.78036   0.50000   0.83755   0.00000  Uiso   1.00
O1717  O     0.71963   0.50000   0.16245   0.00000  Uiso   1.00
O1718  O     0.50000   0.78036   0.83755   0.00000  Uiso   1.00
O1719  O     0.50000   0.71964   0.16245   0.00000  Uiso   1.00
O1720  O     0.71963   0.50000   0.83755   0.00000  Uiso   1.00
O1721  O     0.75000   0.50000   0.75000   0.00000  Uiso   1.00
O1722  O     0.78036   0.50000   0.16245   0.00000  Uiso   1.00
O1723  O     0.70724   0.57307   0.27302   0.00000  Uiso   1.00
O1724  O     0.79275   0.92693   0.72698   0.00000  Uiso   1.00
O1725  O     0.92692   0.70724   0.27302   0.00000  Uiso   1.00
O1726  O     0.57307   0.79276   0.72698   0.00000  Uiso   1.00
O1727  O     0.79275   0.92693   0.27302   0.00000  Uiso   1.00
O1728  O     0.70724   0.57307   0.72698   0.00000  Uiso   1.00
O1729  O     0.57307   0.79276   0.27302   0.00000  Uiso   1.00
O1730  O     0.92692   0.70724   0.72698   0.00000  Uiso   1.00
O1731  O     0.70724   0.92693   0.72698   0.00000  Uiso   1.00
O1732  O     0.50000   0.75000   0.25000   0.00000  Uiso   1.00
O1733  O     0.79275   0.57307   0.27302   0.00000  Uiso   1.00
O1734  O     0.92692   0.79275   0.72698   0.00000  Uiso   1.00
O1735  O     0.57307   0.70725   0.27302   0.00000  Uiso   1.00
O1736  O     0.79275   0.57307   0.72698   0.00000  Uiso   1.00
O1737  O     0.70724   0.92693   0.27302   0.00000  Uiso   1.00
O1738  O     0.57307   0.70725   0.72698   0.00000  Uiso   1.00
O1739  O     0.92692   0.79275   0.27302   0.00000  Uiso   1.00
O1740  O     0.95724   0.82307   0.77302   0.00000  Uiso   1.00
O1741  O     0.54275   0.67693   0.22698   0.00000  Uiso   1.00
O1742  O     0.67692   0.95725   0.77302   0.00000  Uiso   1.00
O1743  O     0.50000   0.75000   0.75000   0.00000  Uiso   1.00
O1744  O     0.82307   0.54275   0.22698   0.00000  Uiso   1.00
O1745  O     0.54275   0.67693   0.77302   0.00000  Uiso   1.00
O1746  O     0.95724   0.82307   0.22698   0.00000  Uiso   1.00
O1747  O     0.82307   0.54275   0.77302   0.00000  Uiso   1.00
O1748  O     0.67692   0.95725   0.22698   0.00000  Uiso   1.00
O1749  O     0.95724   0.67692   0.22698   0.00000  Uiso   1.00
O1750  O     0.54275   0.82308   0.77302   0.00000  Uiso   1.00
O1751  O     0.67692   0.54275   0.22698   0.00000  Uiso   1.00
O1752  O     0.82307   0.95725   0.77302   0.00000  Uiso   1.00
O1753  O     0.54275   0.82308   0.22698   0.00000  Uiso   1.00
O1754  O     0.75000   0.96964   0.33755   0.00000  Uiso   1.00
O1755  O     0.95724   0.67692   0.77302   0.00000  Uiso   1.00
O1756  O     0.82307   0.95725   0.22698   0.00000  Uiso   1.00
O1757  O     0.67692   0.54275   0.77302   0.00000  Uiso   1.00
O1758  O     0.89243   0.72890   0.42686   0.00000  Uiso   1.00
O1759  O     0.86095   0.75175   0.48422   0.00000  Uiso   1.00
O1760  O     0.88193   0.79902   0.43229   0.00000  Uiso   1.00
O1761  O     0.61744   0.70515   0.56497   0.00000  Uiso   1.00
O1762  O     0.63885   0.74894   0.51597   0.00000  Uiso   1.00
O1763  O     0.60694   0.77459   0.57692   0.00000  Uiso   1.00
O1764  O     0.68197   0.62136   0.48476   0.00000  Uiso   1.00
O1765  O     0.75000   0.53036   0.66245   0.00000  Uiso   1.00
O1766  O     0.73031   0.62484   0.43549   0.00000  Uiso   1.00
O1767  O     0.67554   0.58137   0.42355   0.00000  Uiso   1.00
O1768  O     0.76951   0.87514   0.56440   0.00000  Uiso   1.00
O1769  O     0.81833   0.87861   0.51569   0.00000  Uiso   1.00
O1770  O     0.82425   0.91848   0.57705   0.00000  Uiso   1.00
O1771  O     0.62439   0.72959   0.43560   0.00000  Uiso   1.00
O1772  O     0.62066   0.68092   0.48459   0.00000  Uiso   1.00
O1773  O     0.58087   0.67488   0.42326   0.00000  Uiso   1.00
O1774  O     0.87969   0.81945   0.51505   0.00000  Uiso   1.00
O1775  O     0.87566   0.77116   0.56445   0.00000  Uiso   1.00
O1776  O     0.53036   0.75000   0.33755   0.00000  Uiso   1.00
O1777  O     0.91958   0.82565   0.57628   0.00000  Uiso   1.00
O1778  O     0.79482   0.88215   0.43520   0.00000  Uiso   1.00
O1779  O     0.75076   0.86070   0.48382   0.00000  Uiso   1.00
O1780  O     0.72567   0.89274   0.42269   0.00000  Uiso   1.00
O1781  O     0.77170   0.60769   0.57336   0.00000  Uiso   1.00
O1782  O     0.74949   0.63944   0.51588   0.00000  Uiso   1.00
O1783  O     0.70190   0.61884   0.56755   0.00000  Uiso   1.00
O1784  O     0.64261   0.97799   0.92687   0.00000  Uiso   1.00
O1785  O     0.61097   0.50050   0.98428   0.00000  Uiso   1.00
O1786  O     0.63145   0.54800   0.93237   0.00000  Uiso   1.00
O1787  O     0.96963   0.75000   0.66245   0.00000  Uiso   1.00
O1788  O     0.86784   0.95615   0.06494   0.00000  Uiso   1.00
O1789  O     0.88883   0.50011   0.01590   0.00000  Uiso   1.00
O1790  O     0.85673   0.52551   0.07687   0.00000  Uiso   1.00
O1791  O     0.93170   0.87121   0.98476   0.00000  Uiso   1.00
O1792  O     0.98005   0.87482   0.93552   0.00000  Uiso   1.00
O1793  O     0.92538   0.83123   0.92354   0.00000  Uiso   1.00
O1794  O     0.51962   0.62517   0.06439   0.00000  Uiso   1.00
O1795  O     0.56847   0.62865   0.01573   0.00000  Uiso   1.00
O1796  O     0.57432   0.66855   0.07707   0.00000  Uiso   1.00
O1797  O     0.87451   0.98054   0.93555   0.00000  Uiso   1.00
O1798  O     0.75000   0.53036   0.33755   0.00000  Uiso   1.00
O1799  O     0.87121   0.93188   0.98459   0.00000  Uiso   1.00
O1800  O     0.83143   0.92546   0.92330   0.00000  Uiso   1.00
O1801  O     0.62910   0.56843   0.01507   0.00000  Uiso   1.00
O1802  O     0.62552   0.52012   0.06450   0.00000  Uiso   1.00
O1803  O     0.66896   0.57500   0.07627   0.00000  Uiso   1.00
O1804  O     0.54503   0.63222   0.93520   0.00000  Uiso   1.00
O1805  O     0.50097   0.61069   0.98378   0.00000  Uiso   1.00
O1806  O     0.97587   0.64271   0.92265   0.00000  Uiso   1.00
O1807  O     0.52145   0.85774   0.07336   0.00000  Uiso   1.00
O1808  O     0.99911   0.88946   0.01592   0.00000  Uiso   1.00
S1809  S     0.89104   0.75970   0.45580   0.00000  Uiso   1.00
S1810  S     0.85892   0.99127   0.04423   0.00000  Uiso   1.00
S1811  S     0.95411   0.84967   0.95618   0.00000  Uiso   1.00
S1812  S     0.54585   0.65026   0.04407   0.00000  Uiso   1.00
S1813  S     0.84959   0.95429   0.95608   0.00000  Uiso   1.00
S1814  S     0.65059   0.54607   0.04374   0.00000  Uiso   1.00
S1815  S     0.50975   0.64082   0.95560   0.00000  Uiso   1.00
S1816  S     0.99087   0.85932   0.04428   0.00000  Uiso   1.00
S1817  S     0.60884   0.74035   0.54427   0.00000  Uiso   1.00
S1818  S     0.70432   0.59975   0.45617   0.00000  Uiso   1.00
S1819  S     0.79575   0.90021   0.54406   0.00000  Uiso   1.00
S1820  S     0.59924   0.70353   0.45608   0.00000  Uiso   1.00
S1821  S     0.90097   0.79689   0.54372   0.00000  Uiso   1.00
S1822  S     0.75957   0.89080   0.45562   0.00000  Uiso   1.00
S1823  S     0.74114   0.60935   0.54425   0.00000  Uiso   1.00
S1824  S     0.64095   0.50876   0.95584   0.00000  Uiso   1.00
Zn1825 Zn    0.70659   0.50000   0.21735   0.00000  Uiso   1.00
Zn1826 Zn    0.54340   0.75000   0.28265   0.00000  Uiso   1.00
Zn1827 Zn    0.75000   0.95660   0.71735   0.00000  Uiso   1.00
Zn1828 Zn    0.75000   0.54340   0.28265   0.00000  Uiso   1.00
Zn1829 Zn    0.54340   0.75000   0.71735   0.00000  Uiso   1.00
Zn1830 Zn    0.95659   0.75000   0.28265   0.00000  Uiso   1.00
Zn1831 Zn    0.75000   0.54340   0.71735   0.00000  Uiso   1.00
Zn1832 Zn    0.75000   0.95660   0.28265   0.00000  Uiso   1.00
Zn1833 Zn    0.79340   0.50000   0.78265   0.00000  Uiso   1.00
Zn1834 Zn    0.50000   0.70659   0.21735   0.00000  Uiso   1.00
Zn1835 Zn    0.50000   0.79340   0.78265   0.00000  Uiso   1.00
Zn1836 Zn    0.79340   0.50000   0.21735   0.00000  Uiso   1.00
Zn1837 Zn    0.70659   0.50000   0.78265   0.00000  Uiso   1.00
Zn1838 Zn    0.50000   0.79340   0.21735   0.00000  Uiso   1.00
Zn1839 Zn    0.50000   0.70659   0.78265   0.00000  Uiso   1.00
Zn1840 Zn    0.95659   0.75000   0.71735   0.00000  Uiso   1.00
loop_
_geom_bond_atom_site_label_1
_geom_bond_atom_site_label_2
_geom_bond_distance
_geom_bond_site_symmetry_2
_ccdc_geom_bond_type
C1     C4      1.401   .     A
C1     H169    1.080   .     S
C1     C538    1.394   1_455 S
C2     C14     1.401   .     A
C2     C84     1.394   .     A
C2     H170    1.080   .     S
C3     C147    1.401   .     A
C3     C90     1.417   .     A
C3     C958    1.419   .     S
C4     C91     1.417   .     A
C4     C494    1.419   1_455 S
C5     C81     1.401   .     A
C5     C93     1.417   .     A
C5     C496    1.419   .     S
C6     C94     1.418   .     A
C6     C92     1.400   .     A
C6     C37     1.419   .     A
C7     C103    1.400   .     A
C7     C95     1.418   .     A
C7     C38     1.419   .     A
C8     C35     1.400   .     A
C8     C96     1.418   .     A
C8     C959    1.419   1_545 S
C9     C46     1.400   .     A
C9     C97     1.417   .     A
C9     C960    1.419   .     S
C10    C41     1.419   .     A
C10    C98     1.417   .     A
C10    C57     1.401   .     A
C11    C99     1.417   .     A
C11    C68     1.401   .     A
C11    C42     1.419   .     A
C12    C158    1.401   .     A
C12    C39     1.419   .     A
C12    C100    1.417   .     A
C13    H181    1.080   .     S
C13    C15     1.400   .     A
C13    C545    1.393   1_455 S
C14    C101    1.417   .     A
C14    C40     1.419   .     A
C15    C102    1.418   .     A
C15    C501    1.419   1_455 S
C16    C104    1.418   .     A
C16    C24     1.400   .     A
C16    C502    1.419   .     S
C17    C148    1.409   .     A
C17    C120    1.456   .     S
C17    C150    1.407   .     A
C18    C121    1.456   .     S
C18    C149    1.407   .     A
C18    C146    1.409   .     A
C19    C113    1.451   .     S
C19    C145    1.408   .     A
C19    C152    1.407   .     A
C20    C144    1.412   .     A
C20    C151    1.411   .     A
C20    C115    1.449   .     S
C21    C116    1.456   .     S
C21    C143    1.409   .     A
C21    C154    1.407   .     A
C22    C142    1.409   .     A
C22    C153    1.407   .     A
C22    C117    1.456   .     S
C23    C118    1.449   .     S
C23    C156    1.412   .     A
C23    C141    1.411   .     A
C24    H192    1.080   .     S
C24    C546    1.393   .     S
C25    C119    1.449   .     S
C25    C140    1.411   .     A
C25    C155    1.412   .     A
C26    C139    1.410   .     A
C26    C159    1.410   .     A
C26    C129    1.452   .     S
C27    C138    1.410   .     A
C27    C157    1.410   .     A
C27    C130    1.452   .     S
C28    C137    1.407   .     A
C28    C122    1.456   .     S
C28    C161    1.409   .     A
C29    C135    1.407   .     A
C29    C160    1.409   .     A
C29    C123    1.456   .     S
C30    C134    1.407   .     A
C30    C163    1.408   .     A
C30    C124    1.451   .     S
C31    C162    1.412   .     A
C31    C133    1.411   .     A
C31    C126    1.449   .     S
C32    C127    1.456   .     S
C32    C165    1.409   .     A
C32    C132    1.407   .     A
C33    C164    1.409   .     A
C33    C131    1.407   .     A
C33    C128    1.456   .     S
C34    C166    1.419   .     A
C34    C464    1.419   .     S
C34    C496    1.400   .     S
C35    H202    1.080   .     S
C35    C1003   1.393   1_545 S
C36    C167    1.419   .     A
C36    C465    1.419   1_455 S
C36    C494    1.400   1_455 S
C37    C958    1.400   .     S
C37    C1088   1.419   .     S
C38    C923    1.419   1_545 S
C38    C957    1.400   1_545 S
C39    C928    1.419   .     S
C39    C960    1.400   1_556 S
C40    C929    1.419   1_545 S
C40    C959    1.400   1_544 S
C41    C475    1.419   .     S
C41    C502    1.400   1_556 S
C42    C476    1.419   1_455 S
C42    C501    1.400   1_454 S
C43    O300    1.410   .     S
C43    H226    1.113   .     S
C43    H224    1.109   .     S
C43    H225    1.113   .     S
C44    O301    1.410   .     S
C44    H227    1.113   .     S
C44    H229    1.113   .     S
C44    H228    1.109   .     S
C45    H230    1.116   .     S
C45    H233    1.109   .     S
C45    H232    1.110   .     S
C45    O302    1.415   .     S
C46    H203    1.080   .     S
C46    C1004   1.393   .     S
C47    H235    1.113   .     S
C47    H236    1.110   .     S
C47    H234    1.109   .     S
C47    O303    1.412   .     S
C48    H239    1.113   .     S
C48    O304    1.410   .     S
C48    H238    1.109   .     S
C48    H237    1.113   .     S
C49    H241    1.113   .     S
C49    H243    1.113   .     S
C49    O305    1.410   .     S
C49    H240    1.109   .     S
C50    H246    1.109   .     S
C50    O306    1.411   .     S
C50    H244    1.114   .     S
C50    H245    1.110   .     S
C51    H247    1.110   .     S
C51    H248    1.113   .     S
C51    H249    1.109   .     S
C51    O307    1.412   .     S
C52    O308    1.415   .     S
C52    H250    1.115   .     S
C52    H252    1.109   .     S
C52    H251    1.109   .     S
C53    H254    1.109   .     S
C53    H256    1.109   .     S
C53    O310    1.415   .     S
C53    H255    1.115   .     S
C54    O311    1.412   .     S
C54    H258    1.114   .     S
C54    H259    1.111   .     S
C54    H257    1.109   .     S
C55    H260    1.114   .     S
C55    O312    1.412   .     S
C55    H262    1.111   .     S
C55    H261    1.109   .     S
C56    H266    1.109   .     S
C56    H263    1.116   .     S
C56    O313    1.415   .     S
C56    H265    1.110   .     S
C57    H204    1.080   .     S
C57    C85     1.394   .     A
C58    O314    1.412   .     S
C58    H268    1.113   .     S
C58    H269    1.110   .     S
C58    H267    1.109   .     S
C59    O315    1.412   .     S
C59    H272    1.111   .     S
C59    H270    1.114   .     S
C59    H271    1.109   .     S
C60    O316    1.412   .     S
C60    H274    1.114   .     S
C60    H276    1.111   .     S
C60    H273    1.109   .     S
C61    H278    1.113   .     S
C61    O317    1.410   .     S
C61    H277    1.109   .     S
C61    H279    1.113   .     S
C62    H281    1.109   .     S
C62    H282    1.113   .     S
C62    O318    1.410   .     S
C62    H280    1.113   .     S
C63    H285    1.109   .     S
C63    H284    1.110   .     S
C63    O319    1.415   .     S
C63    H283    1.116   .     S
C64    O321    1.412   .     S
C64    H288    1.113   .     S
C64    H287    1.109   .     S
C64    H289    1.110   .     S
C65    H290    1.113   .     S
C65    H292    1.113   .     S
C65    O322    1.410   .     S
C65    H291    1.109   .     S
C66    H294    1.113   .     S
C66    H295    1.113   .     S
C66    H293    1.109   .     S
C66    O323    1.410   .     S
C67    H296    1.115   .     S
C67    H172    1.109   .     S
C67    H171    1.109   .     S
C67    O324    1.415   .     S
C68    C86     1.393   .     A
C68    H205    1.080   .     S
C69    O325    1.415   .     S
C69    H173    1.109   .     S
C69    H175    1.109   .     S
C69    H174    1.115   .     S
C70    H177    1.110   .     S
C70    H176    1.114   .     S
C70    O326    1.411   .     S
C70    H178    1.109   .     S
C71    H180    1.114   .     S
C71    O327    1.411   .     S
C71    H179    1.110   .     S
C71    H182    1.109   .     S
C72    H184    1.114   .     S
C72    H185    1.111   .     S
C72    O328    1.412   .     S
C72    H183    1.109   .     S
C73    H186    1.114   .     S
C73    H188    1.111   .     S
C73    H187    1.109   .     S
C73    O329    1.412   .     S
C74    O330    1.415   .     S
C74    H190    1.110   .     S
C74    H191    1.109   .     S
C74    H189    1.116   .     S
C75    O332    1.412   .     S
C75    H194    1.113   .     S
C75    H195    1.109   .     S
C75    H193    1.109   .     S
C76    O333    1.412   .     S
C76    H197    1.109   .     S
C76    H196    1.114   .     S
C76    H198    1.111   .     S
C77    O334    1.412   .     S
C77    H201    1.111   .     S
C77    H200    1.114   .     S
C77    H199    1.109   .     S
C78    C114    1.393   .     A
C78    C107    1.462   .     S
C78    C461    1.394   .     S
C79    C108    1.462   .     S
C79    C125    1.393   .     A
C79    C541    1.394   1_455 S
C80    C92     1.393   .     A
C80    C105    1.461   .     S
C80    C1056   1.394   .     S
C81    H209    1.080   .     S
C81    C539    1.394   .     S
C82    C106    1.461   .     S
C82    C103    1.393   .     A
C82    C1067   1.393   1_545 S
C83    C111    1.462   .     S
C83    C158    1.394   .     A
C83    C955    1.393   .     S
C84    C112    1.462   .     S
C84    C966    1.393   1_545 S
C85    C109    1.461   .     S
C85    C473    1.393   .     S
C86    C110    1.461   .     S
C86    C484    1.393   1_455 S
C87    S429    1.790   .     S
C87    C93     1.413   .     A
C87    C166    1.418   .     A
C88    S437    1.790   .     S
C88    C91     1.414   .     A
C88    C167    1.417   .     A
C89    C95     1.413   .     A
C89    C168    1.417   .     A
C89    S438    1.789   .     S
C90    C94     1.414   .     A
C90    S439    1.790   .     S
C91    S440    1.789   .     S
C92    H220    1.080   .     S
C93    S441    1.789   .     S
C94    S442    1.790   .     S
C95    S443    1.791   .     S
C96    S444    1.790   .     S
C96    C101    1.413   1_556 S
C97    S430    1.790   .     S
C97    C100    1.414   1_554 S
C98    S431    1.789   .     S
C98    C104    1.413   1_556 S
C99    S432    1.790   .     S
C99    C102    1.414   1_554 S
C100   S433    1.790   .     S
C100   C97     1.414   1_556 S
C101   S434    1.789   .     S
C101   C96     1.413   1_554 S
C102   S435    1.790   .     S
C102   C99     1.414   1_556 S
C103   H231    1.080   .     S
C104   S436    1.791   .     S
C104   C98     1.413   1_554 S
C105   O374    1.279   .     A
C105   O1338   1.279   .     S
C106   O385    1.278   .     A
C106   O1218   1.279   1_545 S
C107   O309    1.281   .     A
C107   O856    1.281   .     S
C108   O320    1.281   .     A
C108   O867    1.281   1_455 S
C109   O798    1.279   .     A
C109   O791    1.279   .     A
C110   O339    1.279   .     A
C110   O335    1.278   .     S
C111   O1256   1.281   .     S
C111   O1260   1.281   .     S
C112   O337    1.281   .     A
C112   O342    1.281   .     A
C113   O343    1.280   .     A
C113   O371    1.279   .     A
C114   H242    1.080   .     S
C114   C166    1.400   .     A
C115   O344    1.279   .     A
C115   O372    1.279   .     A
C116   O369    1.277   .     A
C116   O345    1.281   .     A
C117   O370    1.277   .     A
C117   O346    1.281   .     A
C118   O347    1.279   .     A
C118   O376    1.278   .     A
C119   O348    1.279   .     A
C119   O377    1.278   .     A
C120   O373    1.277   .     A
C120   O349    1.282   .     A
C121   O375    1.277   .     A
C121   O350    1.282   .     A
C122   O351    1.277   .     A
C122   O362    1.281   .     A
C123   O353    1.277   .     A
C123   O364    1.281   .     A
C124   O354    1.279   .     A
C124   O360    1.280   .     A
C125   C167    1.400   .     A
C125   H253    1.080   .     S
C126   O355    1.279   .     A
C126   O361    1.279   .     A
C127   O356    1.277   .     A
C127   O367    1.282   .     A
C128   O357    1.277   .     A
C128   O368    1.282   .     A
C129   O365    1.279   .     A
C129   O358    1.279   .     A
C130   O366    1.279   .     A
C130   O359    1.279   .     A
C131   C148    1.398   .     A
C131   O300    1.384   .     S
C132   C146    1.398   .     A
C132   O301    1.384   .     S
C133   O302    1.386   .     S
C133   C145    1.396   .     A
C134   O303    1.385   .     S
C134   C144    1.396   .     A
C135   O304    1.384   .     S
C135   C143    1.399   .     A
C136   H264    1.080   .     S
C136   C168    1.401   .     A
C136   C1000   1.394   1_545 S
C137   C142    1.399   .     A
C137   O305    1.384   .     S
C138   C141    1.393   .     A
C138   O306    1.386   .     S
C139   C140    1.393   .     A
C139   O307    1.386   .     S
C140   O308    1.386   .     S
C141   O310    1.386   .     S
C142   O311    1.385   .     S
C143   O312    1.385   .     S
C144   O313    1.387   .     S
C145   O314    1.385   .     S
C146   O315    1.385   .     S
C147   H275    1.080   .     S
C147   C1002   1.393   .     S
C148   O316    1.385   .     S
C149   C165    1.398   .     A
C149   O317    1.384   .     S
C150   C164    1.398   .     A
C150   O318    1.384   .     S
C151   O319    1.386   .     S
C151   C163    1.396   .     A
C152   O321    1.385   .     S
C152   C162    1.396   .     A
C153   C161    1.399   .     A
C153   O322    1.384   .     S
C154   C160    1.399   .     A
C154   O323    1.384   .     S
C155   C159    1.393   .     A
C155   O324    1.386   .     S
C156   C157    1.393   .     A
C156   O325    1.386   .     S
C157   O326    1.386   .     S
C158   H286    1.080   .     S
C159   O327    1.386   .     S
C160   O328    1.385   .     S
C161   O329    1.385   .     S
C162   O330    1.387   .     S
C163   O332    1.385   .     S
C164   O333    1.385   .     S
C165   O334    1.385   .     S
C168   C957    1.419   1_545 S
H206   O380    0.991   .     S
H207   O383    0.991   .     S
H208   O387    0.991   .     S
H210   O390    0.991   .     S
H211   O393    0.991   .     S
H212   O397    0.991   .     S
H213   O400    0.991   .     S
H214   O403    0.991   .     S
H215   O406    0.991   .     S
H216   O410    0.991   .     S
H217   O413    0.991   .     S
H218   O416    0.991   .     S
H219   O420    0.991   .     S
H221   O423    0.991   .     S
H222   O426    0.991   .     S
H223   O299    0.991   .     S
O297   Zn448   1.944   .     S
O297   Zn445   1.948   .     S
O297   Zn1372  1.944   1_545 S
O297   Zn456   1.947   .     S
O298   Zn447   1.948   .     S
O298   C1026   1.279   .     S
O299   S436    1.682   .     S
O309   Zn450   1.949   .     S
O320   Zn449   1.949   .     S
O331   C569    1.279   1_455 A
O331   Zn459   1.948   .     S
O335   Zn458   1.948   .     S
O336   Zn453   1.948   .     S
O336   C1031   1.281   1_545 S
O337   Zn445   1.948   .     S
O338   C569    1.279   1_455 A
O338   Zn455   1.948   .     S
O339   Zn454   1.948   .     S
O340   Zn457   1.949   .     S
O340   C1031   1.281   1_545 S
O341   Zn457   1.947   .     S
O341   Zn453   1.948   .     S
O341   Zn451   1.944   .     S
O341   Zn1367  1.944   1_545 S
O342   Zn456   1.949   .     S
O343   Zn448   1.932   .     S
O344   Zn447   1.932   .     S
O345   Zn450   1.936   .     S
O346   Zn449   1.936   .     S
O347   Zn452   1.932   .     S
O348   Zn451   1.932   .     S
O349   Zn446   1.935   .     S
O350   Zn460   1.935   .     S
O351   Zn447   1.937   .     S
O352   Zn458   1.944   .     S
O352   Zn454   1.944   .     S
O352   Zn910   1.947   1_455 S
O352   Zn446   1.948   .     S
O353   Zn448   1.937   .     S
O354   Zn460   1.930   .     S
O355   Zn446   1.930   .     S
O356   Zn451   1.938   .     S
O357   Zn452   1.938   .     S
O358   Zn449   1.930   .     S
O359   Zn450   1.930   .     S
O360   Zn915   1.932   .     S
O361   Zn454   1.932   .     S
O362   Zn1377  1.936   .     S
O363   Zn920   1.948   1_455 S
O363   Zn459   1.944   .     S
O363   Zn455   1.944   .     S
O363   Zn449   1.947   .     S
O364   Zn456   1.936   .     S
O365   Zn459   1.932   .     S
O366   Zn918   1.932   .     S
O367   Zn453   1.935   .     S
O368   Zn1365  1.935   .     S
O369   Zn914   1.937   .     S
O370   Zn455   1.937   .     S
O371   Zn445   1.930   .     S
O372   Zn1373  1.930   .     S
O373   Zn458   1.938   .     S
O374   Zn452   1.948   .     S
O375   Zn919   1.938   .     S
O376   Zn1376  1.930   .     S
O377   Zn457   1.930   .     S
O378   S429    1.504   .     D
O379   S429    1.503   .     D
O380   S429    1.682   .     S
O381   S437    1.503   .     D
O382   S437    1.503   .     D
O383   S437    1.684   .     S
O384   S438    1.503   .     D
O385   Zn451   1.948   .     S
O386   S438    1.503   .     D
O387   S438    1.683   .     S
O388   S439    1.503   .     D
O389   S439    1.503   .     D
O390   S439    1.683   .     S
O391   S440    1.503   .     D
O392   S440    1.503   .     D
O393   S440    1.683   .     S
O394   S441    1.503   .     D
O395   S441    1.503   .     D
O396   Zn446   1.948   .     S
O396   C567    1.281   1_455 S
O397   S441    1.682   .     S
O398   S442    1.504   .     D
O399   S442    1.503   .     D
O400   S442    1.684   .     S
O401   S443    1.504   .     D
O402   S443    1.503   .     D
O403   S443    1.682   .     S
O404   S1364   1.504   .     S
O405   S444    1.503   .     D
O406   S444    1.682   .     S
O407   Zn460   1.948   .     S
O407   C568    1.281   .     S
O408   S430    1.503   .     D
O409   S1350   1.503   1_545 S
O410   S1350   1.684   1_545 S
O411   S431    1.503   .     D
O412   S431    1.503   .     D
O413   S431    1.683   .     S
O414   S432    1.503   .     D
O415   S432    1.503   .     D
O416   S432    1.683   .     S
O417   S433    1.503   .     D
O418   Zn448   1.948   .     S
O418   C1025   1.279   1_545 S
O419   S433    1.503   .     D
O420   S433    1.683   .     S
O421   S434    1.503   .     D
O422   S434    1.503   .     D
O423   S434    1.682   .     S
O424   S435    1.504   .     D
O425   S435    1.503   .     D
O426   S895    1.684   .     S
O427   S896    1.504   1_455 S
O428   S436    1.503   .     D
S430   O1330   1.684   .     S
S430   O1329   1.503   .     S
S435   O886    1.684   1_455 S
S436   O887    1.504   .     S
S444   O1324   1.504   1_545 S
Zn445  O1288   1.935   1_545 S
Zn447  O1261   1.944   .     S
Zn450  O812    1.947   .     S
Zn452  O1217   1.944   .     S
Zn453  O1292   1.930   1_545 S
Zn454  O829    1.937   1_455 S
Zn455  O820    1.932   1_455 S
Zn456  O1296   1.930   1_545 S
Zn457  O1282   1.936   1_545 S
Zn458  O826    1.932   1_455 S
Zn459  O835    1.938   1_455 S
Zn460  O823    1.948   .     S
C461   C464    1.401   .     A
C461   H629    1.080   .     S
C462   C474    1.401   .     A
C462   C544    1.394   .     A
C462   H630    1.080   .     S
C463   C607    1.401   .     A
C463   C550    1.417   .     A
C463   C1418   1.419   .     S
C464   C551    1.417   .     A
C465   C541    1.401   .     A
C465   C553    1.417   .     A
C465   C36     1.419   1_655 S
C466   C554    1.418   .     A
C466   C552    1.400   .     A
C466   C497    1.419   .     A
C467   C563    1.400   .     A
C467   C555    1.418   .     A
C467   C498    1.419   .     A
C468   C495    1.400   .     A
C468   C556    1.418   .     A
C468   C1419   1.419   1_545 S
C469   C506    1.400   .     A
C469   C557    1.417   .     A
C469   C1420   1.419   .     S
C470   C501    1.419   .     A
C470   C558    1.417   .     A
C470   C517    1.401   .     A
C471   C559    1.417   .     A
C471   C528    1.401   .     A
C471   C502    1.419   .     A
C472   C618    1.401   .     A
C472   C499    1.419   .     A
C472   C560    1.417   .     A
C473   H641    1.080   .     S
C473   C475    1.400   .     A
C474   C561    1.417   .     A
C474   C500    1.419   .     A
C475   C562    1.418   .     A
C476   C564    1.418   .     A
C476   C484    1.400   .     A
C476   C42     1.419   1_655 S
C477   C608    1.409   .     A
C477   C580    1.456   .     S
C477   C610    1.407   .     A
C478   C581    1.456   .     S
C478   C609    1.407   .     A
C478   C606    1.409   .     A
C479   C573    1.451   .     S
C479   C605    1.408   .     A
C479   C612    1.407   .     A
C480   C604    1.412   .     A
C480   C611    1.411   .     A
C480   C575    1.449   .     S
C481   C576    1.456   .     S
C481   C603    1.409   .     A
C481   C614    1.407   .     A
C482   C602    1.409   .     A
C482   C613    1.407   .     A
C482   C577    1.456   .     S
C483   C578    1.449   .     S
C483   C616    1.412   .     A
C483   C601    1.411   .     A
C484   H652    1.080   .     S
C484   C86     1.393   1_655 S
C485   C579    1.449   .     S
C485   C600    1.411   .     A
C485   C615    1.412   .     A
C486   C599    1.410   .     A
C486   C619    1.410   .     A
C486   C589    1.452   .     S
C487   C598    1.410   .     A
C487   C617    1.410   .     A
C487   C590    1.452   .     S
C488   C597    1.407   .     A
C488   C582    1.456   .     S
C488   C621    1.409   .     A
C489   C595    1.407   .     A
C489   C620    1.409   .     A
C489   C583    1.456   .     S
C490   C594    1.407   .     A
C490   C623    1.408   .     A
C490   C584    1.451   .     S
C491   C622    1.412   .     A
C491   C593    1.411   .     A
C491   C586    1.449   .     S
C492   C587    1.456   .     S
C492   C625    1.409   .     A
C492   C592    1.407   .     A
C493   C624    1.409   .     A
C493   C591    1.407   .     A
C493   C588    1.456   .     S
C494   C626    1.419   .     A
C494   C4      1.419   1_655 S
C494   C36     1.400   1_655 S
C495   H662    1.080   .     S
C495   C1463   1.393   1_545 S
C496   C627    1.419   .     A
C497   C1418   1.400   .     S
C497   C1548   1.419   .     S
C498   C1383   1.419   1_545 S
C498   C1417   1.400   1_545 S
C499   C1388   1.419   .     S
C499   C1420   1.400   1_556 S
C500   C1389   1.419   1_545 S
C500   C1419   1.400   1_544 S
C501   C15     1.419   1_655 S
C501   C42     1.400   1_656 S
C502   C41     1.400   1_554 S
C503   O760    1.410   .     S
C503   H686    1.113   .     S
C503   H684    1.109   .     S
C503   H685    1.113   .     S
C504   O761    1.410   .     S
C504   H687    1.113   .     S
C504   H689    1.113   .     S
C504   H688    1.109   .     S
C505   H690    1.116   .     S
C505   H693    1.109   .     S
C505   H692    1.110   .     S
C505   O762    1.415   .     S
C506   H663    1.080   .     S
C506   C1464   1.393   .     S
C507   H695    1.113   .     S
C507   H696    1.110   .     S
C507   H694    1.109   .     S
C507   O763    1.412   .     S
C508   H699    1.113   .     S
C508   O764    1.410   .     S
C508   H698    1.109   .     S
C508   H697    1.113   .     S
C509   H701    1.113   .     S
C509   H703    1.113   .     S
C509   O765    1.410   .     S
C509   H700    1.109   .     S
C510   H706    1.109   .     S
C510   O766    1.411   .     S
C510   H704    1.114   .     S
C510   H705    1.110   .     S
C511   H707    1.110   .     S
C511   H708    1.113   .     S
C511   H709    1.109   .     S
C511   O767    1.412   .     S
C512   O768    1.415   .     S
C512   H710    1.115   .     S
C512   H712    1.109   .     S
C512   H711    1.109   .     S
C513   H714    1.109   .     S
C513   H716    1.109   .     S
C513   O770    1.415   .     S
C513   H715    1.115   .     S
C514   O771    1.412   .     S
C514   H718    1.114   .     S
C514   H719    1.111   .     S
C514   H717    1.109   .     S
C515   H720    1.114   .     S
C515   O772    1.412   .     S
C515   H722    1.111   .     S
C515   H721    1.109   .     S
C516   H726    1.109   .     S
C516   H723    1.116   .     S
C516   O773    1.415   .     S
C516   H725    1.110   .     S
C517   H664    1.080   .     S
C517   C545    1.394   .     A
C518   O774    1.412   .     S
C518   H728    1.113   .     S
C518   H729    1.110   .     S
C518   H727    1.109   .     S
C519   O775    1.412   .     S
C519   H732    1.111   .     S
C519   H730    1.114   .     S
C519   H731    1.109   .     S
C520   O776    1.412   .     S
C520   H734    1.114   .     S
C520   H736    1.111   .     S
C520   H733    1.109   .     S
C521   H738    1.113   .     S
C521   O777    1.410   .     S
C521   H737    1.109   .     S
C521   H739    1.113   .     S
C522   H741    1.109   .     S
C522   H742    1.113   .     S
C522   O778    1.410   .     S
C522   H740    1.113   .     S
C523   H745    1.109   .     S
C523   H744    1.110   .     S
C523   O779    1.415   .     S
C523   H743    1.116   .     S
C524   O781    1.412   .     S
C524   H748    1.113   .     S
C524   H747    1.109   .     S
C524   H749    1.110   .     S
C525   H750    1.113   .     S
C525   H752    1.113   .     S
C525   O782    1.410   .     S
C525   H751    1.109   .     S
C526   H754    1.113   .     S
C526   H755    1.113   .     S
C526   H753    1.109   .     S
C526   O783    1.410   .     S
C527   H756    1.115   .     S
C527   H632    1.109   .     S
C527   H631    1.109   .     S
C527   O784    1.415   .     S
C528   C546    1.393   .     A
C528   H665    1.080   .     S
C529   O785    1.415   .     S
C529   H633    1.109   .     S
C529   H635    1.109   .     S
C529   H634    1.115   .     S
C530   H637    1.110   .     S
C530   H636    1.114   .     S
C530   O786    1.411   .     S
C530   H638    1.109   .     S
C531   H640    1.114   .     S
C531   O787    1.411   .     S
C531   H639    1.110   .     S
C531   H642    1.109   .     S
C532   H644    1.114   .     S
C532   H645    1.111   .     S
C532   O788    1.412   .     S
C532   H643    1.109   .     S
C533   H646    1.114   .     S
C533   H648    1.111   .     S
C533   H647    1.109   .     S
C533   O789    1.412   .     S
C534   O790    1.415   .     S
C534   H650    1.110   .     S
C534   H651    1.109   .     S
C534   H649    1.116   .     S
C535   O792    1.412   .     S
C535   H654    1.113   .     S
C535   H655    1.109   .     S
C535   H653    1.109   .     S
C536   O793    1.412   .     S
C536   H657    1.109   .     S
C536   H656    1.114   .     S
C536   H658    1.111   .     S
C537   O794    1.412   .     S
C537   H661    1.111   .     S
C537   H660    1.114   .     S
C537   H659    1.109   .     S
C538   C574    1.393   .     A
C538   C567    1.462   .     S
C538   C1      1.394   1_655 S
C539   C568    1.462   .     S
C539   C585    1.393   .     A
C540   C552    1.393   .     A
C540   C565    1.461   .     S
C540   C1516   1.394   .     S
C541   H669    1.080   .     S
C541   C79     1.394   1_655 S
C542   C566    1.461   .     S
C542   C563    1.393   .     A
C542   C1527   1.393   1_545 S
C543   C571    1.462   .     S
C543   C618    1.394   .     A
C543   C1415   1.393   .     S
C544   C572    1.462   .     S
C544   C1426   1.393   1_545 S
C545   C569    1.461   .     S
C545   C13     1.393   1_655 S
C546   C570    1.461   .     S
C547   S889    1.790   .     S
C547   C553    1.413   .     A
C547   C626    1.418   .     A
C548   S897    1.790   .     S
C548   C551    1.414   .     A
C548   C627    1.417   .     A
C549   C555    1.413   .     A
C549   C628    1.417   .     A
C549   S898    1.789   .     S
C550   C554    1.414   .     A
C550   S899    1.790   .     S
C551   S900    1.789   .     S
C552   H680    1.080   .     S
C553   S901    1.789   .     S
C554   S902    1.790   .     S
C555   S903    1.791   .     S
C556   S904    1.790   .     S
C556   C561    1.413   1_556 S
C557   S890    1.790   .     S
C557   C560    1.414   1_554 S
C558   S891    1.789   .     S
C558   C564    1.413   1_556 S
C559   S892    1.790   .     S
C559   C562    1.414   1_554 S
C560   S893    1.790   .     S
C560   C557    1.414   1_556 S
C561   S894    1.789   .     S
C561   C556    1.413   1_554 S
C562   S895    1.790   .     S
C562   C559    1.414   1_556 S
C563   H691    1.080   .     S
C564   S896    1.791   .     S
C564   C558    1.413   1_554 S
C565   O834    1.279   .     A
C565   O1798   1.279   .     S
C566   O845    1.278   .     A
C566   O1678   1.279   1_545 S
C567   O769    1.281   .     A
C567   O396    1.281   1_655 S
C568   O780    1.281   .     A
C569   O338    1.279   1_655 A
C569   O331    1.279   1_655 A
C570   O799    1.279   .     A
C570   O795    1.278   .     S
C571   O1716   1.281   .     S
C571   O1720   1.281   .     S
C572   O797    1.281   .     A
C572   O802    1.281   .     A
C573   O803    1.280   .     A
C573   O831    1.279   .     A
C574   H702    1.080   .     S
C574   C626    1.400   .     A
C575   O804    1.279   .     A
C575   O832    1.279   .     A
C576   O829    1.277   .     A
C576   O805    1.281   .     A
C577   O830    1.277   .     A
C577   O806    1.281   .     A
C578   O807    1.279   .     A
C578   O836    1.278   .     A
C579   O808    1.279   .     A
C579   O837    1.278   .     A
C580   O833    1.277   .     A
C580   O809    1.282   .     A
C581   O835    1.277   .     A
C581   O810    1.282   .     A
C582   O811    1.277   .     A
C582   O822    1.281   .     A
C583   O813    1.277   .     A
C583   O824    1.281   .     A
C584   O814    1.279   .     A
C584   O820    1.280   .     A
C585   C627    1.400   .     A
C585   H713    1.080   .     S
C586   O815    1.279   .     A
C586   O821    1.279   .     A
C587   O816    1.277   .     A
C587   O827    1.282   .     A
C588   O817    1.277   .     A
C588   O828    1.282   .     A
C589   O825    1.279   .     A
C589   O818    1.279   .     A
C590   O826    1.279   .     A
C590   O819    1.279   .     A
C591   C608    1.398   .     A
C591   O760    1.384   .     S
C592   C606    1.398   .     A
C592   O761    1.384   .     S
C593   O762    1.386   .     S
C593   C605    1.396   .     A
C594   O763    1.385   .     S
C594   C604    1.396   .     A
C595   O764    1.384   .     S
C595   C603    1.399   .     A
C596   H724    1.080   .     S
C596   C628    1.401   .     A
C596   C1460   1.394   1_545 S
C597   C602    1.399   .     A
C597   O765    1.384   .     S
C598   C601    1.393   .     A
C598   O766    1.386   .     S
C599   C600    1.393   .     A
C599   O767    1.386   .     S
C600   O768    1.386   .     S
C601   O770    1.386   .     S
C602   O771    1.385   .     S
C603   O772    1.385   .     S
C604   O773    1.387   .     S
C605   O774    1.385   .     S
C606   O775    1.385   .     S
C607   H735    1.080   .     S
C607   C1462   1.393   .     S
C608   O776    1.385   .     S
C609   C625    1.398   .     A
C609   O777    1.384   .     S
C610   C624    1.398   .     A
C610   O778    1.384   .     S
C611   O779    1.386   .     S
C611   C623    1.396   .     A
C612   O781    1.385   .     S
C612   C622    1.396   .     A
C613   C621    1.399   .     A
C613   O782    1.384   .     S
C614   C620    1.399   .     A
C614   O783    1.384   .     S
C615   C619    1.393   .     A
C615   O784    1.386   .     S
C616   C617    1.393   .     A
C616   O785    1.386   .     S
C617   O786    1.386   .     S
C618   H746    1.080   .     S
C619   O787    1.386   .     S
C620   O788    1.385   .     S
C621   O789    1.385   .     S
C622   O790    1.387   .     S
C623   O792    1.385   .     S
C624   O793    1.385   .     S
C625   O794    1.385   .     S
C628   C1417   1.419   1_545 S
H666   O840    0.991   .     S
H667   O843    0.991   .     S
H668   O847    0.991   .     S
H670   O850    0.991   .     S
H671   O853    0.991   .     S
H672   O857    0.991   .     S
H673   O860    0.991   .     S
H674   O863    0.991   .     S
H675   O866    0.991   .     S
H676   O870    0.991   .     S
H677   O873    0.991   .     S
H678   O876    0.991   .     S
H679   O880    0.991   .     S
H681   O883    0.991   .     S
H682   O886    0.991   .     S
H683   O759    0.991   .     S
O757   Zn908   1.944   .     S
O757   Zn905   1.948   .     S
O757   Zn1832  1.944   1_545 S
O757   Zn916   1.947   .     S
O758   Zn907   1.948   .     S
O758   C1486   1.279   .     S
O759   S896    1.682   .     S
O769   Zn910   1.949   .     S
O780   Zn909   1.949   .     S
O791   Zn919   1.948   .     S
O795   Zn918   1.948   .     S
O796   Zn913   1.948   .     S
O796   C1491   1.281   1_545 S
O797   Zn905   1.948   .     S
O798   Zn915   1.948   .     S
O799   Zn914   1.948   .     S
O800   Zn917   1.949   .     S
O800   C1491   1.281   1_545 S
O801   Zn917   1.947   .     S
O801   Zn913   1.948   .     S
O801   Zn911   1.944   .     S
O801   Zn1827  1.944   1_545 S
O802   Zn916   1.949   .     S
O803   Zn908   1.932   .     S
O804   Zn907   1.932   .     S
O805   Zn910   1.936   .     S
O806   Zn909   1.936   .     S
O807   Zn912   1.932   .     S
O808   Zn911   1.932   .     S
O809   Zn906   1.935   .     S
O810   Zn920   1.935   .     S
O811   Zn907   1.937   .     S
O812   Zn918   1.944   .     S
O812   Zn914   1.944   .     S
O812   Zn906   1.948   .     S
O813   Zn908   1.937   .     S
O814   Zn920   1.930   .     S
O815   Zn906   1.930   .     S
O816   Zn911   1.938   .     S
O817   Zn912   1.938   .     S
O818   Zn909   1.930   .     S
O819   Zn910   1.930   .     S
O820   Zn455   1.932   1_655 S
O821   Zn914   1.932   .     S
O822   Zn1837  1.936   .     S
O823   Zn919   1.944   .     S
O823   Zn915   1.944   .     S
O823   Zn909   1.947   .     S
O824   Zn916   1.936   .     S
O825   Zn919   1.932   .     S
O826   Zn458   1.932   1_655 S
O827   Zn913   1.935   .     S
O828   Zn1825  1.935   .     S
O829   Zn454   1.937   1_655 S
O830   Zn915   1.937   .     S
O831   Zn905   1.930   .     S
O832   Zn1833  1.930   .     S
O833   Zn918   1.938   .     S
O834   Zn912   1.948   .     S
O835   Zn459   1.938   1_655 S
O836   Zn1836  1.930   .     S
O837   Zn917   1.930   .     S
O838   S889    1.504   .     D
O839   S889    1.503   .     D
O840   S889    1.682   .     S
O841   S897    1.503   .     D
O842   S897    1.503   .     D
O843   S897    1.684   .     S
O844   S898    1.503   .     D
O845   Zn911   1.948   .     S
O846   S898    1.503   .     D
O847   S898    1.683   .     S
O848   S899    1.503   .     D
O849   S899    1.503   .     D
O850   S899    1.683   .     S
O851   S900    1.503   .     D
O852   S900    1.503   .     D
O853   S900    1.683   .     S
O854   S901    1.503   .     D
O855   S901    1.503   .     D
O856   Zn906   1.948   .     S
O857   S901    1.682   .     S
O858   S902    1.504   .     D
O859   S902    1.503   .     D
O860   S902    1.684   .     S
O861   S903    1.504   .     D
O862   S903    1.503   .     D
O863   S903    1.682   .     S
O864   S1824   1.504   .     S
O865   S904    1.503   .     D
O866   S904    1.682   .     S
O867   Zn920   1.948   .     S
O867   C108    1.281   1_655 S
O868   S890    1.503   .     D
O869   S1810   1.503   1_545 S
O870   S1810   1.684   1_545 S
O871   S891    1.503   .     D
O872   S891    1.503   .     D
O873   S891    1.683   .     S
O874   S892    1.503   .     D
O875   S892    1.503   .     D
O876   S892    1.683   .     S
O877   S893    1.503   .     D
O878   Zn908   1.948   .     S
O878   C1485   1.279   1_545 S
O879   S893    1.503   .     D
O880   S893    1.683   .     S
O881   S894    1.503   .     D
O882   S894    1.503   .     D
O883   S894    1.682   .     S
O884   S895    1.504   .     D
O885   S895    1.503   .     D
O886   S435    1.684   1_655 S
O888   S896    1.503   .     D
S890   O1790   1.684   .     S
S890   O1789   1.503   .     S
S896   O427    1.504   1_655 S
S904   O1784   1.504   1_545 S
Zn905  O1748   1.935   1_545 S
Zn907  O1721   1.944   .     S
Zn910  O352    1.947   1_655 S
Zn912  O1677   1.944   .     S
Zn913  O1752   1.930   1_545 S
Zn916  O1756   1.930   1_545 S
Zn917  O1742   1.936   1_545 S
Zn920  O363    1.948   1_655 S
C921   C924    1.401   .     A
C921   H1089   1.080   .     S
C921   C1458   1.394   1_455 S
C922   C934    1.401   .     A
C922   C1004   1.394   .     A
C922   H1090   1.080   .     S
C923   C1067   1.401   .     A
C923   C1010   1.417   .     A
C923   C38     1.419   1_565 S
C924   C1011   1.417   .     A
C924   C1414   1.419   1_455 S
C925   C1001   1.401   .     A
C925   C1013   1.417   .     A
C925   C1416   1.419   .     S
C926   C1014   1.418   .     A
C926   C1012   1.400   .     A
C926   C957    1.419   .     A
C927   C1023   1.400   .     A
C927   C1015   1.418   .     A
C927   C958    1.419   .     A
C928   C955    1.400   .     A
C928   C1016   1.418   .     A
C929   C966    1.400   .     A
C929   C1017   1.417   .     A
C929   C40     1.419   1_565 S
C930   C961    1.419   .     A
C930   C1018   1.417   .     A
C930   C977    1.401   .     A
C931   C1019   1.417   .     A
C931   C988    1.401   .     A
C931   C962    1.419   .     A
C932   C1078   1.401   .     A
C932   C959    1.419   .     A
C932   C1020   1.417   .     A
C933   H1101   1.080   .     S
C933   C935    1.400   .     A
C933   C1465   1.393   1_455 S
C934   C1021   1.417   .     A
C934   C960    1.419   .     A
C935   C1022   1.418   .     A
C935   C1421   1.419   1_455 S
C936   C1024   1.418   .     A
C936   C944    1.400   .     A
C936   C1422   1.419   .     S
C937   C1068   1.409   .     A
C937   C1040   1.456   .     S
C937   C1070   1.407   .     A
C938   C1041   1.456   .     S
C938   C1069   1.407   .     A
C938   C1066   1.409   .     A
C939   C1033   1.451   .     S
C939   C1065   1.408   .     A
C939   C1072   1.407   .     A
C940   C1064   1.412   .     A
C940   C1071   1.411   .     A
C940   C1035   1.449   .     S
C941   C1036   1.456   .     S
C941   C1063   1.409   .     A
C941   C1074   1.407   .     A
C942   C1062   1.409   .     A
C942   C1073   1.407   .     A
C942   C1037   1.456   .     S
C943   C1038   1.449   .     S
C943   C1076   1.412   .     A
C943   C1061   1.411   .     A
C944   H1112   1.080   .     S
C944   C1466   1.393   .     S
C945   C1039   1.449   .     S
C945   C1060   1.411   .     A
C945   C1075   1.412   .     A
C946   C1059   1.410   .     A
C946   C1079   1.410   .     A
C946   C1049   1.452   .     S
C947   C1058   1.410   .     A
C947   C1077   1.410   .     A
C947   C1050   1.452   .     S
C948   C1057   1.407   .     A
C948   C1042   1.456   .     S
C948   C1081   1.409   .     A
C949   C1055   1.407   .     A
C949   C1080   1.409   .     A
C949   C1043   1.456   .     S
C950   C1054   1.407   .     A
C950   C1083   1.408   .     A
C950   C1044   1.451   .     S
C951   C1082   1.412   .     A
C951   C1053   1.411   .     A
C951   C1046   1.449   .     S
C952   C1047   1.456   .     S
C952   C1085   1.409   .     A
C952   C1052   1.407   .     A
C953   C1084   1.409   .     A
C953   C1051   1.407   .     A
C953   C1048   1.456   .     S
C954   C1086   1.419   .     A
C954   C1384   1.419   .     S
C954   C1416   1.400   .     S
C955   H1122   1.080   .     S
C956   C1087   1.419   .     A
C956   C1385   1.419   1_455 S
C956   C1414   1.400   1_455 S
C957   C38     1.400   1_565 S
C957   C168    1.419   1_565 S
C959   C8      1.419   1_565 S
C959   C40     1.400   1_566 S
C960   C39     1.400   1_554 S
C961   C1395   1.419   .     S
C961   C1422   1.400   1_556 S
C962   C1396   1.419   1_455 S
C962   C1421   1.400   1_454 S
C963   O1220   1.410   .     S
C963   H1146   1.113   .     S
C963   H1144   1.109   .     S
C963   H1145   1.113   .     S
C964   O1221   1.410   .     S
C964   H1147   1.113   .     S
C964   H1149   1.113   .     S
C964   H1148   1.109   .     S
C965   H1150   1.116   .     S
C965   H1153   1.109   .     S
C965   H1152   1.110   .     S
C965   O1222   1.415   .     S
C966   H1123   1.080   .     S
C966   C84     1.393   1_565 S
C967   H1155   1.113   .     S
C967   H1156   1.110   .     S
C967   H1154   1.109   .     S
C967   O1223   1.412   .     S
C968   H1159   1.113   .     S
C968   O1224   1.410   .     S
C968   H1158   1.109   .     S
C968   H1157   1.113   .     S
C969   H1161   1.113   .     S
C969   H1163   1.113   .     S
C969   O1225   1.410   .     S
C969   H1160   1.109   .     S
C970   H1166   1.109   .     S
C970   O1226   1.411   .     S
C970   H1164   1.114   .     S
C970   H1165   1.110   .     S
C971   H1167   1.110   .     S
C971   H1168   1.113   .     S
C971   H1169   1.109   .     S
C971   O1227   1.412   .     S
C972   O1228   1.415   .     S
C972   H1170   1.115   .     S
C972   H1172   1.109   .     S
C972   H1171   1.109   .     S
C973   H1174   1.109   .     S
C973   H1176   1.109   .     S
C973   O1230   1.415   .     S
C973   H1175   1.115   .     S
C974   O1231   1.412   .     S
C974   H1178   1.114   .     S
C974   H1179   1.111   .     S
C974   H1177   1.109   .     S
C975   H1180   1.114   .     S
C975   O1232   1.412   .     S
C975   H1182   1.111   .     S
C975   H1181   1.109   .     S
C976   H1186   1.109   .     S
C976   H1183   1.116   .     S
C976   O1233   1.415   .     S
C976   H1185   1.110   .     S
C977   H1124   1.080   .     S
C977   C1005   1.394   .     A
C978   O1234   1.412   .     S
C978   H1188   1.113   .     S
C978   H1189   1.110   .     S
C978   H1187   1.109   .     S
C979   O1235   1.412   .     S
C979   H1192   1.111   .     S
C979   H1190   1.114   .     S
C979   H1191   1.109   .     S
C980   O1236   1.412   .     S
C980   H1194   1.114   .     S
C980   H1196   1.111   .     S
C980   H1193   1.109   .     S
C981   H1198   1.113   .     S
C981   O1237   1.410   .     S
C981   H1197   1.109   .     S
C981   H1199   1.113   .     S
C982   H1201   1.109   .     S
C982   H1202   1.113   .     S
C982   O1238   1.410   .     S
C982   H1200   1.113   .     S
C983   H1205   1.109   .     S
C983   H1204   1.110   .     S
C983   O1239   1.415   .     S
C983   H1203   1.116   .     S
C984   O1241   1.412   .     S
C984   H1208   1.113   .     S
C984   H1207   1.109   .     S
C984   H1209   1.110   .     S
C985   H1210   1.113   .     S
C985   H1212   1.113   .     S
C985   O1242   1.410   .     S
C985   H1211   1.109   .     S
C986   H1214   1.113   .     S
C986   H1215   1.113   .     S
C986   H1213   1.109   .     S
C986   O1243   1.410   .     S
C987   H1216   1.115   .     S
C987   H1092   1.109   .     S
C987   H1091   1.109   .     S
C987   O1244   1.415   .     S
C988   C1006   1.393   .     A
C988   H1125   1.080   .     S
C989   O1245   1.415   .     S
C989   H1093   1.109   .     S
C989   H1095   1.109   .     S
C989   H1094   1.115   .     S
C990   H1097   1.110   .     S
C990   H1096   1.114   .     S
C990   O1246   1.411   .     S
C990   H1098   1.109   .     S
C991   H1100   1.114   .     S
C991   O1247   1.411   .     S
C991   H1099   1.110   .     S
C991   H1102   1.109   .     S
C992   H1104   1.114   .     S
C992   H1105   1.111   .     S
C992   O1248   1.412   .     S
C992   H1103   1.109   .     S
C993   H1106   1.114   .     S
C993   H1108   1.111   .     S
C993   H1107   1.109   .     S
C993   O1249   1.412   .     S
C994   O1250   1.415   .     S
C994   H1110   1.110   .     S
C994   H1111   1.109   .     S
C994   H1109   1.116   .     S
C995   O1252   1.412   .     S
C995   H1114   1.113   .     S
C995   H1115   1.109   .     S
C995   H1113   1.109   .     S
C996   O1253   1.412   .     S
C996   H1117   1.109   .     S
C996   H1116   1.114   .     S
C996   H1118   1.111   .     S
C997   O1254   1.412   .     S
C997   H1121   1.111   .     S
C997   H1120   1.114   .     S
C997   H1119   1.109   .     S
C998   C1034   1.393   .     A
C998   C1027   1.462   .     S
C998   C1381   1.394   .     S
C999   C1028   1.462   .     S
C999   C1045   1.393   .     A
C999   C1461   1.394   1_455 S
C1000  C1012   1.393   .     A
C1000  C1025   1.461   .     S
C1000  C136    1.394   1_565 S
C1001  H1129   1.080   .     S
C1001  C1459   1.394   .     S
C1002  C1026   1.461   .     S
C1002  C1023   1.393   .     A
C1003  C1031   1.462   .     S
C1003  C1078   1.394   .     A
C1003  C35     1.393   1_565 S
C1004  C1032   1.462   .     S
C1005  C1029   1.461   .     S
C1005  C1393   1.393   .     S
C1006  C1030   1.461   .     S
C1006  C1404   1.393   1_455 S
C1007  S1349   1.790   .     S
C1007  C1013   1.413   .     A
C1007  C1086   1.418   .     A
C1008  S1357   1.790   .     S
C1008  C1011   1.414   .     A
C1008  C1087   1.417   .     A
C1009  C1015   1.413   .     A
C1009  C1088   1.417   .     A
C1009  S1358   1.789   .     S
C1010  C1014   1.414   .     A
C1010  S1359   1.790   .     S
C1011  S1360   1.789   .     S
C1012  H1140   1.080   .     S
C1013  S1361   1.789   .     S
C1014  S1362   1.790   .     S
C1015  S1363   1.791   .     S
C1016  S1364   1.790   .     S
C1016  C1021   1.413   1_556 S
C1017  S1350   1.790   .     S
C1017  C1020   1.414   1_554 S
C1018  S1351   1.789   .     S
C1018  C1024   1.413   1_556 S
C1019  S1352   1.790   .     S
C1019  C1022   1.414   1_554 S
C1020  S1353   1.790   .     S
C1020  C1017   1.414   1_556 S
C1021  S1354   1.789   .     S
C1021  C1016   1.413   1_554 S
C1022  S1355   1.790   .     S
C1022  C1019   1.414   1_556 S
C1023  H1151   1.080   .     S
C1024  S1356   1.791   .     S
C1024  C1018   1.413   1_554 S
C1025  O1294   1.279   .     A
C1025  O418    1.279   1_565 S
C1026  O1305   1.278   .     A
C1027  O1229   1.281   .     A
C1027  O1776   1.281   .     S
C1028  O1240   1.281   .     A
C1028  O1787   1.281   1_455 S
C1029  O1718   1.279   .     A
C1029  O1711   1.279   .     A
C1030  O1259   1.279   .     A
C1030  O1255   1.278   .     S
C1031  O336    1.281   1_565 S
C1031  O340    1.281   1_565 S
C1032  O1257   1.281   .     A
C1032  O1262   1.281   .     A
C1033  O1263   1.280   .     A
C1033  O1291   1.279   .     A
C1034  H1162   1.080   .     S
C1034  C1086   1.400   .     A
C1035  O1264   1.279   .     A
C1035  O1292   1.279   .     A
C1036  O1289   1.277   .     A
C1036  O1265   1.281   .     A
C1037  O1290   1.277   .     A
C1037  O1266   1.281   .     A
C1038  O1267   1.279   .     A
C1038  O1296   1.278   .     A
C1039  O1268   1.279   .     A
C1039  O1297   1.278   .     A
C1040  O1293   1.277   .     A
C1040  O1269   1.282   .     A
C1041  O1295   1.277   .     A
C1041  O1270   1.282   .     A
C1042  O1271   1.277   .     A
C1042  O1282   1.281   .     A
C1043  O1273   1.277   .     A
C1043  O1284   1.281   .     A
C1044  O1274   1.279   .     A
C1044  O1280   1.280   .     A
C1045  C1087   1.400   .     A
C1045  H1173   1.080   .     S
C1046  O1275   1.279   .     A
C1046  O1281   1.279   .     A
C1047  O1276   1.277   .     A
C1047  O1287   1.282   .     A
C1048  O1277   1.277   .     A
C1048  O1288   1.282   .     A
C1049  O1285   1.279   .     A
C1049  O1278   1.279   .     A
C1050  O1286   1.279   .     A
C1050  O1279   1.279   .     A
C1051  C1068   1.398   .     A
C1051  O1220   1.384   .     S
C1052  C1066   1.398   .     A
C1052  O1221   1.384   .     S
C1053  O1222   1.386   .     S
C1053  C1065   1.396   .     A
C1054  O1223   1.385   .     S
C1054  C1064   1.396   .     A
C1055  O1224   1.384   .     S
C1055  C1063   1.399   .     A
C1056  H1184   1.080   .     S
C1056  C1088   1.401   .     A
C1057  C1062   1.399   .     A
C1057  O1225   1.384   .     S
C1058  C1061   1.393   .     A
C1058  O1226   1.386   .     S
C1059  C1060   1.393   .     A
C1059  O1227   1.386   .     S
C1060  O1228   1.386   .     S
C1061  O1230   1.386   .     S
C1062  O1231   1.385   .     S
C1063  O1232   1.385   .     S
C1064  O1233   1.387   .     S
C1065  O1234   1.385   .     S
C1066  O1235   1.385   .     S
C1067  H1195   1.080   .     S
C1067  C82     1.393   1_565 S
C1068  O1236   1.385   .     S
C1069  C1085   1.398   .     A
C1069  O1237   1.384   .     S
C1070  C1084   1.398   .     A
C1070  O1238   1.384   .     S
C1071  O1239   1.386   .     S
C1071  C1083   1.396   .     A
C1072  O1241   1.385   .     S
C1072  C1082   1.396   .     A
C1073  C1081   1.399   .     A
C1073  O1242   1.384   .     S
C1074  C1080   1.399   .     A
C1074  O1243   1.384   .     S
C1075  C1079   1.393   .     A
C1075  O1244   1.386   .     S
C1076  C1077   1.393   .     A
C1076  O1245   1.386   .     S
C1077  O1246   1.386   .     S
C1078  H1206   1.080   .     S
C1079  O1247   1.386   .     S
C1080  O1248   1.385   .     S
C1081  O1249   1.385   .     S
C1082  O1250   1.387   .     S
C1083  O1252   1.385   .     S
C1084  O1253   1.385   .     S
C1085  O1254   1.385   .     S
H1126  O1300   0.991   .     S
H1127  O1303   0.991   .     S
H1128  O1307   0.991   .     S
H1130  O1310   0.991   .     S
H1131  O1313   0.991   .     S
H1132  O1317   0.991   .     S
H1133  O1320   0.991   .     S
H1134  O1323   0.991   .     S
H1135  O1326   0.991   .     S
H1136  O1330   0.991   .     S
H1137  O1333   0.991   .     S
H1138  O1336   0.991   .     S
H1139  O1340   0.991   .     S
H1141  O1343   0.991   .     S
H1142  O1346   0.991   .     S
H1143  O1219   0.991   .     S
O1217  Zn1368  1.944   .     S
O1217  Zn1365  1.948   .     S
O1217  Zn1376  1.947   .     S
O1218  Zn1367  1.948   .     S
O1218  C106    1.279   1_565 S
O1219  S1356   1.682   .     S
O1229  Zn1370  1.949   .     S
O1240  Zn1369  1.949   .     S
O1251  C1489   1.279   1_455 A
O1251  Zn1379  1.948   .     S
O1255  Zn1378  1.948   .     S
O1256  Zn1373  1.948   .     S
O1257  Zn1365  1.948   .     S
O1258  C1489   1.279   1_455 A
O1258  Zn1375  1.948   .     S
O1259  Zn1374  1.948   .     S
O1260  Zn1377  1.949   .     S
O1261  Zn1377  1.947   .     S
O1261  Zn1373  1.948   .     S
O1261  Zn1371  1.944   .     S
O1262  Zn1376  1.949   .     S
O1263  Zn1368  1.932   .     S
O1264  Zn1367  1.932   .     S
O1265  Zn1370  1.936   .     S
O1266  Zn1369  1.936   .     S
O1267  Zn1372  1.932   .     S
O1268  Zn1371  1.932   .     S
O1269  Zn1366  1.935   .     S
O1270  Zn1380  1.935   .     S
O1271  Zn1367  1.937   .     S
O1272  Zn1378  1.944   .     S
O1272  Zn1374  1.944   .     S
O1272  Zn1830  1.947   1_455 S
O1272  Zn1366  1.948   .     S
O1273  Zn1368  1.937   .     S
O1274  Zn1380  1.930   .     S
O1275  Zn1366  1.930   .     S
O1276  Zn1371  1.938   .     S
O1277  Zn1372  1.938   .     S
O1278  Zn1369  1.930   .     S
O1279  Zn1370  1.930   .     S
O1280  Zn1835  1.932   .     S
O1281  Zn1374  1.932   .     S
O1282  Zn457   1.936   1_565 S
O1283  Zn1840  1.948   1_455 S
O1283  Zn1379  1.944   .     S
O1283  Zn1375  1.944   .     S
O1283  Zn1369  1.947   .     S
O1284  Zn1376  1.936   .     S
O1285  Zn1379  1.932   .     S
O1286  Zn1838  1.932   .     S
O1287  Zn1373  1.935   .     S
O1288  Zn445   1.935   1_565 S
O1289  Zn1834  1.937   .     S
O1290  Zn1375  1.937   .     S
O1291  Zn1365  1.930   .     S
O1292  Zn453   1.930   1_565 S
O1293  Zn1378  1.938   .     S
O1294  Zn1372  1.948   .     S
O1295  Zn1839  1.938   .     S
O1296  Zn456   1.930   1_565 S
O1297  Zn1377  1.930   .     S
O1298  S1349   1.504   .     D
O1299  S1349   1.503   .     D
O1300  S1349   1.682   .     S
O1301  S1357   1.503   .     D
O1302  S1357   1.503   .     D
O1303  S1357   1.684   .     S
O1304  S1358   1.503   .     D
O1305  Zn1371  1.948   .     S
O1306  S1358   1.503   .     D
O1307  S1358   1.683   .     S
O1308  S1359   1.503   .     D
O1309  S1359   1.503   .     D
O1310  S1359   1.683   .     S
O1311  S1360   1.503   .     D
O1312  S1360   1.503   .     D
O1313  S1360   1.683   .     S
O1314  S1361   1.503   .     D
O1315  S1361   1.503   .     D
O1316  Zn1366  1.948   .     S
O1316  C1487   1.281   1_455 S
O1317  S1361   1.682   .     S
O1318  S1362   1.504   .     D
O1319  S1362   1.503   .     D
O1320  S1362   1.684   .     S
O1321  S1363   1.504   .     D
O1322  S1363   1.503   .     D
O1323  S1363   1.682   .     S
O1324  S444    1.504   1_565 S
O1325  S1364   1.503   .     D
O1326  S1364   1.682   .     S
O1327  Zn1380  1.948   .     S
O1327  C1488   1.281   .     S
O1328  S1350   1.503   .     D
O1331  S1351   1.503   .     D
O1332  S1351   1.503   .     D
O1333  S1351   1.683   .     S
O1334  S1352   1.503   .     D
O1335  S1352   1.503   .     D
O1336  S1352   1.683   .     S
O1337  S1353   1.503   .     D
O1338  Zn1368  1.948   .     S
O1339  S1353   1.503   .     D
O1340  S1353   1.683   .     S
O1341  S1354   1.503   .     D
O1342  S1354   1.503   .     D
O1343  S1354   1.682   .     S
O1344  S1355   1.504   .     D
O1345  S1355   1.503   .     D
O1346  S1815   1.684   .     S
O1347  S1816   1.504   1_455 S
O1348  S1356   1.503   .     D
S1350  O410    1.684   1_565 S
S1350  O409    1.503   1_565 S
S1355  O1806   1.684   1_455 S
S1356  O1807   1.504   .     S
Zn1367 O341    1.944   1_565 S
Zn1370 O1732   1.947   .     S
Zn1372 O297    1.944   1_565 S
Zn1374 O1749   1.937   1_455 S
Zn1375 O1740   1.932   1_455 S
Zn1378 O1746   1.932   1_455 S
Zn1379 O1755   1.938   1_455 S
Zn1380 O1743   1.948   .     S
C1381  C1384   1.401   .     A
C1381  H1549   1.080   .     S
C1382  C1394   1.401   .     A
C1382  C1464   1.394   .     A
C1382  H1550   1.080   .     S
C1383  C1527   1.401   .     A
C1383  C1470   1.417   .     A
C1383  C498    1.419   1_565 S
C1384  C1471   1.417   .     A
C1385  C1461   1.401   .     A
C1385  C1473   1.417   .     A
C1385  C956    1.419   1_655 S
C1386  C1474   1.418   .     A
C1386  C1472   1.400   .     A
C1386  C1417   1.419   .     A
C1387  C1483   1.400   .     A
C1387  C1475   1.418   .     A
C1387  C1418   1.419   .     A
C1388  C1415   1.400   .     A
C1388  C1476   1.418   .     A
C1389  C1426   1.400   .     A
C1389  C1477   1.417   .     A
C1389  C500    1.419   1_565 S
C1390  C1421   1.419   .     A
C1390  C1478   1.417   .     A
C1390  C1437   1.401   .     A
C1391  C1479   1.417   .     A
C1391  C1448   1.401   .     A
C1391  C1422   1.419   .     A
C1392  C1538   1.401   .     A
C1392  C1419   1.419   .     A
C1392  C1480   1.417   .     A
C1393  H1561   1.080   .     S
C1393  C1395   1.400   .     A
C1394  C1481   1.417   .     A
C1394  C1420   1.419   .     A
C1395  C1482   1.418   .     A
C1396  C1484   1.418   .     A
C1396  C1404   1.400   .     A
C1396  C962    1.419   1_655 S
C1397  C1528   1.409   .     A
C1397  C1500   1.456   .     S
C1397  C1530   1.407   .     A
C1398  C1501   1.456   .     S
C1398  C1529   1.407   .     A
C1398  C1526   1.409   .     A
C1399  C1493   1.451   .     S
C1399  C1525   1.408   .     A
C1399  C1532   1.407   .     A
C1400  C1524   1.412   .     A
C1400  C1531   1.411   .     A
C1400  C1495   1.449   .     S
C1401  C1496   1.456   .     S
C1401  C1523   1.409   .     A
C1401  C1534   1.407   .     A
C1402  C1522   1.409   .     A
C1402  C1533   1.407   .     A
C1402  C1497   1.456   .     S
C1403  C1498   1.449   .     S
C1403  C1536   1.412   .     A
C1403  C1521   1.411   .     A
C1404  H1572   1.080   .     S
C1404  C1006   1.393   1_655 S
C1405  C1499   1.449   .     S
C1405  C1520   1.411   .     A
C1405  C1535   1.412   .     A
C1406  C1519   1.410   .     A
C1406  C1539   1.410   .     A
C1406  C1509   1.452   .     S
C1407  C1518   1.410   .     A
C1407  C1537   1.410   .     A
C1407  C1510   1.452   .     S
C1408  C1517   1.407   .     A
C1408  C1502   1.456   .     S
C1408  C1541   1.409   .     A
C1409  C1515   1.407   .     A
C1409  C1540   1.409   .     A
C1409  C1503   1.456   .     S
C1410  C1514   1.407   .     A
C1410  C1543   1.408   .     A
C1410  C1504   1.451   .     S
C1411  C1542   1.412   .     A
C1411  C1513   1.411   .     A
C1411  C1506   1.449   .     S
C1412  C1507   1.456   .     S
C1412  C1545   1.409   .     A
C1412  C1512   1.407   .     A
C1413  C1544   1.409   .     A
C1413  C1511   1.407   .     A
C1413  C1508   1.456   .     S
C1414  C1546   1.419   .     A
C1414  C924    1.419   1_655 S
C1414  C956    1.400   1_655 S
C1415  H1582   1.080   .     S
C1416  C1547   1.419   .     A
C1417  C498    1.400   1_565 S
C1417  C628    1.419   1_565 S
C1419  C468    1.419   1_565 S
C1419  C500    1.400   1_566 S
C1420  C499    1.400   1_554 S
C1421  C935    1.419   1_655 S
C1421  C962    1.400   1_656 S
C1422  C961    1.400   1_554 S
C1423  O1680   1.410   .     S
C1423  H1606   1.113   .     S
C1423  H1604   1.109   .     S
C1423  H1605   1.113   .     S
C1424  O1681   1.410   .     S
C1424  H1607   1.113   .     S
C1424  H1609   1.113   .     S
C1424  H1608   1.109   .     S
C1425  H1610   1.116   .     S
C1425  H1613   1.109   .     S
C1425  H1612   1.110   .     S
C1425  O1682   1.415   .     S
C1426  H1583   1.080   .     S
C1426  C544    1.393   1_565 S
C1427  H1615   1.113   .     S
C1427  H1616   1.110   .     S
C1427  H1614   1.109   .     S
C1427  O1683   1.412   .     S
C1428  H1619   1.113   .     S
C1428  O1684   1.410   .     S
C1428  H1618   1.109   .     S
C1428  H1617   1.113   .     S
C1429  H1621   1.113   .     S
C1429  H1623   1.113   .     S
C1429  O1685   1.410   .     S
C1429  H1620   1.109   .     S
C1430  H1626   1.109   .     S
C1430  O1686   1.411   .     S
C1430  H1624   1.114   .     S
C1430  H1625   1.110   .     S
C1431  H1627   1.110   .     S
C1431  H1628   1.113   .     S
C1431  H1629   1.109   .     S
C1431  O1687   1.412   .     S
C1432  O1688   1.415   .     S
C1432  H1630   1.115   .     S
C1432  H1632   1.109   .     S
C1432  H1631   1.109   .     S
C1433  H1634   1.109   .     S
C1433  H1636   1.109   .     S
C1433  O1690   1.415   .     S
C1433  H1635   1.115   .     S
C1434  O1691   1.412   .     S
C1434  H1638   1.114   .     S
C1434  H1639   1.111   .     S
C1434  H1637   1.109   .     S
C1435  H1640   1.114   .     S
C1435  O1692   1.412   .     S
C1435  H1642   1.111   .     S
C1435  H1641   1.109   .     S
C1436  H1646   1.109   .     S
C1436  H1643   1.116   .     S
C1436  O1693   1.415   .     S
C1436  H1645   1.110   .     S
C1437  H1584   1.080   .     S
C1437  C1465   1.394   .     A
C1438  O1694   1.412   .     S
C1438  H1648   1.113   .     S
C1438  H1649   1.110   .     S
C1438  H1647   1.109   .     S
C1439  O1695   1.412   .     S
C1439  H1652   1.111   .     S
C1439  H1650   1.114   .     S
C1439  H1651   1.109   .     S
C1440  O1696   1.412   .     S
C1440  H1654   1.114   .     S
C1440  H1656   1.111   .     S
C1440  H1653   1.109   .     S
C1441  H1658   1.113   .     S
C1441  O1697   1.410   .     S
C1441  H1657   1.109   .     S
C1441  H1659   1.113   .     S
C1442  H1661   1.109   .     S
C1442  H1662   1.113   .     S
C1442  O1698   1.410   .     S
C1442  H1660   1.113   .     S
C1443  H1665   1.109   .     S
C1443  H1664   1.110   .     S
C1443  O1699   1.415   .     S
C1443  H1663   1.116   .     S
C1444  O1701   1.412   .     S
C1444  H1668   1.113   .     S
C1444  H1667   1.109   .     S
C1444  H1669   1.110   .     S
C1445  H1670   1.113   .     S
C1445  H1672   1.113   .     S
C1445  O1702   1.410   .     S
C1445  H1671   1.109   .     S
C1446  H1674   1.113   .     S
C1446  H1675   1.113   .     S
C1446  H1673   1.109   .     S
C1446  O1703   1.410   .     S
C1447  H1676   1.115   .     S
C1447  H1552   1.109   .     S
C1447  H1551   1.109   .     S
C1447  O1704   1.415   .     S
C1448  C1466   1.393   .     A
C1448  H1585   1.080   .     S
C1449  O1705   1.415   .     S
C1449  H1553   1.109   .     S
C1449  H1555   1.109   .     S
C1449  H1554   1.115   .     S
C1450  H1557   1.110   .     S
C1450  H1556   1.114   .     S
C1450  O1706   1.411   .     S
C1450  H1558   1.109   .     S
C1451  H1560   1.114   .     S
C1451  O1707   1.411   .     S
C1451  H1559   1.110   .     S
C1451  H1562   1.109   .     S
C1452  H1564   1.114   .     S
C1452  H1565   1.111   .     S
C1452  O1708   1.412   .     S
C1452  H1563   1.109   .     S
C1453  H1566   1.114   .     S
C1453  H1568   1.111   .     S
C1453  H1567   1.109   .     S
C1453  O1709   1.412   .     S
C1454  O1710   1.415   .     S
C1454  H1570   1.110   .     S
C1454  H1571   1.109   .     S
C1454  H1569   1.116   .     S
C1455  O1712   1.412   .     S
C1455  H1574   1.113   .     S
C1455  H1575   1.109   .     S
C1455  H1573   1.109   .     S
C1456  O1713   1.412   .     S
C1456  H1577   1.109   .     S
C1456  H1576   1.114   .     S
C1456  H1578   1.111   .     S
C1457  O1714   1.412   .     S
C1457  H1581   1.111   .     S
C1457  H1580   1.114   .     S
C1457  H1579   1.109   .     S
C1458  C1494   1.393   .     A
C1458  C1487   1.462   .     S
C1458  C921    1.394   1_655 S
C1459  C1488   1.462   .     S
C1459  C1505   1.393   .     A
C1460  C1472   1.393   .     A
C1460  C1485   1.461   .     S
C1460  C596    1.394   1_565 S
C1461  H1589   1.080   .     S
C1461  C999    1.394   1_655 S
C1462  C1486   1.461   .     S
C1462  C1483   1.393   .     A
C1463  C1491   1.462   .     S
C1463  C1538   1.394   .     A
C1463  C495    1.393   1_565 S
C1464  C1492   1.462   .     S
C1465  C1489   1.461   .     S
C1465  C933    1.393   1_655 S
C1466  C1490   1.461   .     S
C1467  S1809   1.790   .     S
C1467  C1473   1.413   .     A
C1467  C1546   1.418   .     A
C1468  S1817   1.790   .     S
C1468  C1471   1.414   .     A
C1468  C1547   1.417   .     A
C1469  C1475   1.413   .     A
C1469  C1548   1.417   .     A
C1469  S1818   1.789   .     S
C1470  C1474   1.414   .     A
C1470  S1819   1.790   .     S
C1471  S1820   1.789   .     S
C1472  H1600   1.080   .     S
C1473  S1821   1.789   .     S
C1474  S1822   1.790   .     S
C1475  S1823   1.791   .     S
C1476  S1824   1.790   .     S
C1476  C1481   1.413   1_556 S
C1477  S1810   1.790   .     S
C1477  C1480   1.414   1_554 S
C1478  S1811   1.789   .     S
C1478  C1484   1.413   1_556 S
C1479  S1812   1.790   .     S
C1479  C1482   1.414   1_554 S
C1480  S1813   1.790   .     S
C1480  C1477   1.414   1_556 S
C1481  S1814   1.789   .     S
C1481  C1476   1.413   1_554 S
C1482  S1815   1.790   .     S
C1482  C1479   1.414   1_556 S
C1483  H1611   1.080   .     S
C1484  S1816   1.791   .     S
C1484  C1478   1.413   1_554 S
C1485  O1754   1.279   .     A
C1485  O878    1.279   1_565 S
C1486  O1765   1.278   .     A
C1487  O1689   1.281   .     A
C1487  O1316   1.281   1_655 S
C1488  O1700   1.281   .     A
C1489  O1258   1.279   1_655 A
C1489  O1251   1.279   1_655 A
C1490  O1719   1.279   .     A
C1490  O1715   1.278   .     S
C1491  O796    1.281   1_565 S
C1491  O800    1.281   1_565 S
C1492  O1717   1.281   .     A
C1492  O1722   1.281   .     A
C1493  O1723   1.280   .     A
C1493  O1751   1.279   .     A
C1494  H1622   1.080   .     S
C1494  C1546   1.400   .     A
C1495  O1724   1.279   .     A
C1495  O1752   1.279   .     A
C1496  O1749   1.277   .     A
C1496  O1725   1.281   .     A
C1497  O1750   1.277   .     A
C1497  O1726   1.281   .     A
C1498  O1727   1.279   .     A
C1498  O1756   1.278   .     A
C1499  O1728   1.279   .     A
C1499  O1757   1.278   .     A
C1500  O1753   1.277   .     A
C1500  O1729   1.282   .     A
C1501  O1755   1.277   .     A
C1501  O1730   1.282   .     A
C1502  O1731   1.277   .     A
C1502  O1742   1.281   .     A
C1503  O1733   1.277   .     A
C1503  O1744   1.281   .     A
C1504  O1734   1.279   .     A
C1504  O1740   1.280   .     A
C1505  C1547   1.400   .     A
C1505  H1633   1.080   .     S
C1506  O1735   1.279   .     A
C1506  O1741   1.279   .     A
C1507  O1736   1.277   .     A
C1507  O1747   1.282   .     A
C1508  O1737   1.277   .     A
C1508  O1748   1.282   .     A
C1509  O1745   1.279   .     A
C1509  O1738   1.279   .     A
C1510  O1746   1.279   .     A
C1510  O1739   1.279   .     A
C1511  C1528   1.398   .     A
C1511  O1680   1.384   .     S
C1512  C1526   1.398   .     A
C1512  O1681   1.384   .     S
C1513  O1682   1.386   .     S
C1513  C1525   1.396   .     A
C1514  O1683   1.385   .     S
C1514  C1524   1.396   .     A
C1515  O1684   1.384   .     S
C1515  C1523   1.399   .     A
C1516  H1644   1.080   .     S
C1516  C1548   1.401   .     A
C1517  C1522   1.399   .     A
C1517  O1685   1.384   .     S
C1518  C1521   1.393   .     A
C1518  O1686   1.386   .     S
C1519  C1520   1.393   .     A
C1519  O1687   1.386   .     S
C1520  O1688   1.386   .     S
C1521  O1690   1.386   .     S
C1522  O1691   1.385   .     S
C1523  O1692   1.385   .     S
C1524  O1693   1.387   .     S
C1525  O1694   1.385   .     S
C1526  O1695   1.385   .     S
C1527  H1655   1.080   .     S
C1527  C542    1.393   1_565 S
C1528  O1696   1.385   .     S
C1529  C1545   1.398   .     A
C1529  O1697   1.384   .     S
C1530  C1544   1.398   .     A
C1530  O1698   1.384   .     S
C1531  O1699   1.386   .     S
C1531  C1543   1.396   .     A
C1532  O1701   1.385   .     S
C1532  C1542   1.396   .     A
C1533  C1541   1.399   .     A
C1533  O1702   1.384   .     S
C1534  C1540   1.399   .     A
C1534  O1703   1.384   .     S
C1535  C1539   1.393   .     A
C1535  O1704   1.386   .     S
C1536  C1537   1.393   .     A
C1536  O1705   1.386   .     S
C1537  O1706   1.386   .     S
C1538  H1666   1.080   .     S
C1539  O1707   1.386   .     S
C1540  O1708   1.385   .     S
C1541  O1709   1.385   .     S
C1542  O1710   1.387   .     S
C1543  O1712   1.385   .     S
C1544  O1713   1.385   .     S
C1545  O1714   1.385   .     S
H1586  O1760   0.991   .     S
H1587  O1763   0.991   .     S
H1588  O1767   0.991   .     S
H1590  O1770   0.991   .     S
H1591  O1773   0.991   .     S
H1592  O1777   0.991   .     S
H1593  O1780   0.991   .     S
H1594  O1783   0.991   .     S
H1595  O1786   0.991   .     S
H1596  O1790   0.991   .     S
H1597  O1793   0.991   .     S
H1598  O1796   0.991   .     S
H1599  O1800   0.991   .     S
H1601  O1803   0.991   .     S
H1602  O1806   0.991   .     S
H1603  O1679   0.991   .     S
O1677  Zn1828  1.944   .     S
O1677  Zn1825  1.948   .     S
O1677  Zn1836  1.947   .     S
O1678  Zn1827  1.948   .     S
O1678  C566    1.279   1_565 S
O1679  S1816   1.682   .     S
O1689  Zn1830  1.949   .     S
O1700  Zn1829  1.949   .     S
O1711  Zn1839  1.948   .     S
O1715  Zn1838  1.948   .     S
O1716  Zn1833  1.948   .     S
O1717  Zn1825  1.948   .     S
O1718  Zn1835  1.948   .     S
O1719  Zn1834  1.948   .     S
O1720  Zn1837  1.949   .     S
O1721  Zn1837  1.947   .     S
O1721  Zn1833  1.948   .     S
O1721  Zn1831  1.944   .     S
O1722  Zn1836  1.949   .     S
O1723  Zn1828  1.932   .     S
O1724  Zn1827  1.932   .     S
O1725  Zn1830  1.936   .     S
O1726  Zn1829  1.936   .     S
O1727  Zn1832  1.932   .     S
O1728  Zn1831  1.932   .     S
O1729  Zn1826  1.935   .     S
O1730  Zn1840  1.935   .     S
O1731  Zn1827  1.937   .     S
O1732  Zn1838  1.944   .     S
O1732  Zn1834  1.944   .     S
O1732  Zn1826  1.948   .     S
O1733  Zn1828  1.937   .     S
O1734  Zn1840  1.930   .     S
O1735  Zn1826  1.930   .     S
O1736  Zn1831  1.938   .     S
O1737  Zn1832  1.938   .     S
O1738  Zn1829  1.930   .     S
O1739  Zn1830  1.930   .     S
O1740  Zn1375  1.932   1_655 S
O1741  Zn1834  1.932   .     S
O1742  Zn917   1.936   1_565 S
O1743  Zn1839  1.944   .     S
O1743  Zn1835  1.944   .     S
O1743  Zn1829  1.947   .     S
O1744  Zn1836  1.936   .     S
O1745  Zn1839  1.932   .     S
O1746  Zn1378  1.932   1_655 S
O1747  Zn1833  1.935   .     S
O1748  Zn905   1.935   1_565 S
O1749  Zn1374  1.937   1_655 S
O1750  Zn1835  1.937   .     S
O1751  Zn1825  1.930   .     S
O1752  Zn913   1.930   1_565 S
O1753  Zn1838  1.938   .     S
O1754  Zn1832  1.948   .     S
O1755  Zn1379  1.938   1_655 S
O1756  Zn916   1.930   1_565 S
O1757  Zn1837  1.930   .     S
O1758  S1809   1.504   .     D
O1759  S1809   1.503   .     D
O1760  S1809   1.682   .     S
O1761  S1817   1.503   .     D
O1762  S1817   1.503   .     D
O1763  S1817   1.684   .     S
O1764  S1818   1.503   .     D
O1765  Zn1831  1.948   .     S
O1766  S1818   1.503   .     D
O1767  S1818   1.683   .     S
O1768  S1819   1.503   .     D
O1769  S1819   1.503   .     D
O1770  S1819   1.683   .     S
O1771  S1820   1.503   .     D
O1772  S1820   1.503   .     D
O1773  S1820   1.683   .     S
O1774  S1821   1.503   .     D
O1775  S1821   1.503   .     D
O1776  Zn1826  1.948   .     S
O1777  S1821   1.682   .     S
O1778  S1822   1.504   .     D
O1779  S1822   1.503   .     D
O1780  S1822   1.684   .     S
O1781  S1823   1.504   .     D
O1782  S1823   1.503   .     D
O1783  S1823   1.682   .     S
O1784  S904    1.504   1_565 S
O1785  S1824   1.503   .     D
O1786  S1824   1.682   .     S
O1787  Zn1840  1.948   .     S
O1787  C1028   1.281   1_655 S
O1788  S1810   1.503   .     D
O1791  S1811   1.503   .     D
O1792  S1811   1.503   .     D
O1793  S1811   1.683   .     S
O1794  S1812   1.503   .     D
O1795  S1812   1.503   .     D
O1796  S1812   1.683   .     S
O1797  S1813   1.503   .     D
O1798  Zn1828  1.948   .     S
O1799  S1813   1.503   .     D
O1800  S1813   1.683   .     S
O1801  S1814   1.503   .     D
O1802  S1814   1.503   .     D
O1803  S1814   1.682   .     S
O1804  S1815   1.504   .     D
O1805  S1815   1.503   .     D
O1806  S1355   1.684   1_655 S
O1808  S1816   1.503   .     D
S1810  O870    1.684   1_565 S
S1810  O869    1.503   1_565 S
S1816  O1347   1.504   1_655 S
Zn1827 O801    1.944   1_565 S
Zn1830 O1272   1.947   1_655 S
Zn1832 O757    1.944   1_565 S
Zn1840 O1283   1.948   1_655 S
