data_str_m3_o1_o10_pcu_sym.222
_audit_creation_date              2020-01-03
_audit_creation_method            'Materials Studio'
_symmetry_space_group_name_H-M    'P1'
_symmetry_Int_Tables_number       1
_symmetry_cell_setting            triclinic
loop_
_symmetry_equiv_pos_as_xyz
  x,y,z
_cell_length_a                    25.9225
_cell_length_b                    32.0067
_cell_length_c                    30.0588
_cell_angle_alpha                 90.8895
_cell_angle_beta                  97.2194
_cell_angle_gamma                 94.0254
loop_
_atom_site_label
_atom_site_type_symbol
_atom_site_fract_x
_atom_site_fract_y
_atom_site_fract_z
_atom_site_U_iso_or_equiv
_atom_site_adp_type
_atom_site_occupancy
C1     C     0.17178   0.08695   0.16691   0.00000  Uiso   1.00
C2     C     0.16022   0.24610   0.16632   0.00000  Uiso   1.00
C3     C     0.06747   0.16521   0.15550   0.00000  Uiso   1.00
C4     C     0.26590   0.16833   0.17788   0.00000  Uiso   1.00
C5     C     0.01293   0.15607   0.15254   0.00000  Uiso   1.00
C6     C     0.32054   0.17736   0.18110   0.00000  Uiso   1.00
C7     C     0.17521   0.01953   0.12633   0.00000  Uiso   1.00
C8     C     0.15571   0.31356   0.20668   0.00000  Uiso   1.00
C9     C     0.15502   0.31130   0.12533   0.00000  Uiso   1.00
C10    C     0.17608   0.02142   0.20758   0.00000  Uiso   1.00
C11    C     0.15219   0.29058   0.16593   0.00000  Uiso   1.00
C12    C     0.17788   0.04217   0.16717   0.00000  Uiso   1.00
C13    C     0.20013   0.19410   0.02781   0.00000  Uiso   1.00
C14    C     0.13325   0.13917   0.30563   0.00000  Uiso   1.00
C15    C     0.19818   0.19519   0.31329   0.00000  Uiso   1.00
C16    C     0.13491   0.13835   0.02013   0.00000  Uiso   1.00
N17    N     0.16665   0.16666   0.28573   0.00000  Uiso   1.00
N18    N     0.16668   0.16668   0.04760   0.00000  Uiso   1.00
O19    O     0.16666   0.10558   0.20487   0.00000  Uiso   1.00
O20    O     0.16667   0.22775   0.12846   0.00000  Uiso   1.00
O21    O     0.16666   0.10559   0.12843   0.00000  Uiso   1.00
O22    O     0.16667   0.22774   0.20490   0.00000  Uiso   1.00
O23    O     0.09058   0.16666   0.19595   0.00000  Uiso   1.00
O24    O     0.24275   0.16667   0.13739   0.00000  Uiso   1.00
O25    O     0.09058   0.16667   0.11950   0.00000  Uiso   1.00
O26    O     0.24275   0.16666   0.21383   0.00000  Uiso   1.00
Zn27   Zn    0.16667   0.16666   0.21771   0.00000  Uiso   1.00
Zn28   Zn    0.16667   0.16667   0.11563   0.00000  Uiso   1.00
C29    C     0.32576   0.11398   0.13013   0.00000  Uiso   1.00
C30    C     0.30786   0.11775   0.08000   0.00000  Uiso   1.00
H31    H     0.00296   0.13804   0.06413   0.00000  Uiso   1.00
H32    H     0.30481   0.08632   0.06346   0.00000  Uiso   1.00
H33    H     0.26917   0.13059   0.07374   0.00000  Uiso   1.00
H34    H     0.02392   0.09193   0.13416   0.00000  Uiso   1.00
H35    H     0.29399   0.09879   0.14705   0.00000  Uiso   1.00
C36    C     0.00825   0.21876   0.20494   0.00000  Uiso   1.00
C37    C     0.02485   0.21345   0.25505   0.00000  Uiso   1.00
H38    H     0.32864   0.19336   0.26992   0.00000  Uiso   1.00
H39    H     0.06296   0.19968   0.26129   0.00000  Uiso   1.00
H40    H     0.02883   0.24435   0.27272   0.00000  Uiso   1.00
H41    H     0.04112   0.23399   0.18935   0.00000  Uiso   1.00
H42    H     0.31067   0.24133   0.20103   0.00000  Uiso   1.00
C43    C     0.21739   0.03176   0.09704   0.00000  Uiso   1.00
C44    C     0.20588   0.02044   0.04739   0.00000  Uiso   1.00
H45    H     0.20482   0.31972   0.04145   0.00000  Uiso   1.00
H46    H     0.16899   0.03254   0.03218   0.00000  Uiso   1.00
H47    H     0.23834   0.03448   0.03063   0.00000  Uiso   1.00
H48    H     0.22709   0.06578   0.09921   0.00000  Uiso   1.00
H49    H     0.25347   0.01704   0.11070   0.00000  Uiso   1.00
C50    C     0.12682   0.29913   0.24543   0.00000  Uiso   1.00
C51    C     0.07639   0.32136   0.24500   0.00000  Uiso   1.00
H52    H     0.08316   0.02206   0.24020   0.00000  Uiso   1.00
H53    H     0.04716   0.30870   0.21702   0.00000  Uiso   1.00
H54    H     0.06024   0.31664   0.27720   0.00000  Uiso   1.00
H55    H     0.11529   0.26532   0.24404   0.00000  Uiso   1.00
H56    H     0.15152   0.30552   0.27802   0.00000  Uiso   1.00
I57    I     0.10747   0.28613   0.06608   0.00000  Uiso   1.00
I58    I     0.21728   0.04778   0.26873   0.00000  Uiso   1.00
C59    C     0.23912   0.22448   0.05614   0.00000  Uiso   1.00
C60    C     0.29638   0.21808   0.05143   0.00000  Uiso   1.00
H61    H     0.30031   0.19420   0.02514   0.00000  Uiso   1.00
H62    H     0.31645   0.24805   0.04261   0.00000  Uiso   1.00
H63    H     0.31714   0.20855   0.08375   0.00000  Uiso   1.00
H64    H     0.23059   0.25669   0.04690   0.00000  Uiso   1.00
H65    H     0.23563   0.22325   0.09167   0.00000  Uiso   1.00
C66    C     0.09525   0.10785   0.27768   0.00000  Uiso   1.00
C67    C     0.03752   0.11327   0.28153   0.00000  Uiso   1.00
H68    H     0.01775   0.08279   0.28920   0.00000  Uiso   1.00
H69    H     0.03242   0.13647   0.30816   0.00000  Uiso   1.00
H70    H     0.01729   0.12332   0.24921   0.00000  Uiso   1.00
H71    H     0.09877   0.10889   0.24215   0.00000  Uiso   1.00
H72    H     0.10503   0.07604   0.28818   0.00000  Uiso   1.00
I73    I     0.24177   0.24499   0.28501   0.00000  Uiso   1.00
I74    I     0.09052   0.08943   0.04900   0.00000  Uiso   1.00
C75    C     0.50511   0.08695   0.16691   0.00000  Uiso   1.00
C76    C     0.49356   0.24610   0.16632   0.00000  Uiso   1.00
C77    C     0.40080   0.16521   0.15550   0.00000  Uiso   1.00
C78    C     0.59923   0.16833   0.17788   0.00000  Uiso   1.00
C79    C     0.34627   0.15607   0.15254   0.00000  Uiso   1.00
C80    C     0.65387   0.17736   0.18110   0.00000  Uiso   1.00
C81    C     0.50855   0.01953   0.12633   0.00000  Uiso   1.00
C82    C     0.48904   0.31356   0.20668   0.00000  Uiso   1.00
C83    C     0.48836   0.31130   0.12533   0.00000  Uiso   1.00
C84    C     0.50942   0.02142   0.20758   0.00000  Uiso   1.00
C85    C     0.48552   0.29058   0.16593   0.00000  Uiso   1.00
C86    C     0.51122   0.04217   0.16717   0.00000  Uiso   1.00
C87    C     0.53346   0.19410   0.02781   0.00000  Uiso   1.00
C88    C     0.46659   0.13917   0.30563   0.00000  Uiso   1.00
C89    C     0.53152   0.19519   0.31329   0.00000  Uiso   1.00
C90    C     0.46824   0.13835   0.02013   0.00000  Uiso   1.00
N91    N     0.49999   0.16666   0.28573   0.00000  Uiso   1.00
N92    N     0.50001   0.16668   0.04760   0.00000  Uiso   1.00
O93    O     0.50000   0.10558   0.20487   0.00000  Uiso   1.00
O94    O     0.50000   0.22775   0.12846   0.00000  Uiso   1.00
O95    O     0.50000   0.10559   0.12843   0.00000  Uiso   1.00
O96    O     0.50000   0.22774   0.20490   0.00000  Uiso   1.00
O97    O     0.42392   0.16666   0.19595   0.00000  Uiso   1.00
O98    O     0.57608   0.16667   0.13739   0.00000  Uiso   1.00
O99    O     0.42392   0.16667   0.11950   0.00000  Uiso   1.00
O100   O     0.57608   0.16666   0.21383   0.00000  Uiso   1.00
Zn101  Zn    0.50000   0.16666   0.21771   0.00000  Uiso   1.00
Zn102  Zn    0.50000   0.16667   0.11563   0.00000  Uiso   1.00
C103   C     0.65909   0.11398   0.13013   0.00000  Uiso   1.00
C104   C     0.64120   0.11775   0.08000   0.00000  Uiso   1.00
H105   H     0.33630   0.13804   0.06413   0.00000  Uiso   1.00
H106   H     0.63815   0.08632   0.06346   0.00000  Uiso   1.00
H107   H     0.60250   0.13059   0.07374   0.00000  Uiso   1.00
H108   H     0.35726   0.09193   0.13416   0.00000  Uiso   1.00
H109   H     0.62733   0.09879   0.14705   0.00000  Uiso   1.00
C110   C     0.34159   0.21876   0.20494   0.00000  Uiso   1.00
C111   C     0.35819   0.21345   0.25505   0.00000  Uiso   1.00
H112   H     0.66197   0.19336   0.26992   0.00000  Uiso   1.00
H113   H     0.39629   0.19968   0.26129   0.00000  Uiso   1.00
H114   H     0.36217   0.24435   0.27272   0.00000  Uiso   1.00
H115   H     0.37445   0.23399   0.18935   0.00000  Uiso   1.00
H116   H     0.64401   0.24133   0.20103   0.00000  Uiso   1.00
C117   C     0.55072   0.03176   0.09704   0.00000  Uiso   1.00
C118   C     0.53921   0.02044   0.04739   0.00000  Uiso   1.00
H119   H     0.53815   0.31972   0.04145   0.00000  Uiso   1.00
H120   H     0.50232   0.03254   0.03218   0.00000  Uiso   1.00
H121   H     0.57167   0.03448   0.03063   0.00000  Uiso   1.00
H122   H     0.56042   0.06578   0.09921   0.00000  Uiso   1.00
H123   H     0.58680   0.01704   0.11070   0.00000  Uiso   1.00
C124   C     0.46015   0.29913   0.24543   0.00000  Uiso   1.00
C125   C     0.40972   0.32136   0.24500   0.00000  Uiso   1.00
H126   H     0.41649   0.02206   0.24020   0.00000  Uiso   1.00
H127   H     0.38049   0.30870   0.21702   0.00000  Uiso   1.00
H128   H     0.39358   0.31664   0.27720   0.00000  Uiso   1.00
H129   H     0.44863   0.26532   0.24404   0.00000  Uiso   1.00
H130   H     0.48485   0.30552   0.27802   0.00000  Uiso   1.00
I131   I     0.44080   0.28613   0.06608   0.00000  Uiso   1.00
I132   I     0.55061   0.04778   0.26873   0.00000  Uiso   1.00
C133   C     0.57245   0.22448   0.05614   0.00000  Uiso   1.00
C134   C     0.62972   0.21808   0.05143   0.00000  Uiso   1.00
H135   H     0.63364   0.19420   0.02514   0.00000  Uiso   1.00
H136   H     0.64978   0.24805   0.04261   0.00000  Uiso   1.00
H137   H     0.65048   0.20855   0.08375   0.00000  Uiso   1.00
H138   H     0.56392   0.25669   0.04690   0.00000  Uiso   1.00
H139   H     0.56896   0.22325   0.09167   0.00000  Uiso   1.00
C140   C     0.42859   0.10785   0.27768   0.00000  Uiso   1.00
C141   C     0.37086   0.11327   0.28153   0.00000  Uiso   1.00
H142   H     0.35108   0.08279   0.28920   0.00000  Uiso   1.00
H143   H     0.36575   0.13647   0.30816   0.00000  Uiso   1.00
H144   H     0.35062   0.12332   0.24921   0.00000  Uiso   1.00
H145   H     0.43210   0.10889   0.24215   0.00000  Uiso   1.00
H146   H     0.43836   0.07604   0.28818   0.00000  Uiso   1.00
I147   I     0.57511   0.24499   0.28501   0.00000  Uiso   1.00
I148   I     0.42385   0.08943   0.04900   0.00000  Uiso   1.00
C149   C     0.83845   0.08695   0.16691   0.00000  Uiso   1.00
C150   C     0.82689   0.24610   0.16632   0.00000  Uiso   1.00
C151   C     0.73413   0.16521   0.15550   0.00000  Uiso   1.00
C152   C     0.93256   0.16833   0.17788   0.00000  Uiso   1.00
C153   C     0.67960   0.15607   0.15254   0.00000  Uiso   1.00
C154   C     0.98721   0.17736   0.18110   0.00000  Uiso   1.00
C155   C     0.84188   0.01953   0.12633   0.00000  Uiso   1.00
C156   C     0.82238   0.31356   0.20668   0.00000  Uiso   1.00
C157   C     0.82169   0.31130   0.12533   0.00000  Uiso   1.00
C158   C     0.84275   0.02142   0.20758   0.00000  Uiso   1.00
C159   C     0.81886   0.29058   0.16593   0.00000  Uiso   1.00
C160   C     0.84455   0.04217   0.16717   0.00000  Uiso   1.00
C161   C     0.86679   0.19410   0.02781   0.00000  Uiso   1.00
C162   C     0.79992   0.13917   0.30563   0.00000  Uiso   1.00
C163   C     0.86485   0.19519   0.31329   0.00000  Uiso   1.00
C164   C     0.80158   0.13835   0.02013   0.00000  Uiso   1.00
N165   N     0.83332   0.16666   0.28573   0.00000  Uiso   1.00
N166   N     0.83335   0.16668   0.04760   0.00000  Uiso   1.00
O167   O     0.83333   0.10558   0.20487   0.00000  Uiso   1.00
O168   O     0.83334   0.22775   0.12846   0.00000  Uiso   1.00
O169   O     0.83333   0.10559   0.12843   0.00000  Uiso   1.00
O170   O     0.83334   0.22774   0.20490   0.00000  Uiso   1.00
O171   O     0.75725   0.16666   0.19595   0.00000  Uiso   1.00
O172   O     0.90942   0.16667   0.13739   0.00000  Uiso   1.00
O173   O     0.75725   0.16667   0.11950   0.00000  Uiso   1.00
O174   O     0.90942   0.16666   0.21383   0.00000  Uiso   1.00
Zn175  Zn    0.83333   0.16666   0.21771   0.00000  Uiso   1.00
Zn176  Zn    0.83333   0.16667   0.11563   0.00000  Uiso   1.00
C177   C     0.99242   0.11398   0.13013   0.00000  Uiso   1.00
C178   C     0.97453   0.11775   0.08000   0.00000  Uiso   1.00
H179   H     0.66963   0.13804   0.06413   0.00000  Uiso   1.00
H180   H     0.97148   0.08632   0.06346   0.00000  Uiso   1.00
H181   H     0.93584   0.13059   0.07374   0.00000  Uiso   1.00
H182   H     0.69059   0.09193   0.13416   0.00000  Uiso   1.00
H183   H     0.96066   0.09879   0.14705   0.00000  Uiso   1.00
C184   C     0.67492   0.21876   0.20494   0.00000  Uiso   1.00
C185   C     0.69152   0.21345   0.25505   0.00000  Uiso   1.00
H186   H     0.99531   0.19336   0.26992   0.00000  Uiso   1.00
H187   H     0.72963   0.19968   0.26129   0.00000  Uiso   1.00
H188   H     0.69550   0.24435   0.27272   0.00000  Uiso   1.00
H189   H     0.70779   0.23399   0.18935   0.00000  Uiso   1.00
H190   H     0.97734   0.24133   0.20103   0.00000  Uiso   1.00
C191   C     0.88406   0.03176   0.09704   0.00000  Uiso   1.00
C192   C     0.87254   0.02044   0.04739   0.00000  Uiso   1.00
H193   H     0.87149   0.31972   0.04145   0.00000  Uiso   1.00
H194   H     0.83565   0.03254   0.03218   0.00000  Uiso   1.00
H195   H     0.90500   0.03448   0.03063   0.00000  Uiso   1.00
H196   H     0.89376   0.06578   0.09921   0.00000  Uiso   1.00
H197   H     0.92013   0.01704   0.11070   0.00000  Uiso   1.00
C198   C     0.79349   0.29913   0.24543   0.00000  Uiso   1.00
C199   C     0.74306   0.32136   0.24500   0.00000  Uiso   1.00
H200   H     0.74983   0.02206   0.24020   0.00000  Uiso   1.00
H201   H     0.71382   0.30870   0.21702   0.00000  Uiso   1.00
H202   H     0.72691   0.31664   0.27720   0.00000  Uiso   1.00
H203   H     0.78196   0.26532   0.24404   0.00000  Uiso   1.00
H204   H     0.81819   0.30552   0.27802   0.00000  Uiso   1.00
I205   I     0.77413   0.28613   0.06608   0.00000  Uiso   1.00
I206   I     0.88394   0.04778   0.26873   0.00000  Uiso   1.00
C207   C     0.90579   0.22448   0.05614   0.00000  Uiso   1.00
C208   C     0.96305   0.21808   0.05143   0.00000  Uiso   1.00
H209   H     0.96698   0.19420   0.02514   0.00000  Uiso   1.00
H210   H     0.98312   0.24805   0.04261   0.00000  Uiso   1.00
H211   H     0.98381   0.20855   0.08375   0.00000  Uiso   1.00
H212   H     0.89726   0.25669   0.04690   0.00000  Uiso   1.00
H213   H     0.90230   0.22325   0.09167   0.00000  Uiso   1.00
C214   C     0.76192   0.10785   0.27768   0.00000  Uiso   1.00
C215   C     0.70419   0.11327   0.28153   0.00000  Uiso   1.00
H216   H     0.68442   0.08279   0.28920   0.00000  Uiso   1.00
H217   H     0.69908   0.13647   0.30816   0.00000  Uiso   1.00
H218   H     0.68395   0.12332   0.24921   0.00000  Uiso   1.00
H219   H     0.76544   0.10889   0.24215   0.00000  Uiso   1.00
H220   H     0.77169   0.07604   0.28818   0.00000  Uiso   1.00
I221   I     0.90844   0.24499   0.28501   0.00000  Uiso   1.00
I222   I     0.75718   0.08943   0.04900   0.00000  Uiso   1.00
C223   C     0.17178   0.42028   0.16691   0.00000  Uiso   1.00
C224   C     0.16022   0.57943   0.16632   0.00000  Uiso   1.00
C225   C     0.06747   0.49854   0.15550   0.00000  Uiso   1.00
C226   C     0.26590   0.50167   0.17788   0.00000  Uiso   1.00
C227   C     0.01293   0.48940   0.15254   0.00000  Uiso   1.00
C228   C     0.32054   0.51070   0.18110   0.00000  Uiso   1.00
C229   C     0.17521   0.35287   0.12633   0.00000  Uiso   1.00
C230   C     0.15571   0.64689   0.20668   0.00000  Uiso   1.00
C231   C     0.15502   0.64463   0.12533   0.00000  Uiso   1.00
C232   C     0.17608   0.35476   0.20758   0.00000  Uiso   1.00
C233   C     0.15219   0.62391   0.16593   0.00000  Uiso   1.00
C234   C     0.17788   0.37550   0.16717   0.00000  Uiso   1.00
C235   C     0.20013   0.52743   0.02781   0.00000  Uiso   1.00
C236   C     0.13325   0.47251   0.30563   0.00000  Uiso   1.00
C237   C     0.19818   0.52852   0.31329   0.00000  Uiso   1.00
C238   C     0.13491   0.47168   0.02013   0.00000  Uiso   1.00
N239   N     0.16665   0.49999   0.28573   0.00000  Uiso   1.00
N240   N     0.16668   0.50001   0.04760   0.00000  Uiso   1.00
O241   O     0.16666   0.43892   0.20487   0.00000  Uiso   1.00
O242   O     0.16667   0.56108   0.12846   0.00000  Uiso   1.00
O243   O     0.16666   0.43893   0.12843   0.00000  Uiso   1.00
O244   O     0.16667   0.56107   0.20490   0.00000  Uiso   1.00
O245   O     0.09058   0.50000   0.19595   0.00000  Uiso   1.00
O246   O     0.24275   0.50000   0.13739   0.00000  Uiso   1.00
O247   O     0.09058   0.50000   0.11950   0.00000  Uiso   1.00
O248   O     0.24275   0.50000   0.21383   0.00000  Uiso   1.00
Zn249  Zn    0.16667   0.49999   0.21771   0.00000  Uiso   1.00
Zn250  Zn    0.16667   0.50001   0.11563   0.00000  Uiso   1.00
C251   C     0.32576   0.44732   0.13013   0.00000  Uiso   1.00
C252   C     0.30786   0.45108   0.08000   0.00000  Uiso   1.00
H253   H     0.00296   0.47138   0.06413   0.00000  Uiso   1.00
H254   H     0.30481   0.41965   0.06346   0.00000  Uiso   1.00
H255   H     0.26917   0.46393   0.07374   0.00000  Uiso   1.00
H256   H     0.02392   0.42526   0.13416   0.00000  Uiso   1.00
H257   H     0.29399   0.43212   0.14705   0.00000  Uiso   1.00
C258   C     0.00825   0.55210   0.20494   0.00000  Uiso   1.00
C259   C     0.02485   0.54679   0.25505   0.00000  Uiso   1.00
H260   H     0.32864   0.52670   0.26992   0.00000  Uiso   1.00
H261   H     0.06296   0.53301   0.26129   0.00000  Uiso   1.00
H262   H     0.02883   0.57768   0.27272   0.00000  Uiso   1.00
H263   H     0.04112   0.56733   0.18935   0.00000  Uiso   1.00
H264   H     0.31067   0.57466   0.20103   0.00000  Uiso   1.00
C265   C     0.21739   0.36510   0.09704   0.00000  Uiso   1.00
C266   C     0.20588   0.35377   0.04739   0.00000  Uiso   1.00
H267   H     0.20482   0.65305   0.04145   0.00000  Uiso   1.00
H268   H     0.16899   0.36587   0.03218   0.00000  Uiso   1.00
H269   H     0.23834   0.36781   0.03063   0.00000  Uiso   1.00
H270   H     0.22709   0.39911   0.09921   0.00000  Uiso   1.00
H271   H     0.25347   0.35037   0.11070   0.00000  Uiso   1.00
C272   C     0.12682   0.63246   0.24543   0.00000  Uiso   1.00
C273   C     0.07639   0.65470   0.24500   0.00000  Uiso   1.00
H274   H     0.08316   0.35540   0.24020   0.00000  Uiso   1.00
H275   H     0.04716   0.64204   0.21702   0.00000  Uiso   1.00
H276   H     0.06024   0.64997   0.27720   0.00000  Uiso   1.00
H277   H     0.11529   0.59865   0.24404   0.00000  Uiso   1.00
H278   H     0.15152   0.63886   0.27802   0.00000  Uiso   1.00
I279   I     0.10747   0.61946   0.06608   0.00000  Uiso   1.00
I280   I     0.21728   0.38111   0.26873   0.00000  Uiso   1.00
C281   C     0.23912   0.55781   0.05614   0.00000  Uiso   1.00
C282   C     0.29638   0.55142   0.05143   0.00000  Uiso   1.00
H283   H     0.30031   0.52753   0.02514   0.00000  Uiso   1.00
H284   H     0.31645   0.58138   0.04261   0.00000  Uiso   1.00
H285   H     0.31714   0.54189   0.08375   0.00000  Uiso   1.00
H286   H     0.23059   0.59003   0.04690   0.00000  Uiso   1.00
H287   H     0.23563   0.55659   0.09167   0.00000  Uiso   1.00
C288   C     0.09525   0.44119   0.27768   0.00000  Uiso   1.00
C289   C     0.03752   0.44660   0.28153   0.00000  Uiso   1.00
H290   H     0.01775   0.41612   0.28920   0.00000  Uiso   1.00
H291   H     0.03242   0.46980   0.30816   0.00000  Uiso   1.00
H292   H     0.01729   0.45665   0.24921   0.00000  Uiso   1.00
H293   H     0.09877   0.44222   0.24215   0.00000  Uiso   1.00
H294   H     0.10503   0.40938   0.28818   0.00000  Uiso   1.00
I295   I     0.24177   0.57832   0.28501   0.00000  Uiso   1.00
I296   I     0.09052   0.42276   0.04900   0.00000  Uiso   1.00
C297   C     0.50511   0.42028   0.16691   0.00000  Uiso   1.00
C298   C     0.49356   0.57943   0.16632   0.00000  Uiso   1.00
C299   C     0.40080   0.49854   0.15550   0.00000  Uiso   1.00
C300   C     0.59923   0.50167   0.17788   0.00000  Uiso   1.00
C301   C     0.34627   0.48940   0.15254   0.00000  Uiso   1.00
C302   C     0.65387   0.51070   0.18110   0.00000  Uiso   1.00
C303   C     0.50855   0.35287   0.12633   0.00000  Uiso   1.00
C304   C     0.48904   0.64689   0.20668   0.00000  Uiso   1.00
C305   C     0.48836   0.64463   0.12533   0.00000  Uiso   1.00
C306   C     0.50942   0.35476   0.20758   0.00000  Uiso   1.00
C307   C     0.48552   0.62391   0.16593   0.00000  Uiso   1.00
C308   C     0.51122   0.37550   0.16717   0.00000  Uiso   1.00
C309   C     0.53346   0.52743   0.02781   0.00000  Uiso   1.00
C310   C     0.46659   0.47251   0.30563   0.00000  Uiso   1.00
C311   C     0.53152   0.52852   0.31329   0.00000  Uiso   1.00
C312   C     0.46824   0.47168   0.02013   0.00000  Uiso   1.00
N313   N     0.49999   0.49999   0.28573   0.00000  Uiso   1.00
N314   N     0.50001   0.50001   0.04760   0.00000  Uiso   1.00
O315   O     0.50000   0.43892   0.20487   0.00000  Uiso   1.00
O316   O     0.50000   0.56108   0.12846   0.00000  Uiso   1.00
O317   O     0.50000   0.43893   0.12843   0.00000  Uiso   1.00
O318   O     0.50000   0.56107   0.20490   0.00000  Uiso   1.00
O319   O     0.42392   0.50000   0.19595   0.00000  Uiso   1.00
O320   O     0.57608   0.50000   0.13739   0.00000  Uiso   1.00
O321   O     0.42392   0.50000   0.11950   0.00000  Uiso   1.00
O322   O     0.57608   0.50000   0.21383   0.00000  Uiso   1.00
Zn323  Zn    0.50000   0.49999   0.21771   0.00000  Uiso   1.00
Zn324  Zn    0.50000   0.50001   0.11563   0.00000  Uiso   1.00
C325   C     0.65909   0.44732   0.13013   0.00000  Uiso   1.00
C326   C     0.64120   0.45108   0.08000   0.00000  Uiso   1.00
H327   H     0.33630   0.47138   0.06413   0.00000  Uiso   1.00
H328   H     0.63815   0.41965   0.06346   0.00000  Uiso   1.00
H329   H     0.60250   0.46393   0.07374   0.00000  Uiso   1.00
H330   H     0.35726   0.42526   0.13416   0.00000  Uiso   1.00
H331   H     0.62733   0.43212   0.14705   0.00000  Uiso   1.00
C332   C     0.34159   0.55210   0.20494   0.00000  Uiso   1.00
C333   C     0.35819   0.54679   0.25505   0.00000  Uiso   1.00
H334   H     0.66197   0.52670   0.26992   0.00000  Uiso   1.00
H335   H     0.39629   0.53301   0.26129   0.00000  Uiso   1.00
H336   H     0.36217   0.57768   0.27272   0.00000  Uiso   1.00
H337   H     0.37445   0.56733   0.18935   0.00000  Uiso   1.00
H338   H     0.64401   0.57466   0.20103   0.00000  Uiso   1.00
C339   C     0.55072   0.36510   0.09704   0.00000  Uiso   1.00
C340   C     0.53921   0.35377   0.04739   0.00000  Uiso   1.00
H341   H     0.53815   0.65305   0.04145   0.00000  Uiso   1.00
H342   H     0.50232   0.36587   0.03218   0.00000  Uiso   1.00
H343   H     0.57167   0.36781   0.03063   0.00000  Uiso   1.00
H344   H     0.56042   0.39911   0.09921   0.00000  Uiso   1.00
H345   H     0.58680   0.35037   0.11070   0.00000  Uiso   1.00
C346   C     0.46015   0.63246   0.24543   0.00000  Uiso   1.00
C347   C     0.40972   0.65470   0.24500   0.00000  Uiso   1.00
H348   H     0.41649   0.35540   0.24020   0.00000  Uiso   1.00
H349   H     0.38049   0.64204   0.21702   0.00000  Uiso   1.00
H350   H     0.39358   0.64997   0.27720   0.00000  Uiso   1.00
H351   H     0.44863   0.59865   0.24404   0.00000  Uiso   1.00
H352   H     0.48485   0.63886   0.27802   0.00000  Uiso   1.00
I353   I     0.44080   0.61946   0.06608   0.00000  Uiso   1.00
I354   I     0.55061   0.38111   0.26873   0.00000  Uiso   1.00
C355   C     0.57245   0.55781   0.05614   0.00000  Uiso   1.00
C356   C     0.62972   0.55142   0.05143   0.00000  Uiso   1.00
H357   H     0.63364   0.52753   0.02514   0.00000  Uiso   1.00
H358   H     0.64978   0.58138   0.04261   0.00000  Uiso   1.00
H359   H     0.65048   0.54189   0.08375   0.00000  Uiso   1.00
H360   H     0.56392   0.59003   0.04690   0.00000  Uiso   1.00
H361   H     0.56896   0.55659   0.09167   0.00000  Uiso   1.00
C362   C     0.42859   0.44119   0.27768   0.00000  Uiso   1.00
C363   C     0.37086   0.44660   0.28153   0.00000  Uiso   1.00
H364   H     0.35108   0.41612   0.28920   0.00000  Uiso   1.00
H365   H     0.36575   0.46980   0.30816   0.00000  Uiso   1.00
H366   H     0.35062   0.45665   0.24921   0.00000  Uiso   1.00
H367   H     0.43210   0.44222   0.24215   0.00000  Uiso   1.00
H368   H     0.43836   0.40938   0.28818   0.00000  Uiso   1.00
I369   I     0.57511   0.57832   0.28501   0.00000  Uiso   1.00
I370   I     0.42385   0.42276   0.04900   0.00000  Uiso   1.00
C371   C     0.83845   0.42028   0.16691   0.00000  Uiso   1.00
C372   C     0.82689   0.57943   0.16632   0.00000  Uiso   1.00
C373   C     0.73413   0.49854   0.15550   0.00000  Uiso   1.00
C374   C     0.93256   0.50167   0.17788   0.00000  Uiso   1.00
C375   C     0.67960   0.48940   0.15254   0.00000  Uiso   1.00
C376   C     0.98721   0.51070   0.18110   0.00000  Uiso   1.00
C377   C     0.84188   0.35287   0.12633   0.00000  Uiso   1.00
C378   C     0.82238   0.64689   0.20668   0.00000  Uiso   1.00
C379   C     0.82169   0.64463   0.12533   0.00000  Uiso   1.00
C380   C     0.84275   0.35476   0.20758   0.00000  Uiso   1.00
C381   C     0.81886   0.62391   0.16593   0.00000  Uiso   1.00
C382   C     0.84455   0.37550   0.16717   0.00000  Uiso   1.00
C383   C     0.86679   0.52743   0.02781   0.00000  Uiso   1.00
C384   C     0.79992   0.47251   0.30563   0.00000  Uiso   1.00
C385   C     0.86485   0.52852   0.31329   0.00000  Uiso   1.00
C386   C     0.80158   0.47168   0.02013   0.00000  Uiso   1.00
N387   N     0.83332   0.49999   0.28573   0.00000  Uiso   1.00
N388   N     0.83335   0.50001   0.04760   0.00000  Uiso   1.00
O389   O     0.83333   0.43892   0.20487   0.00000  Uiso   1.00
O390   O     0.83334   0.56108   0.12846   0.00000  Uiso   1.00
O391   O     0.83333   0.43893   0.12843   0.00000  Uiso   1.00
O392   O     0.83334   0.56107   0.20490   0.00000  Uiso   1.00
O393   O     0.75725   0.50000   0.19595   0.00000  Uiso   1.00
O394   O     0.90942   0.50000   0.13739   0.00000  Uiso   1.00
O395   O     0.75725   0.50000   0.11950   0.00000  Uiso   1.00
O396   O     0.90942   0.50000   0.21383   0.00000  Uiso   1.00
Zn397  Zn    0.83333   0.49999   0.21771   0.00000  Uiso   1.00
Zn398  Zn    0.83333   0.50001   0.11563   0.00000  Uiso   1.00
C399   C     0.99242   0.44732   0.13013   0.00000  Uiso   1.00
C400   C     0.97453   0.45108   0.08000   0.00000  Uiso   1.00
H401   H     0.66963   0.47138   0.06413   0.00000  Uiso   1.00
H402   H     0.97148   0.41965   0.06346   0.00000  Uiso   1.00
H403   H     0.93584   0.46393   0.07374   0.00000  Uiso   1.00
H404   H     0.69059   0.42526   0.13416   0.00000  Uiso   1.00
H405   H     0.96066   0.43212   0.14705   0.00000  Uiso   1.00
C406   C     0.67492   0.55210   0.20494   0.00000  Uiso   1.00
C407   C     0.69152   0.54679   0.25505   0.00000  Uiso   1.00
H408   H     0.99531   0.52670   0.26992   0.00000  Uiso   1.00
H409   H     0.72963   0.53301   0.26129   0.00000  Uiso   1.00
H410   H     0.69550   0.57768   0.27272   0.00000  Uiso   1.00
H411   H     0.70779   0.56733   0.18935   0.00000  Uiso   1.00
H412   H     0.97734   0.57466   0.20103   0.00000  Uiso   1.00
C413   C     0.88406   0.36510   0.09704   0.00000  Uiso   1.00
C414   C     0.87254   0.35377   0.04739   0.00000  Uiso   1.00
H415   H     0.87149   0.65305   0.04145   0.00000  Uiso   1.00
H416   H     0.83565   0.36587   0.03218   0.00000  Uiso   1.00
H417   H     0.90500   0.36781   0.03063   0.00000  Uiso   1.00
H418   H     0.89376   0.39911   0.09921   0.00000  Uiso   1.00
H419   H     0.92013   0.35037   0.11070   0.00000  Uiso   1.00
C420   C     0.79349   0.63246   0.24543   0.00000  Uiso   1.00
C421   C     0.74306   0.65470   0.24500   0.00000  Uiso   1.00
H422   H     0.74983   0.35540   0.24020   0.00000  Uiso   1.00
H423   H     0.71382   0.64204   0.21702   0.00000  Uiso   1.00
H424   H     0.72691   0.64997   0.27720   0.00000  Uiso   1.00
H425   H     0.78196   0.59865   0.24404   0.00000  Uiso   1.00
H426   H     0.81819   0.63886   0.27802   0.00000  Uiso   1.00
I427   I     0.77413   0.61946   0.06608   0.00000  Uiso   1.00
I428   I     0.88394   0.38111   0.26873   0.00000  Uiso   1.00
C429   C     0.90579   0.55781   0.05614   0.00000  Uiso   1.00
C430   C     0.96305   0.55142   0.05143   0.00000  Uiso   1.00
H431   H     0.96698   0.52753   0.02514   0.00000  Uiso   1.00
H432   H     0.98312   0.58138   0.04261   0.00000  Uiso   1.00
H433   H     0.98381   0.54189   0.08375   0.00000  Uiso   1.00
H434   H     0.89726   0.59003   0.04690   0.00000  Uiso   1.00
H435   H     0.90230   0.55659   0.09167   0.00000  Uiso   1.00
C436   C     0.76192   0.44119   0.27768   0.00000  Uiso   1.00
C437   C     0.70419   0.44660   0.28153   0.00000  Uiso   1.00
H438   H     0.68442   0.41612   0.28920   0.00000  Uiso   1.00
H439   H     0.69908   0.46980   0.30816   0.00000  Uiso   1.00
H440   H     0.68395   0.45665   0.24921   0.00000  Uiso   1.00
H441   H     0.76544   0.44222   0.24215   0.00000  Uiso   1.00
H442   H     0.77169   0.40938   0.28818   0.00000  Uiso   1.00
I443   I     0.90844   0.57832   0.28501   0.00000  Uiso   1.00
I444   I     0.75718   0.42276   0.04900   0.00000  Uiso   1.00
C445   C     0.17178   0.75361   0.16691   0.00000  Uiso   1.00
C446   C     0.16022   0.91276   0.16632   0.00000  Uiso   1.00
C447   C     0.06747   0.83187   0.15550   0.00000  Uiso   1.00
C448   C     0.26590   0.83500   0.17788   0.00000  Uiso   1.00
C449   C     0.01293   0.82273   0.15254   0.00000  Uiso   1.00
C450   C     0.32054   0.84403   0.18110   0.00000  Uiso   1.00
C451   C     0.17521   0.68620   0.12633   0.00000  Uiso   1.00
C452   C     0.15571   0.98022   0.20668   0.00000  Uiso   1.00
C453   C     0.15502   0.97796   0.12533   0.00000  Uiso   1.00
C454   C     0.17608   0.68809   0.20758   0.00000  Uiso   1.00
C455   C     0.15219   0.95724   0.16593   0.00000  Uiso   1.00
C456   C     0.17788   0.70883   0.16717   0.00000  Uiso   1.00
C457   C     0.20013   0.86076   0.02781   0.00000  Uiso   1.00
C458   C     0.13325   0.80584   0.30563   0.00000  Uiso   1.00
C459   C     0.19818   0.86186   0.31329   0.00000  Uiso   1.00
C460   C     0.13491   0.80501   0.02013   0.00000  Uiso   1.00
N461   N     0.16665   0.83332   0.28573   0.00000  Uiso   1.00
N462   N     0.16668   0.83334   0.04760   0.00000  Uiso   1.00
O463   O     0.16666   0.77225   0.20487   0.00000  Uiso   1.00
O464   O     0.16667   0.89442   0.12846   0.00000  Uiso   1.00
O465   O     0.16666   0.77226   0.12843   0.00000  Uiso   1.00
O466   O     0.16667   0.89441   0.20490   0.00000  Uiso   1.00
O467   O     0.09058   0.83333   0.19595   0.00000  Uiso   1.00
O468   O     0.24275   0.83334   0.13739   0.00000  Uiso   1.00
O469   O     0.09058   0.83334   0.11950   0.00000  Uiso   1.00
O470   O     0.24275   0.83333   0.21383   0.00000  Uiso   1.00
Zn471  Zn    0.16667   0.83333   0.21771   0.00000  Uiso   1.00
Zn472  Zn    0.16667   0.83334   0.11563   0.00000  Uiso   1.00
C473   C     0.32576   0.78065   0.13013   0.00000  Uiso   1.00
C474   C     0.30786   0.78442   0.08000   0.00000  Uiso   1.00
H475   H     0.00296   0.80471   0.06413   0.00000  Uiso   1.00
H476   H     0.30481   0.75299   0.06346   0.00000  Uiso   1.00
H477   H     0.26917   0.79726   0.07374   0.00000  Uiso   1.00
H478   H     0.02392   0.75860   0.13416   0.00000  Uiso   1.00
H479   H     0.29399   0.76545   0.14705   0.00000  Uiso   1.00
C480   C     0.00825   0.88543   0.20494   0.00000  Uiso   1.00
C481   C     0.02485   0.88012   0.25505   0.00000  Uiso   1.00
H482   H     0.32864   0.86003   0.26992   0.00000  Uiso   1.00
H483   H     0.06296   0.86635   0.26129   0.00000  Uiso   1.00
H484   H     0.02883   0.91102   0.27272   0.00000  Uiso   1.00
H485   H     0.04112   0.90066   0.18935   0.00000  Uiso   1.00
H486   H     0.31067   0.90799   0.20103   0.00000  Uiso   1.00
C487   C     0.21739   0.69843   0.09704   0.00000  Uiso   1.00
C488   C     0.20588   0.68710   0.04739   0.00000  Uiso   1.00
H489   H     0.20482   0.98638   0.04145   0.00000  Uiso   1.00
H490   H     0.16899   0.69921   0.03218   0.00000  Uiso   1.00
H491   H     0.23834   0.70114   0.03063   0.00000  Uiso   1.00
H492   H     0.22709   0.73245   0.09921   0.00000  Uiso   1.00
H493   H     0.25347   0.68371   0.11070   0.00000  Uiso   1.00
C494   C     0.12682   0.96579   0.24543   0.00000  Uiso   1.00
C495   C     0.07639   0.98803   0.24500   0.00000  Uiso   1.00
H496   H     0.08316   0.68873   0.24020   0.00000  Uiso   1.00
H497   H     0.04716   0.97537   0.21702   0.00000  Uiso   1.00
H498   H     0.06024   0.98330   0.27720   0.00000  Uiso   1.00
H499   H     0.11529   0.93198   0.24404   0.00000  Uiso   1.00
H500   H     0.15152   0.97219   0.27802   0.00000  Uiso   1.00
I501   I     0.10747   0.95280   0.06608   0.00000  Uiso   1.00
I502   I     0.21728   0.71445   0.26873   0.00000  Uiso   1.00
C503   C     0.23912   0.89114   0.05614   0.00000  Uiso   1.00
C504   C     0.29638   0.88475   0.05143   0.00000  Uiso   1.00
H505   H     0.30031   0.86087   0.02514   0.00000  Uiso   1.00
H506   H     0.31645   0.91471   0.04261   0.00000  Uiso   1.00
H507   H     0.31714   0.87522   0.08375   0.00000  Uiso   1.00
H508   H     0.23059   0.92336   0.04690   0.00000  Uiso   1.00
H509   H     0.23563   0.88992   0.09167   0.00000  Uiso   1.00
C510   C     0.09525   0.77452   0.27768   0.00000  Uiso   1.00
C511   C     0.03752   0.77993   0.28153   0.00000  Uiso   1.00
H512   H     0.01775   0.74946   0.28920   0.00000  Uiso   1.00
H513   H     0.03242   0.80314   0.30816   0.00000  Uiso   1.00
H514   H     0.01729   0.78999   0.24921   0.00000  Uiso   1.00
H515   H     0.09877   0.77556   0.24215   0.00000  Uiso   1.00
H516   H     0.10503   0.74271   0.28818   0.00000  Uiso   1.00
I517   I     0.24177   0.91166   0.28501   0.00000  Uiso   1.00
I518   I     0.09052   0.75609   0.04900   0.00000  Uiso   1.00
C519   C     0.50511   0.75361   0.16691   0.00000  Uiso   1.00
C520   C     0.49356   0.91276   0.16632   0.00000  Uiso   1.00
C521   C     0.40080   0.83187   0.15550   0.00000  Uiso   1.00
C522   C     0.59923   0.83500   0.17788   0.00000  Uiso   1.00
C523   C     0.34627   0.82273   0.15254   0.00000  Uiso   1.00
C524   C     0.65387   0.84403   0.18110   0.00000  Uiso   1.00
C525   C     0.50855   0.68620   0.12633   0.00000  Uiso   1.00
C526   C     0.48904   0.98022   0.20668   0.00000  Uiso   1.00
C527   C     0.48836   0.97796   0.12533   0.00000  Uiso   1.00
C528   C     0.50942   0.68809   0.20758   0.00000  Uiso   1.00
C529   C     0.48552   0.95724   0.16593   0.00000  Uiso   1.00
C530   C     0.51122   0.70883   0.16717   0.00000  Uiso   1.00
C531   C     0.53346   0.86076   0.02781   0.00000  Uiso   1.00
C532   C     0.46659   0.80584   0.30563   0.00000  Uiso   1.00
C533   C     0.53152   0.86186   0.31329   0.00000  Uiso   1.00
C534   C     0.46824   0.80501   0.02013   0.00000  Uiso   1.00
N535   N     0.49999   0.83332   0.28573   0.00000  Uiso   1.00
N536   N     0.50001   0.83334   0.04760   0.00000  Uiso   1.00
O537   O     0.50000   0.77225   0.20487   0.00000  Uiso   1.00
O538   O     0.50000   0.89442   0.12846   0.00000  Uiso   1.00
O539   O     0.50000   0.77226   0.12843   0.00000  Uiso   1.00
O540   O     0.50000   0.89441   0.20490   0.00000  Uiso   1.00
O541   O     0.42392   0.83333   0.19595   0.00000  Uiso   1.00
O542   O     0.57608   0.83334   0.13739   0.00000  Uiso   1.00
O543   O     0.42392   0.83334   0.11950   0.00000  Uiso   1.00
O544   O     0.57608   0.83333   0.21383   0.00000  Uiso   1.00
Zn545  Zn    0.50000   0.83333   0.21771   0.00000  Uiso   1.00
Zn546  Zn    0.50000   0.83334   0.11563   0.00000  Uiso   1.00
C547   C     0.65909   0.78065   0.13013   0.00000  Uiso   1.00
C548   C     0.64120   0.78442   0.08000   0.00000  Uiso   1.00
H549   H     0.33630   0.80471   0.06413   0.00000  Uiso   1.00
H550   H     0.63815   0.75299   0.06346   0.00000  Uiso   1.00
H551   H     0.60250   0.79726   0.07374   0.00000  Uiso   1.00
H552   H     0.35726   0.75860   0.13416   0.00000  Uiso   1.00
H553   H     0.62733   0.76545   0.14705   0.00000  Uiso   1.00
C554   C     0.34159   0.88543   0.20494   0.00000  Uiso   1.00
C555   C     0.35819   0.88012   0.25505   0.00000  Uiso   1.00
H556   H     0.66197   0.86003   0.26992   0.00000  Uiso   1.00
H557   H     0.39629   0.86635   0.26129   0.00000  Uiso   1.00
H558   H     0.36217   0.91102   0.27272   0.00000  Uiso   1.00
H559   H     0.37445   0.90066   0.18935   0.00000  Uiso   1.00
H560   H     0.64401   0.90799   0.20103   0.00000  Uiso   1.00
C561   C     0.55072   0.69843   0.09704   0.00000  Uiso   1.00
C562   C     0.53921   0.68710   0.04739   0.00000  Uiso   1.00
H563   H     0.53815   0.98638   0.04145   0.00000  Uiso   1.00
H564   H     0.50232   0.69921   0.03218   0.00000  Uiso   1.00
H565   H     0.57167   0.70114   0.03063   0.00000  Uiso   1.00
H566   H     0.56042   0.73245   0.09921   0.00000  Uiso   1.00
H567   H     0.58680   0.68371   0.11070   0.00000  Uiso   1.00
C568   C     0.46015   0.96579   0.24543   0.00000  Uiso   1.00
C569   C     0.40972   0.98803   0.24500   0.00000  Uiso   1.00
H570   H     0.41649   0.68873   0.24020   0.00000  Uiso   1.00
H571   H     0.38049   0.97537   0.21702   0.00000  Uiso   1.00
H572   H     0.39358   0.98330   0.27720   0.00000  Uiso   1.00
H573   H     0.44863   0.93198   0.24404   0.00000  Uiso   1.00
H574   H     0.48485   0.97219   0.27802   0.00000  Uiso   1.00
I575   I     0.44080   0.95280   0.06608   0.00000  Uiso   1.00
I576   I     0.55061   0.71445   0.26873   0.00000  Uiso   1.00
C577   C     0.57245   0.89114   0.05614   0.00000  Uiso   1.00
C578   C     0.62972   0.88475   0.05143   0.00000  Uiso   1.00
H579   H     0.63364   0.86087   0.02514   0.00000  Uiso   1.00
H580   H     0.64978   0.91471   0.04261   0.00000  Uiso   1.00
H581   H     0.65048   0.87522   0.08375   0.00000  Uiso   1.00
H582   H     0.56392   0.92336   0.04690   0.00000  Uiso   1.00
H583   H     0.56896   0.88992   0.09167   0.00000  Uiso   1.00
C584   C     0.42859   0.77452   0.27768   0.00000  Uiso   1.00
C585   C     0.37086   0.77993   0.28153   0.00000  Uiso   1.00
H586   H     0.35108   0.74946   0.28920   0.00000  Uiso   1.00
H587   H     0.36575   0.80314   0.30816   0.00000  Uiso   1.00
H588   H     0.35062   0.78999   0.24921   0.00000  Uiso   1.00
H589   H     0.43210   0.77556   0.24215   0.00000  Uiso   1.00
H590   H     0.43836   0.74271   0.28818   0.00000  Uiso   1.00
I591   I     0.57511   0.91166   0.28501   0.00000  Uiso   1.00
I592   I     0.42385   0.75609   0.04900   0.00000  Uiso   1.00
C593   C     0.83845   0.75361   0.16691   0.00000  Uiso   1.00
C594   C     0.82689   0.91276   0.16632   0.00000  Uiso   1.00
C595   C     0.73413   0.83187   0.15550   0.00000  Uiso   1.00
C596   C     0.93256   0.83500   0.17788   0.00000  Uiso   1.00
C597   C     0.67960   0.82273   0.15254   0.00000  Uiso   1.00
C598   C     0.98721   0.84403   0.18110   0.00000  Uiso   1.00
C599   C     0.84188   0.68620   0.12633   0.00000  Uiso   1.00
C600   C     0.82238   0.98022   0.20668   0.00000  Uiso   1.00
C601   C     0.82169   0.97796   0.12533   0.00000  Uiso   1.00
C602   C     0.84275   0.68809   0.20758   0.00000  Uiso   1.00
C603   C     0.81886   0.95724   0.16593   0.00000  Uiso   1.00
C604   C     0.84455   0.70883   0.16717   0.00000  Uiso   1.00
C605   C     0.86679   0.86076   0.02781   0.00000  Uiso   1.00
C606   C     0.79992   0.80584   0.30563   0.00000  Uiso   1.00
C607   C     0.86485   0.86186   0.31329   0.00000  Uiso   1.00
C608   C     0.80158   0.80501   0.02013   0.00000  Uiso   1.00
N609   N     0.83332   0.83332   0.28573   0.00000  Uiso   1.00
N610   N     0.83335   0.83334   0.04760   0.00000  Uiso   1.00
O611   O     0.83333   0.77225   0.20487   0.00000  Uiso   1.00
O612   O     0.83334   0.89442   0.12846   0.00000  Uiso   1.00
O613   O     0.83333   0.77226   0.12843   0.00000  Uiso   1.00
O614   O     0.83334   0.89441   0.20490   0.00000  Uiso   1.00
O615   O     0.75725   0.83333   0.19595   0.00000  Uiso   1.00
O616   O     0.90942   0.83334   0.13739   0.00000  Uiso   1.00
O617   O     0.75725   0.83334   0.11950   0.00000  Uiso   1.00
O618   O     0.90942   0.83333   0.21383   0.00000  Uiso   1.00
Zn619  Zn    0.83333   0.83333   0.21771   0.00000  Uiso   1.00
Zn620  Zn    0.83333   0.83334   0.11563   0.00000  Uiso   1.00
C621   C     0.99242   0.78065   0.13013   0.00000  Uiso   1.00
C622   C     0.97453   0.78442   0.08000   0.00000  Uiso   1.00
H623   H     0.66963   0.80471   0.06413   0.00000  Uiso   1.00
H624   H     0.97148   0.75299   0.06346   0.00000  Uiso   1.00
H625   H     0.93584   0.79726   0.07374   0.00000  Uiso   1.00
H626   H     0.69059   0.75860   0.13416   0.00000  Uiso   1.00
H627   H     0.96066   0.76545   0.14705   0.00000  Uiso   1.00
C628   C     0.67492   0.88543   0.20494   0.00000  Uiso   1.00
C629   C     0.69152   0.88012   0.25505   0.00000  Uiso   1.00
H630   H     0.99531   0.86003   0.26992   0.00000  Uiso   1.00
H631   H     0.72963   0.86635   0.26129   0.00000  Uiso   1.00
H632   H     0.69550   0.91102   0.27272   0.00000  Uiso   1.00
H633   H     0.70779   0.90066   0.18935   0.00000  Uiso   1.00
H634   H     0.97734   0.90799   0.20103   0.00000  Uiso   1.00
C635   C     0.88406   0.69843   0.09704   0.00000  Uiso   1.00
C636   C     0.87254   0.68710   0.04739   0.00000  Uiso   1.00
H637   H     0.87149   0.98638   0.04145   0.00000  Uiso   1.00
H638   H     0.83565   0.69921   0.03218   0.00000  Uiso   1.00
H639   H     0.90500   0.70114   0.03063   0.00000  Uiso   1.00
H640   H     0.89376   0.73245   0.09921   0.00000  Uiso   1.00
H641   H     0.92013   0.68371   0.11070   0.00000  Uiso   1.00
C642   C     0.79349   0.96579   0.24543   0.00000  Uiso   1.00
C643   C     0.74306   0.98803   0.24500   0.00000  Uiso   1.00
H644   H     0.74983   0.68873   0.24020   0.00000  Uiso   1.00
H645   H     0.71382   0.97537   0.21702   0.00000  Uiso   1.00
H646   H     0.72691   0.98330   0.27720   0.00000  Uiso   1.00
H647   H     0.78196   0.93198   0.24404   0.00000  Uiso   1.00
H648   H     0.81819   0.97219   0.27802   0.00000  Uiso   1.00
I649   I     0.77413   0.95280   0.06608   0.00000  Uiso   1.00
I650   I     0.88394   0.71445   0.26873   0.00000  Uiso   1.00
C651   C     0.90579   0.89114   0.05614   0.00000  Uiso   1.00
C652   C     0.96305   0.88475   0.05143   0.00000  Uiso   1.00
H653   H     0.96698   0.86087   0.02514   0.00000  Uiso   1.00
H654   H     0.98312   0.91471   0.04261   0.00000  Uiso   1.00
H655   H     0.98381   0.87522   0.08375   0.00000  Uiso   1.00
H656   H     0.89726   0.92336   0.04690   0.00000  Uiso   1.00
H657   H     0.90230   0.88992   0.09167   0.00000  Uiso   1.00
C658   C     0.76192   0.77452   0.27768   0.00000  Uiso   1.00
C659   C     0.70419   0.77993   0.28153   0.00000  Uiso   1.00
H660   H     0.68442   0.74946   0.28920   0.00000  Uiso   1.00
H661   H     0.69908   0.80314   0.30816   0.00000  Uiso   1.00
H662   H     0.68395   0.78999   0.24921   0.00000  Uiso   1.00
H663   H     0.76544   0.77556   0.24215   0.00000  Uiso   1.00
H664   H     0.77169   0.74271   0.28818   0.00000  Uiso   1.00
I665   I     0.90844   0.91166   0.28501   0.00000  Uiso   1.00
I666   I     0.75718   0.75609   0.04900   0.00000  Uiso   1.00
C667   C     0.17178   0.08695   0.50024   0.00000  Uiso   1.00
C668   C     0.16022   0.24610   0.49965   0.00000  Uiso   1.00
C669   C     0.06747   0.16521   0.48884   0.00000  Uiso   1.00
C670   C     0.26590   0.16833   0.51121   0.00000  Uiso   1.00
C671   C     0.01293   0.15607   0.48588   0.00000  Uiso   1.00
C672   C     0.32054   0.17736   0.51443   0.00000  Uiso   1.00
C673   C     0.17521   0.01953   0.45966   0.00000  Uiso   1.00
C674   C     0.15571   0.31356   0.54002   0.00000  Uiso   1.00
C675   C     0.15502   0.31130   0.45867   0.00000  Uiso   1.00
C676   C     0.17608   0.02142   0.54091   0.00000  Uiso   1.00
C677   C     0.15219   0.29058   0.49926   0.00000  Uiso   1.00
C678   C     0.17788   0.04217   0.50050   0.00000  Uiso   1.00
C679   C     0.20013   0.19410   0.36115   0.00000  Uiso   1.00
C680   C     0.13325   0.13917   0.63896   0.00000  Uiso   1.00
C681   C     0.19818   0.19519   0.64662   0.00000  Uiso   1.00
C682   C     0.13491   0.13835   0.35347   0.00000  Uiso   1.00
N683   N     0.16665   0.16666   0.61907   0.00000  Uiso   1.00
N684   N     0.16668   0.16668   0.38093   0.00000  Uiso   1.00
O685   O     0.16666   0.10558   0.53821   0.00000  Uiso   1.00
O686   O     0.16667   0.22775   0.46179   0.00000  Uiso   1.00
O687   O     0.16666   0.10559   0.46176   0.00000  Uiso   1.00
O688   O     0.16667   0.22774   0.53824   0.00000  Uiso   1.00
O689   O     0.09058   0.16666   0.52928   0.00000  Uiso   1.00
O690   O     0.24275   0.16667   0.47072   0.00000  Uiso   1.00
O691   O     0.09058   0.16667   0.45284   0.00000  Uiso   1.00
O692   O     0.24275   0.16666   0.54716   0.00000  Uiso   1.00
Zn693  Zn    0.16667   0.16666   0.55104   0.00000  Uiso   1.00
Zn694  Zn    0.16667   0.16667   0.44896   0.00000  Uiso   1.00
C695   C     0.32576   0.11398   0.46346   0.00000  Uiso   1.00
C696   C     0.30786   0.11775   0.41334   0.00000  Uiso   1.00
H697   H     0.00296   0.13804   0.39746   0.00000  Uiso   1.00
H698   H     0.30481   0.08632   0.39679   0.00000  Uiso   1.00
H699   H     0.26917   0.13059   0.40708   0.00000  Uiso   1.00
H700   H     0.02392   0.09193   0.46750   0.00000  Uiso   1.00
H701   H     0.29399   0.09879   0.48039   0.00000  Uiso   1.00
C702   C     0.00825   0.21876   0.53828   0.00000  Uiso   1.00
C703   C     0.02485   0.21345   0.58839   0.00000  Uiso   1.00
H704   H     0.32864   0.19336   0.60325   0.00000  Uiso   1.00
H705   H     0.06296   0.19968   0.59462   0.00000  Uiso   1.00
H706   H     0.02883   0.24435   0.60605   0.00000  Uiso   1.00
H707   H     0.04112   0.23399   0.52268   0.00000  Uiso   1.00
H708   H     0.31067   0.24133   0.53436   0.00000  Uiso   1.00
C709   C     0.21739   0.03176   0.43037   0.00000  Uiso   1.00
C710   C     0.20588   0.02044   0.38072   0.00000  Uiso   1.00
H711   H     0.20482   0.31972   0.37478   0.00000  Uiso   1.00
H712   H     0.16899   0.03254   0.36551   0.00000  Uiso   1.00
H713   H     0.23834   0.03448   0.36396   0.00000  Uiso   1.00
H714   H     0.22709   0.06578   0.43254   0.00000  Uiso   1.00
H715   H     0.25347   0.01704   0.44404   0.00000  Uiso   1.00
C716   C     0.12682   0.29913   0.57876   0.00000  Uiso   1.00
C717   C     0.07639   0.32136   0.57834   0.00000  Uiso   1.00
H718   H     0.08316   0.02206   0.57354   0.00000  Uiso   1.00
H719   H     0.04716   0.30870   0.55035   0.00000  Uiso   1.00
H720   H     0.06024   0.31664   0.61054   0.00000  Uiso   1.00
H721   H     0.11529   0.26532   0.57738   0.00000  Uiso   1.00
H722   H     0.15152   0.30552   0.61135   0.00000  Uiso   1.00
I723   I     0.10747   0.28613   0.39941   0.00000  Uiso   1.00
I724   I     0.21728   0.04778   0.60206   0.00000  Uiso   1.00
C725   C     0.23912   0.22448   0.38948   0.00000  Uiso   1.00
C726   C     0.29638   0.21808   0.38477   0.00000  Uiso   1.00
H727   H     0.30031   0.19420   0.35847   0.00000  Uiso   1.00
H728   H     0.31645   0.24805   0.37595   0.00000  Uiso   1.00
H729   H     0.31714   0.20855   0.41708   0.00000  Uiso   1.00
H730   H     0.23059   0.25669   0.38023   0.00000  Uiso   1.00
H731   H     0.23563   0.22325   0.42500   0.00000  Uiso   1.00
C732   C     0.09525   0.10785   0.61101   0.00000  Uiso   1.00
C733   C     0.03752   0.11327   0.61487   0.00000  Uiso   1.00
H734   H     0.01775   0.08279   0.62253   0.00000  Uiso   1.00
H735   H     0.03242   0.13647   0.64150   0.00000  Uiso   1.00
H736   H     0.01729   0.12332   0.58255   0.00000  Uiso   1.00
H737   H     0.09877   0.10889   0.57548   0.00000  Uiso   1.00
H738   H     0.10503   0.07604   0.62151   0.00000  Uiso   1.00
I739   I     0.24177   0.24499   0.61834   0.00000  Uiso   1.00
I740   I     0.09052   0.08943   0.38234   0.00000  Uiso   1.00
C741   C     0.50511   0.08695   0.50024   0.00000  Uiso   1.00
C742   C     0.49356   0.24610   0.49965   0.00000  Uiso   1.00
C743   C     0.40080   0.16521   0.48884   0.00000  Uiso   1.00
C744   C     0.59923   0.16833   0.51121   0.00000  Uiso   1.00
C745   C     0.34627   0.15607   0.48588   0.00000  Uiso   1.00
C746   C     0.65387   0.17736   0.51443   0.00000  Uiso   1.00
C747   C     0.50855   0.01953   0.45966   0.00000  Uiso   1.00
C748   C     0.48904   0.31356   0.54002   0.00000  Uiso   1.00
C749   C     0.48836   0.31130   0.45867   0.00000  Uiso   1.00
C750   C     0.50942   0.02142   0.54091   0.00000  Uiso   1.00
C751   C     0.48552   0.29058   0.49926   0.00000  Uiso   1.00
C752   C     0.51122   0.04217   0.50050   0.00000  Uiso   1.00
C753   C     0.53346   0.19410   0.36115   0.00000  Uiso   1.00
C754   C     0.46659   0.13917   0.63896   0.00000  Uiso   1.00
C755   C     0.53152   0.19519   0.64662   0.00000  Uiso   1.00
C756   C     0.46824   0.13835   0.35347   0.00000  Uiso   1.00
N757   N     0.49999   0.16666   0.61907   0.00000  Uiso   1.00
N758   N     0.50001   0.16668   0.38093   0.00000  Uiso   1.00
O759   O     0.50000   0.10558   0.53821   0.00000  Uiso   1.00
O760   O     0.50000   0.22775   0.46179   0.00000  Uiso   1.00
O761   O     0.50000   0.10559   0.46176   0.00000  Uiso   1.00
O762   O     0.50000   0.22774   0.53824   0.00000  Uiso   1.00
O763   O     0.42392   0.16666   0.52928   0.00000  Uiso   1.00
O764   O     0.57608   0.16667   0.47072   0.00000  Uiso   1.00
O765   O     0.42392   0.16667   0.45284   0.00000  Uiso   1.00
O766   O     0.57608   0.16666   0.54716   0.00000  Uiso   1.00
Zn767  Zn    0.50000   0.16666   0.55104   0.00000  Uiso   1.00
Zn768  Zn    0.50000   0.16667   0.44896   0.00000  Uiso   1.00
C769   C     0.65909   0.11398   0.46346   0.00000  Uiso   1.00
C770   C     0.64120   0.11775   0.41334   0.00000  Uiso   1.00
H771   H     0.33630   0.13804   0.39746   0.00000  Uiso   1.00
H772   H     0.63815   0.08632   0.39679   0.00000  Uiso   1.00
H773   H     0.60250   0.13059   0.40708   0.00000  Uiso   1.00
H774   H     0.35726   0.09193   0.46750   0.00000  Uiso   1.00
H775   H     0.62733   0.09879   0.48039   0.00000  Uiso   1.00
C776   C     0.34159   0.21876   0.53828   0.00000  Uiso   1.00
C777   C     0.35819   0.21345   0.58839   0.00000  Uiso   1.00
H778   H     0.66197   0.19336   0.60325   0.00000  Uiso   1.00
H779   H     0.39629   0.19968   0.59462   0.00000  Uiso   1.00
H780   H     0.36217   0.24435   0.60605   0.00000  Uiso   1.00
H781   H     0.37445   0.23399   0.52268   0.00000  Uiso   1.00
H782   H     0.64401   0.24133   0.53436   0.00000  Uiso   1.00
C783   C     0.55072   0.03176   0.43037   0.00000  Uiso   1.00
C784   C     0.53921   0.02044   0.38072   0.00000  Uiso   1.00
H785   H     0.53815   0.31972   0.37478   0.00000  Uiso   1.00
H786   H     0.50232   0.03254   0.36551   0.00000  Uiso   1.00
H787   H     0.57167   0.03448   0.36396   0.00000  Uiso   1.00
H788   H     0.56042   0.06578   0.43254   0.00000  Uiso   1.00
H789   H     0.58680   0.01704   0.44404   0.00000  Uiso   1.00
C790   C     0.46015   0.29913   0.57876   0.00000  Uiso   1.00
C791   C     0.40972   0.32136   0.57834   0.00000  Uiso   1.00
H792   H     0.41649   0.02206   0.57354   0.00000  Uiso   1.00
H793   H     0.38049   0.30870   0.55035   0.00000  Uiso   1.00
H794   H     0.39358   0.31664   0.61054   0.00000  Uiso   1.00
H795   H     0.44863   0.26532   0.57738   0.00000  Uiso   1.00
H796   H     0.48485   0.30552   0.61135   0.00000  Uiso   1.00
I797   I     0.44080   0.28613   0.39941   0.00000  Uiso   1.00
I798   I     0.55061   0.04778   0.60206   0.00000  Uiso   1.00
C799   C     0.57245   0.22448   0.38948   0.00000  Uiso   1.00
C800   C     0.62972   0.21808   0.38477   0.00000  Uiso   1.00
H801   H     0.63364   0.19420   0.35847   0.00000  Uiso   1.00
H802   H     0.64978   0.24805   0.37595   0.00000  Uiso   1.00
H803   H     0.65048   0.20855   0.41708   0.00000  Uiso   1.00
H804   H     0.56392   0.25669   0.38023   0.00000  Uiso   1.00
H805   H     0.56896   0.22325   0.42500   0.00000  Uiso   1.00
C806   C     0.42859   0.10785   0.61101   0.00000  Uiso   1.00
C807   C     0.37086   0.11327   0.61487   0.00000  Uiso   1.00
H808   H     0.35108   0.08279   0.62253   0.00000  Uiso   1.00
H809   H     0.36575   0.13647   0.64150   0.00000  Uiso   1.00
H810   H     0.35062   0.12332   0.58255   0.00000  Uiso   1.00
H811   H     0.43210   0.10889   0.57548   0.00000  Uiso   1.00
H812   H     0.43836   0.07604   0.62151   0.00000  Uiso   1.00
I813   I     0.57511   0.24499   0.61834   0.00000  Uiso   1.00
I814   I     0.42385   0.08943   0.38234   0.00000  Uiso   1.00
C815   C     0.83845   0.08695   0.50024   0.00000  Uiso   1.00
C816   C     0.82689   0.24610   0.49965   0.00000  Uiso   1.00
C817   C     0.73413   0.16521   0.48884   0.00000  Uiso   1.00
C818   C     0.93256   0.16833   0.51121   0.00000  Uiso   1.00
C819   C     0.67960   0.15607   0.48588   0.00000  Uiso   1.00
C820   C     0.98721   0.17736   0.51443   0.00000  Uiso   1.00
C821   C     0.84188   0.01953   0.45966   0.00000  Uiso   1.00
C822   C     0.82238   0.31356   0.54002   0.00000  Uiso   1.00
C823   C     0.82169   0.31130   0.45867   0.00000  Uiso   1.00
C824   C     0.84275   0.02142   0.54091   0.00000  Uiso   1.00
C825   C     0.81886   0.29058   0.49926   0.00000  Uiso   1.00
C826   C     0.84455   0.04217   0.50050   0.00000  Uiso   1.00
C827   C     0.86679   0.19410   0.36115   0.00000  Uiso   1.00
C828   C     0.79992   0.13917   0.63896   0.00000  Uiso   1.00
C829   C     0.86485   0.19519   0.64662   0.00000  Uiso   1.00
C830   C     0.80158   0.13835   0.35347   0.00000  Uiso   1.00
N831   N     0.83332   0.16666   0.61907   0.00000  Uiso   1.00
N832   N     0.83335   0.16668   0.38093   0.00000  Uiso   1.00
O833   O     0.83333   0.10558   0.53821   0.00000  Uiso   1.00
O834   O     0.83334   0.22775   0.46179   0.00000  Uiso   1.00
O835   O     0.83333   0.10559   0.46176   0.00000  Uiso   1.00
O836   O     0.83334   0.22774   0.53824   0.00000  Uiso   1.00
O837   O     0.75725   0.16666   0.52928   0.00000  Uiso   1.00
O838   O     0.90942   0.16667   0.47072   0.00000  Uiso   1.00
O839   O     0.75725   0.16667   0.45284   0.00000  Uiso   1.00
O840   O     0.90942   0.16666   0.54716   0.00000  Uiso   1.00
Zn841  Zn    0.83333   0.16666   0.55104   0.00000  Uiso   1.00
Zn842  Zn    0.83333   0.16667   0.44896   0.00000  Uiso   1.00
C843   C     0.99242   0.11398   0.46346   0.00000  Uiso   1.00
C844   C     0.97453   0.11775   0.41334   0.00000  Uiso   1.00
H845   H     0.66963   0.13804   0.39746   0.00000  Uiso   1.00
H846   H     0.97148   0.08632   0.39679   0.00000  Uiso   1.00
H847   H     0.93584   0.13059   0.40708   0.00000  Uiso   1.00
H848   H     0.69059   0.09193   0.46750   0.00000  Uiso   1.00
H849   H     0.96066   0.09879   0.48039   0.00000  Uiso   1.00
C850   C     0.67492   0.21876   0.53828   0.00000  Uiso   1.00
C851   C     0.69152   0.21345   0.58839   0.00000  Uiso   1.00
H852   H     0.99531   0.19336   0.60325   0.00000  Uiso   1.00
H853   H     0.72963   0.19968   0.59462   0.00000  Uiso   1.00
H854   H     0.69550   0.24435   0.60605   0.00000  Uiso   1.00
H855   H     0.70779   0.23399   0.52268   0.00000  Uiso   1.00
H856   H     0.97734   0.24133   0.53436   0.00000  Uiso   1.00
C857   C     0.88406   0.03176   0.43037   0.00000  Uiso   1.00
C858   C     0.87254   0.02044   0.38072   0.00000  Uiso   1.00
H859   H     0.87149   0.31972   0.37478   0.00000  Uiso   1.00
H860   H     0.83565   0.03254   0.36551   0.00000  Uiso   1.00
H861   H     0.90500   0.03448   0.36396   0.00000  Uiso   1.00
H862   H     0.89376   0.06578   0.43254   0.00000  Uiso   1.00
H863   H     0.92013   0.01704   0.44404   0.00000  Uiso   1.00
C864   C     0.79349   0.29913   0.57876   0.00000  Uiso   1.00
C865   C     0.74306   0.32136   0.57834   0.00000  Uiso   1.00
H866   H     0.74983   0.02206   0.57354   0.00000  Uiso   1.00
H867   H     0.71382   0.30870   0.55035   0.00000  Uiso   1.00
H868   H     0.72691   0.31664   0.61054   0.00000  Uiso   1.00
H869   H     0.78196   0.26532   0.57738   0.00000  Uiso   1.00
H870   H     0.81819   0.30552   0.61135   0.00000  Uiso   1.00
I871   I     0.77413   0.28613   0.39941   0.00000  Uiso   1.00
I872   I     0.88394   0.04778   0.60206   0.00000  Uiso   1.00
C873   C     0.90579   0.22448   0.38948   0.00000  Uiso   1.00
C874   C     0.96305   0.21808   0.38477   0.00000  Uiso   1.00
H875   H     0.96698   0.19420   0.35847   0.00000  Uiso   1.00
H876   H     0.98312   0.24805   0.37595   0.00000  Uiso   1.00
H877   H     0.98381   0.20855   0.41708   0.00000  Uiso   1.00
H878   H     0.89726   0.25669   0.38023   0.00000  Uiso   1.00
H879   H     0.90230   0.22325   0.42500   0.00000  Uiso   1.00
C880   C     0.76192   0.10785   0.61101   0.00000  Uiso   1.00
C881   C     0.70419   0.11327   0.61487   0.00000  Uiso   1.00
H882   H     0.68442   0.08279   0.62253   0.00000  Uiso   1.00
H883   H     0.69908   0.13647   0.64150   0.00000  Uiso   1.00
H884   H     0.68395   0.12332   0.58255   0.00000  Uiso   1.00
H885   H     0.76544   0.10889   0.57548   0.00000  Uiso   1.00
H886   H     0.77169   0.07604   0.62151   0.00000  Uiso   1.00
I887   I     0.90844   0.24499   0.61834   0.00000  Uiso   1.00
I888   I     0.75718   0.08943   0.38234   0.00000  Uiso   1.00
C889   C     0.17178   0.42028   0.50024   0.00000  Uiso   1.00
C890   C     0.16022   0.57943   0.49965   0.00000  Uiso   1.00
C891   C     0.06747   0.49854   0.48884   0.00000  Uiso   1.00
C892   C     0.26590   0.50167   0.51121   0.00000  Uiso   1.00
C893   C     0.01293   0.48940   0.48588   0.00000  Uiso   1.00
C894   C     0.32054   0.51070   0.51443   0.00000  Uiso   1.00
C895   C     0.17521   0.35287   0.45966   0.00000  Uiso   1.00
C896   C     0.15571   0.64689   0.54002   0.00000  Uiso   1.00
C897   C     0.15502   0.64463   0.45867   0.00000  Uiso   1.00
C898   C     0.17608   0.35476   0.54091   0.00000  Uiso   1.00
C899   C     0.15219   0.62391   0.49926   0.00000  Uiso   1.00
C900   C     0.17788   0.37550   0.50050   0.00000  Uiso   1.00
C901   C     0.20013   0.52743   0.36115   0.00000  Uiso   1.00
C902   C     0.13325   0.47251   0.63896   0.00000  Uiso   1.00
C903   C     0.19818   0.52852   0.64662   0.00000  Uiso   1.00
C904   C     0.13491   0.47168   0.35347   0.00000  Uiso   1.00
N905   N     0.16665   0.49999   0.61907   0.00000  Uiso   1.00
N906   N     0.16668   0.50001   0.38093   0.00000  Uiso   1.00
O907   O     0.16666   0.43892   0.53821   0.00000  Uiso   1.00
O908   O     0.16667   0.56108   0.46179   0.00000  Uiso   1.00
O909   O     0.16666   0.43893   0.46176   0.00000  Uiso   1.00
O910   O     0.16667   0.56107   0.53824   0.00000  Uiso   1.00
O911   O     0.09058   0.50000   0.52928   0.00000  Uiso   1.00
O912   O     0.24275   0.50000   0.47072   0.00000  Uiso   1.00
O913   O     0.09058   0.50000   0.45284   0.00000  Uiso   1.00
O914   O     0.24275   0.50000   0.54716   0.00000  Uiso   1.00
Zn915  Zn    0.16667   0.49999   0.55104   0.00000  Uiso   1.00
Zn916  Zn    0.16667   0.50001   0.44896   0.00000  Uiso   1.00
C917   C     0.32576   0.44732   0.46346   0.00000  Uiso   1.00
C918   C     0.30786   0.45108   0.41334   0.00000  Uiso   1.00
H919   H     0.00296   0.47138   0.39746   0.00000  Uiso   1.00
H920   H     0.30481   0.41965   0.39679   0.00000  Uiso   1.00
H921   H     0.26917   0.46393   0.40708   0.00000  Uiso   1.00
H922   H     0.02392   0.42526   0.46750   0.00000  Uiso   1.00
H923   H     0.29399   0.43212   0.48039   0.00000  Uiso   1.00
C924   C     0.00825   0.55210   0.53828   0.00000  Uiso   1.00
C925   C     0.02485   0.54679   0.58839   0.00000  Uiso   1.00
H926   H     0.32864   0.52670   0.60325   0.00000  Uiso   1.00
H927   H     0.06296   0.53301   0.59462   0.00000  Uiso   1.00
H928   H     0.02883   0.57768   0.60605   0.00000  Uiso   1.00
H929   H     0.04112   0.56733   0.52268   0.00000  Uiso   1.00
H930   H     0.31067   0.57466   0.53436   0.00000  Uiso   1.00
C931   C     0.21739   0.36510   0.43037   0.00000  Uiso   1.00
C932   C     0.20588   0.35377   0.38072   0.00000  Uiso   1.00
H933   H     0.20482   0.65305   0.37478   0.00000  Uiso   1.00
H934   H     0.16899   0.36587   0.36551   0.00000  Uiso   1.00
H935   H     0.23834   0.36781   0.36396   0.00000  Uiso   1.00
H936   H     0.22709   0.39911   0.43254   0.00000  Uiso   1.00
H937   H     0.25347   0.35037   0.44404   0.00000  Uiso   1.00
C938   C     0.12682   0.63246   0.57876   0.00000  Uiso   1.00
C939   C     0.07639   0.65470   0.57834   0.00000  Uiso   1.00
H940   H     0.08316   0.35540   0.57354   0.00000  Uiso   1.00
H941   H     0.04716   0.64204   0.55035   0.00000  Uiso   1.00
H942   H     0.06024   0.64997   0.61054   0.00000  Uiso   1.00
H943   H     0.11529   0.59865   0.57738   0.00000  Uiso   1.00
H944   H     0.15152   0.63886   0.61135   0.00000  Uiso   1.00
I945   I     0.10747   0.61946   0.39941   0.00000  Uiso   1.00
I946   I     0.21728   0.38111   0.60206   0.00000  Uiso   1.00
C947   C     0.23912   0.55781   0.38948   0.00000  Uiso   1.00
C948   C     0.29638   0.55142   0.38477   0.00000  Uiso   1.00
H949   H     0.30031   0.52753   0.35847   0.00000  Uiso   1.00
H950   H     0.31645   0.58138   0.37595   0.00000  Uiso   1.00
H951   H     0.31714   0.54189   0.41708   0.00000  Uiso   1.00
H952   H     0.23059   0.59003   0.38023   0.00000  Uiso   1.00
H953   H     0.23563   0.55659   0.42500   0.00000  Uiso   1.00
C954   C     0.09525   0.44119   0.61101   0.00000  Uiso   1.00
C955   C     0.03752   0.44660   0.61487   0.00000  Uiso   1.00
H956   H     0.01775   0.41612   0.62253   0.00000  Uiso   1.00
H957   H     0.03242   0.46980   0.64150   0.00000  Uiso   1.00
H958   H     0.01729   0.45665   0.58255   0.00000  Uiso   1.00
H959   H     0.09877   0.44222   0.57548   0.00000  Uiso   1.00
H960   H     0.10503   0.40938   0.62151   0.00000  Uiso   1.00
I961   I     0.24177   0.57832   0.61834   0.00000  Uiso   1.00
I962   I     0.09052   0.42276   0.38234   0.00000  Uiso   1.00
C963   C     0.50511   0.42028   0.50024   0.00000  Uiso   1.00
C964   C     0.49356   0.57943   0.49965   0.00000  Uiso   1.00
C965   C     0.40080   0.49854   0.48884   0.00000  Uiso   1.00
C966   C     0.59923   0.50167   0.51121   0.00000  Uiso   1.00
C967   C     0.34627   0.48940   0.48588   0.00000  Uiso   1.00
C968   C     0.65387   0.51070   0.51443   0.00000  Uiso   1.00
C969   C     0.50855   0.35287   0.45966   0.00000  Uiso   1.00
C970   C     0.48904   0.64689   0.54002   0.00000  Uiso   1.00
C971   C     0.48836   0.64463   0.45867   0.00000  Uiso   1.00
C972   C     0.50942   0.35476   0.54091   0.00000  Uiso   1.00
C973   C     0.48552   0.62391   0.49926   0.00000  Uiso   1.00
C974   C     0.51122   0.37550   0.50050   0.00000  Uiso   1.00
C975   C     0.53346   0.52743   0.36115   0.00000  Uiso   1.00
C976   C     0.46659   0.47251   0.63896   0.00000  Uiso   1.00
C977   C     0.53152   0.52852   0.64662   0.00000  Uiso   1.00
C978   C     0.46824   0.47168   0.35347   0.00000  Uiso   1.00
N979   N     0.49999   0.49999   0.61907   0.00000  Uiso   1.00
N980   N     0.50001   0.50001   0.38093   0.00000  Uiso   1.00
O981   O     0.50000   0.43892   0.53821   0.00000  Uiso   1.00
O982   O     0.50000   0.56108   0.46179   0.00000  Uiso   1.00
O983   O     0.50000   0.43893   0.46176   0.00000  Uiso   1.00
O984   O     0.50000   0.56107   0.53824   0.00000  Uiso   1.00
O985   O     0.42392   0.50000   0.52928   0.00000  Uiso   1.00
O986   O     0.57608   0.50000   0.47072   0.00000  Uiso   1.00
O987   O     0.42392   0.50000   0.45284   0.00000  Uiso   1.00
O988   O     0.57608   0.50000   0.54716   0.00000  Uiso   1.00
Zn989  Zn    0.50000   0.49999   0.55104   0.00000  Uiso   1.00
Zn990  Zn    0.50000   0.50001   0.44896   0.00000  Uiso   1.00
C991   C     0.65909   0.44732   0.46346   0.00000  Uiso   1.00
C992   C     0.64120   0.45108   0.41334   0.00000  Uiso   1.00
H993   H     0.33630   0.47138   0.39746   0.00000  Uiso   1.00
H994   H     0.63815   0.41965   0.39679   0.00000  Uiso   1.00
H995   H     0.60250   0.46393   0.40708   0.00000  Uiso   1.00
H996   H     0.35726   0.42526   0.46750   0.00000  Uiso   1.00
H997   H     0.62733   0.43212   0.48039   0.00000  Uiso   1.00
C998   C     0.34159   0.55210   0.53828   0.00000  Uiso   1.00
C999   C     0.35819   0.54679   0.58839   0.00000  Uiso   1.00
H1000  H     0.66197   0.52670   0.60325   0.00000  Uiso   1.00
H1001  H     0.39629   0.53301   0.59462   0.00000  Uiso   1.00
H1002  H     0.36217   0.57768   0.60605   0.00000  Uiso   1.00
H1003  H     0.37445   0.56733   0.52268   0.00000  Uiso   1.00
H1004  H     0.64401   0.57466   0.53436   0.00000  Uiso   1.00
C1005  C     0.55072   0.36510   0.43037   0.00000  Uiso   1.00
C1006  C     0.53921   0.35377   0.38072   0.00000  Uiso   1.00
H1007  H     0.53815   0.65305   0.37478   0.00000  Uiso   1.00
H1008  H     0.50232   0.36587   0.36551   0.00000  Uiso   1.00
H1009  H     0.57167   0.36781   0.36396   0.00000  Uiso   1.00
H1010  H     0.56042   0.39911   0.43254   0.00000  Uiso   1.00
H1011  H     0.58680   0.35037   0.44404   0.00000  Uiso   1.00
C1012  C     0.46015   0.63246   0.57876   0.00000  Uiso   1.00
C1013  C     0.40972   0.65470   0.57834   0.00000  Uiso   1.00
H1014  H     0.41649   0.35540   0.57354   0.00000  Uiso   1.00
H1015  H     0.38049   0.64204   0.55035   0.00000  Uiso   1.00
H1016  H     0.39358   0.64997   0.61054   0.00000  Uiso   1.00
H1017  H     0.44863   0.59865   0.57738   0.00000  Uiso   1.00
H1018  H     0.48485   0.63886   0.61135   0.00000  Uiso   1.00
I1019  I     0.44080   0.61946   0.39941   0.00000  Uiso   1.00
I1020  I     0.55061   0.38111   0.60206   0.00000  Uiso   1.00
C1021  C     0.57245   0.55781   0.38948   0.00000  Uiso   1.00
C1022  C     0.62972   0.55142   0.38477   0.00000  Uiso   1.00
H1023  H     0.63364   0.52753   0.35847   0.00000  Uiso   1.00
H1024  H     0.64978   0.58138   0.37595   0.00000  Uiso   1.00
H1025  H     0.65048   0.54189   0.41708   0.00000  Uiso   1.00
H1026  H     0.56392   0.59003   0.38023   0.00000  Uiso   1.00
H1027  H     0.56896   0.55659   0.42500   0.00000  Uiso   1.00
C1028  C     0.42859   0.44119   0.61101   0.00000  Uiso   1.00
C1029  C     0.37086   0.44660   0.61487   0.00000  Uiso   1.00
H1030  H     0.35108   0.41612   0.62253   0.00000  Uiso   1.00
H1031  H     0.36575   0.46980   0.64150   0.00000  Uiso   1.00
H1032  H     0.35062   0.45665   0.58255   0.00000  Uiso   1.00
H1033  H     0.43210   0.44222   0.57548   0.00000  Uiso   1.00
H1034  H     0.43836   0.40938   0.62151   0.00000  Uiso   1.00
I1035  I     0.57511   0.57832   0.61834   0.00000  Uiso   1.00
I1036  I     0.42385   0.42276   0.38234   0.00000  Uiso   1.00
C1037  C     0.83845   0.42028   0.50024   0.00000  Uiso   1.00
C1038  C     0.82689   0.57943   0.49965   0.00000  Uiso   1.00
C1039  C     0.73413   0.49854   0.48884   0.00000  Uiso   1.00
C1040  C     0.93256   0.50167   0.51121   0.00000  Uiso   1.00
C1041  C     0.67960   0.48940   0.48588   0.00000  Uiso   1.00
C1042  C     0.98721   0.51070   0.51443   0.00000  Uiso   1.00
C1043  C     0.84188   0.35287   0.45966   0.00000  Uiso   1.00
C1044  C     0.82238   0.64689   0.54002   0.00000  Uiso   1.00
C1045  C     0.82169   0.64463   0.45867   0.00000  Uiso   1.00
C1046  C     0.84275   0.35476   0.54091   0.00000  Uiso   1.00
C1047  C     0.81886   0.62391   0.49926   0.00000  Uiso   1.00
C1048  C     0.84455   0.37550   0.50050   0.00000  Uiso   1.00
C1049  C     0.86679   0.52743   0.36115   0.00000  Uiso   1.00
C1050  C     0.79992   0.47251   0.63896   0.00000  Uiso   1.00
C1051  C     0.86485   0.52852   0.64662   0.00000  Uiso   1.00
C1052  C     0.80158   0.47168   0.35347   0.00000  Uiso   1.00
N1053  N     0.83332   0.49999   0.61907   0.00000  Uiso   1.00
N1054  N     0.83335   0.50001   0.38093   0.00000  Uiso   1.00
O1055  O     0.83333   0.43892   0.53821   0.00000  Uiso   1.00
O1056  O     0.83334   0.56108   0.46179   0.00000  Uiso   1.00
O1057  O     0.83333   0.43893   0.46176   0.00000  Uiso   1.00
O1058  O     0.83334   0.56107   0.53824   0.00000  Uiso   1.00
O1059  O     0.75725   0.50000   0.52928   0.00000  Uiso   1.00
O1060  O     0.90942   0.50000   0.47072   0.00000  Uiso   1.00
O1061  O     0.75725   0.50000   0.45284   0.00000  Uiso   1.00
O1062  O     0.90942   0.50000   0.54716   0.00000  Uiso   1.00
Zn1063 Zn    0.83333   0.49999   0.55104   0.00000  Uiso   1.00
Zn1064 Zn    0.83333   0.50001   0.44896   0.00000  Uiso   1.00
C1065  C     0.99242   0.44732   0.46346   0.00000  Uiso   1.00
C1066  C     0.97453   0.45108   0.41334   0.00000  Uiso   1.00
H1067  H     0.66963   0.47138   0.39746   0.00000  Uiso   1.00
H1068  H     0.97148   0.41965   0.39679   0.00000  Uiso   1.00
H1069  H     0.93584   0.46393   0.40708   0.00000  Uiso   1.00
H1070  H     0.69059   0.42526   0.46750   0.00000  Uiso   1.00
H1071  H     0.96066   0.43212   0.48039   0.00000  Uiso   1.00
C1072  C     0.67492   0.55210   0.53828   0.00000  Uiso   1.00
C1073  C     0.69152   0.54679   0.58839   0.00000  Uiso   1.00
H1074  H     0.99531   0.52670   0.60325   0.00000  Uiso   1.00
H1075  H     0.72963   0.53301   0.59462   0.00000  Uiso   1.00
H1076  H     0.69550   0.57768   0.60605   0.00000  Uiso   1.00
H1077  H     0.70779   0.56733   0.52268   0.00000  Uiso   1.00
H1078  H     0.97734   0.57466   0.53436   0.00000  Uiso   1.00
C1079  C     0.88406   0.36510   0.43037   0.00000  Uiso   1.00
C1080  C     0.87254   0.35377   0.38072   0.00000  Uiso   1.00
H1081  H     0.87149   0.65305   0.37478   0.00000  Uiso   1.00
H1082  H     0.83565   0.36587   0.36551   0.00000  Uiso   1.00
H1083  H     0.90500   0.36781   0.36396   0.00000  Uiso   1.00
H1084  H     0.89376   0.39911   0.43254   0.00000  Uiso   1.00
H1085  H     0.92013   0.35037   0.44404   0.00000  Uiso   1.00
C1086  C     0.79349   0.63246   0.57876   0.00000  Uiso   1.00
C1087  C     0.74306   0.65470   0.57834   0.00000  Uiso   1.00
H1088  H     0.74983   0.35540   0.57354   0.00000  Uiso   1.00
H1089  H     0.71382   0.64204   0.55035   0.00000  Uiso   1.00
H1090  H     0.72691   0.64997   0.61054   0.00000  Uiso   1.00
H1091  H     0.78196   0.59865   0.57738   0.00000  Uiso   1.00
H1092  H     0.81819   0.63886   0.61135   0.00000  Uiso   1.00
I1093  I     0.77413   0.61946   0.39941   0.00000  Uiso   1.00
I1094  I     0.88394   0.38111   0.60206   0.00000  Uiso   1.00
C1095  C     0.90579   0.55781   0.38948   0.00000  Uiso   1.00
C1096  C     0.96305   0.55142   0.38477   0.00000  Uiso   1.00
H1097  H     0.96698   0.52753   0.35847   0.00000  Uiso   1.00
H1098  H     0.98312   0.58138   0.37595   0.00000  Uiso   1.00
H1099  H     0.98381   0.54189   0.41708   0.00000  Uiso   1.00
H1100  H     0.89726   0.59003   0.38023   0.00000  Uiso   1.00
H1101  H     0.90230   0.55659   0.42500   0.00000  Uiso   1.00
C1102  C     0.76192   0.44119   0.61101   0.00000  Uiso   1.00
C1103  C     0.70419   0.44660   0.61487   0.00000  Uiso   1.00
H1104  H     0.68442   0.41612   0.62253   0.00000  Uiso   1.00
H1105  H     0.69908   0.46980   0.64150   0.00000  Uiso   1.00
H1106  H     0.68395   0.45665   0.58255   0.00000  Uiso   1.00
H1107  H     0.76544   0.44222   0.57548   0.00000  Uiso   1.00
H1108  H     0.77169   0.40938   0.62151   0.00000  Uiso   1.00
I1109  I     0.90844   0.57832   0.61834   0.00000  Uiso   1.00
I1110  I     0.75718   0.42276   0.38234   0.00000  Uiso   1.00
C1111  C     0.17178   0.75361   0.50024   0.00000  Uiso   1.00
C1112  C     0.16022   0.91276   0.49965   0.00000  Uiso   1.00
C1113  C     0.06747   0.83187   0.48884   0.00000  Uiso   1.00
C1114  C     0.26590   0.83500   0.51121   0.00000  Uiso   1.00
C1115  C     0.01293   0.82273   0.48588   0.00000  Uiso   1.00
C1116  C     0.32054   0.84403   0.51443   0.00000  Uiso   1.00
C1117  C     0.17521   0.68620   0.45966   0.00000  Uiso   1.00
C1118  C     0.15571   0.98022   0.54002   0.00000  Uiso   1.00
C1119  C     0.15502   0.97796   0.45867   0.00000  Uiso   1.00
C1120  C     0.17608   0.68809   0.54091   0.00000  Uiso   1.00
C1121  C     0.15219   0.95724   0.49926   0.00000  Uiso   1.00
C1122  C     0.17788   0.70883   0.50050   0.00000  Uiso   1.00
C1123  C     0.20013   0.86076   0.36115   0.00000  Uiso   1.00
C1124  C     0.13325   0.80584   0.63896   0.00000  Uiso   1.00
C1125  C     0.19818   0.86186   0.64662   0.00000  Uiso   1.00
C1126  C     0.13491   0.80501   0.35347   0.00000  Uiso   1.00
N1127  N     0.16665   0.83332   0.61907   0.00000  Uiso   1.00
N1128  N     0.16668   0.83334   0.38093   0.00000  Uiso   1.00
O1129  O     0.16666   0.77225   0.53821   0.00000  Uiso   1.00
O1130  O     0.16667   0.89442   0.46179   0.00000  Uiso   1.00
O1131  O     0.16666   0.77226   0.46176   0.00000  Uiso   1.00
O1132  O     0.16667   0.89441   0.53824   0.00000  Uiso   1.00
O1133  O     0.09058   0.83333   0.52928   0.00000  Uiso   1.00
O1134  O     0.24275   0.83334   0.47072   0.00000  Uiso   1.00
O1135  O     0.09058   0.83334   0.45284   0.00000  Uiso   1.00
O1136  O     0.24275   0.83333   0.54716   0.00000  Uiso   1.00
Zn1137 Zn    0.16667   0.83333   0.55104   0.00000  Uiso   1.00
Zn1138 Zn    0.16667   0.83334   0.44896   0.00000  Uiso   1.00
C1139  C     0.32576   0.78065   0.46346   0.00000  Uiso   1.00
C1140  C     0.30786   0.78442   0.41334   0.00000  Uiso   1.00
H1141  H     0.00296   0.80471   0.39746   0.00000  Uiso   1.00
H1142  H     0.30481   0.75299   0.39679   0.00000  Uiso   1.00
H1143  H     0.26917   0.79726   0.40708   0.00000  Uiso   1.00
H1144  H     0.02392   0.75860   0.46750   0.00000  Uiso   1.00
H1145  H     0.29399   0.76545   0.48039   0.00000  Uiso   1.00
C1146  C     0.00825   0.88543   0.53828   0.00000  Uiso   1.00
C1147  C     0.02485   0.88012   0.58839   0.00000  Uiso   1.00
H1148  H     0.32864   0.86003   0.60325   0.00000  Uiso   1.00
H1149  H     0.06296   0.86635   0.59462   0.00000  Uiso   1.00
H1150  H     0.02883   0.91102   0.60605   0.00000  Uiso   1.00
H1151  H     0.04112   0.90066   0.52268   0.00000  Uiso   1.00
H1152  H     0.31067   0.90799   0.53436   0.00000  Uiso   1.00
C1153  C     0.21739   0.69843   0.43037   0.00000  Uiso   1.00
C1154  C     0.20588   0.68710   0.38072   0.00000  Uiso   1.00
H1155  H     0.20482   0.98638   0.37478   0.00000  Uiso   1.00
H1156  H     0.16899   0.69921   0.36551   0.00000  Uiso   1.00
H1157  H     0.23834   0.70114   0.36396   0.00000  Uiso   1.00
H1158  H     0.22709   0.73245   0.43254   0.00000  Uiso   1.00
H1159  H     0.25347   0.68371   0.44404   0.00000  Uiso   1.00
C1160  C     0.12682   0.96579   0.57876   0.00000  Uiso   1.00
C1161  C     0.07639   0.98803   0.57834   0.00000  Uiso   1.00
H1162  H     0.08316   0.68873   0.57354   0.00000  Uiso   1.00
H1163  H     0.04716   0.97537   0.55035   0.00000  Uiso   1.00
H1164  H     0.06024   0.98330   0.61054   0.00000  Uiso   1.00
H1165  H     0.11529   0.93198   0.57738   0.00000  Uiso   1.00
H1166  H     0.15152   0.97219   0.61135   0.00000  Uiso   1.00
I1167  I     0.10747   0.95280   0.39941   0.00000  Uiso   1.00
I1168  I     0.21728   0.71445   0.60206   0.00000  Uiso   1.00
C1169  C     0.23912   0.89114   0.38948   0.00000  Uiso   1.00
C1170  C     0.29638   0.88475   0.38477   0.00000  Uiso   1.00
H1171  H     0.30031   0.86087   0.35847   0.00000  Uiso   1.00
H1172  H     0.31645   0.91471   0.37595   0.00000  Uiso   1.00
H1173  H     0.31714   0.87522   0.41708   0.00000  Uiso   1.00
H1174  H     0.23059   0.92336   0.38023   0.00000  Uiso   1.00
H1175  H     0.23563   0.88992   0.42500   0.00000  Uiso   1.00
C1176  C     0.09525   0.77452   0.61101   0.00000  Uiso   1.00
C1177  C     0.03752   0.77993   0.61487   0.00000  Uiso   1.00
H1178  H     0.01775   0.74946   0.62253   0.00000  Uiso   1.00
H1179  H     0.03242   0.80314   0.64150   0.00000  Uiso   1.00
H1180  H     0.01729   0.78999   0.58255   0.00000  Uiso   1.00
H1181  H     0.09877   0.77556   0.57548   0.00000  Uiso   1.00
H1182  H     0.10503   0.74271   0.62151   0.00000  Uiso   1.00
I1183  I     0.24177   0.91166   0.61834   0.00000  Uiso   1.00
I1184  I     0.09052   0.75609   0.38234   0.00000  Uiso   1.00
C1185  C     0.50511   0.75361   0.50024   0.00000  Uiso   1.00
C1186  C     0.49356   0.91276   0.49965   0.00000  Uiso   1.00
C1187  C     0.40080   0.83187   0.48884   0.00000  Uiso   1.00
C1188  C     0.59923   0.83500   0.51121   0.00000  Uiso   1.00
C1189  C     0.34627   0.82273   0.48588   0.00000  Uiso   1.00
C1190  C     0.65387   0.84403   0.51443   0.00000  Uiso   1.00
C1191  C     0.50855   0.68620   0.45966   0.00000  Uiso   1.00
C1192  C     0.48904   0.98022   0.54002   0.00000  Uiso   1.00
C1193  C     0.48836   0.97796   0.45867   0.00000  Uiso   1.00
C1194  C     0.50942   0.68809   0.54091   0.00000  Uiso   1.00
C1195  C     0.48552   0.95724   0.49926   0.00000  Uiso   1.00
C1196  C     0.51122   0.70883   0.50050   0.00000  Uiso   1.00
C1197  C     0.53346   0.86076   0.36115   0.00000  Uiso   1.00
C1198  C     0.46659   0.80584   0.63896   0.00000  Uiso   1.00
C1199  C     0.53152   0.86186   0.64662   0.00000  Uiso   1.00
C1200  C     0.46824   0.80501   0.35347   0.00000  Uiso   1.00
N1201  N     0.49999   0.83332   0.61907   0.00000  Uiso   1.00
N1202  N     0.50001   0.83334   0.38093   0.00000  Uiso   1.00
O1203  O     0.50000   0.77225   0.53821   0.00000  Uiso   1.00
O1204  O     0.50000   0.89442   0.46179   0.00000  Uiso   1.00
O1205  O     0.50000   0.77226   0.46176   0.00000  Uiso   1.00
O1206  O     0.50000   0.89441   0.53824   0.00000  Uiso   1.00
O1207  O     0.42392   0.83333   0.52928   0.00000  Uiso   1.00
O1208  O     0.57608   0.83334   0.47072   0.00000  Uiso   1.00
O1209  O     0.42392   0.83334   0.45284   0.00000  Uiso   1.00
O1210  O     0.57608   0.83333   0.54716   0.00000  Uiso   1.00
Zn1211 Zn    0.50000   0.83333   0.55104   0.00000  Uiso   1.00
Zn1212 Zn    0.50000   0.83334   0.44896   0.00000  Uiso   1.00
C1213  C     0.65909   0.78065   0.46346   0.00000  Uiso   1.00
C1214  C     0.64120   0.78442   0.41334   0.00000  Uiso   1.00
H1215  H     0.33630   0.80471   0.39746   0.00000  Uiso   1.00
H1216  H     0.63815   0.75299   0.39679   0.00000  Uiso   1.00
H1217  H     0.60250   0.79726   0.40708   0.00000  Uiso   1.00
H1218  H     0.35726   0.75860   0.46750   0.00000  Uiso   1.00
H1219  H     0.62733   0.76545   0.48039   0.00000  Uiso   1.00
C1220  C     0.34159   0.88543   0.53828   0.00000  Uiso   1.00
C1221  C     0.35819   0.88012   0.58839   0.00000  Uiso   1.00
H1222  H     0.66197   0.86003   0.60325   0.00000  Uiso   1.00
H1223  H     0.39629   0.86635   0.59462   0.00000  Uiso   1.00
H1224  H     0.36217   0.91102   0.60605   0.00000  Uiso   1.00
H1225  H     0.37445   0.90066   0.52268   0.00000  Uiso   1.00
H1226  H     0.64401   0.90799   0.53436   0.00000  Uiso   1.00
C1227  C     0.55072   0.69843   0.43037   0.00000  Uiso   1.00
C1228  C     0.53921   0.68710   0.38072   0.00000  Uiso   1.00
H1229  H     0.53815   0.98638   0.37478   0.00000  Uiso   1.00
H1230  H     0.50232   0.69921   0.36551   0.00000  Uiso   1.00
H1231  H     0.57167   0.70114   0.36396   0.00000  Uiso   1.00
H1232  H     0.56042   0.73245   0.43254   0.00000  Uiso   1.00
H1233  H     0.58680   0.68371   0.44404   0.00000  Uiso   1.00
C1234  C     0.46015   0.96579   0.57876   0.00000  Uiso   1.00
C1235  C     0.40972   0.98803   0.57834   0.00000  Uiso   1.00
H1236  H     0.41649   0.68873   0.57354   0.00000  Uiso   1.00
H1237  H     0.38049   0.97537   0.55035   0.00000  Uiso   1.00
H1238  H     0.39358   0.98330   0.61054   0.00000  Uiso   1.00
H1239  H     0.44863   0.93198   0.57738   0.00000  Uiso   1.00
H1240  H     0.48485   0.97219   0.61135   0.00000  Uiso   1.00
I1241  I     0.44080   0.95280   0.39941   0.00000  Uiso   1.00
I1242  I     0.55061   0.71445   0.60206   0.00000  Uiso   1.00
C1243  C     0.57245   0.89114   0.38948   0.00000  Uiso   1.00
C1244  C     0.62972   0.88475   0.38477   0.00000  Uiso   1.00
H1245  H     0.63364   0.86087   0.35847   0.00000  Uiso   1.00
H1246  H     0.64978   0.91471   0.37595   0.00000  Uiso   1.00
H1247  H     0.65048   0.87522   0.41708   0.00000  Uiso   1.00
H1248  H     0.56392   0.92336   0.38023   0.00000  Uiso   1.00
H1249  H     0.56896   0.88992   0.42500   0.00000  Uiso   1.00
C1250  C     0.42859   0.77452   0.61101   0.00000  Uiso   1.00
C1251  C     0.37086   0.77993   0.61487   0.00000  Uiso   1.00
H1252  H     0.35108   0.74946   0.62253   0.00000  Uiso   1.00
H1253  H     0.36575   0.80314   0.64150   0.00000  Uiso   1.00
H1254  H     0.35062   0.78999   0.58255   0.00000  Uiso   1.00
H1255  H     0.43210   0.77556   0.57548   0.00000  Uiso   1.00
H1256  H     0.43836   0.74271   0.62151   0.00000  Uiso   1.00
I1257  I     0.57511   0.91166   0.61834   0.00000  Uiso   1.00
I1258  I     0.42385   0.75609   0.38234   0.00000  Uiso   1.00
C1259  C     0.83845   0.75361   0.50024   0.00000  Uiso   1.00
C1260  C     0.82689   0.91276   0.49965   0.00000  Uiso   1.00
C1261  C     0.73413   0.83187   0.48884   0.00000  Uiso   1.00
C1262  C     0.93256   0.83500   0.51121   0.00000  Uiso   1.00
C1263  C     0.67960   0.82273   0.48588   0.00000  Uiso   1.00
C1264  C     0.98721   0.84403   0.51443   0.00000  Uiso   1.00
C1265  C     0.84188   0.68620   0.45966   0.00000  Uiso   1.00
C1266  C     0.82238   0.98022   0.54002   0.00000  Uiso   1.00
C1267  C     0.82169   0.97796   0.45867   0.00000  Uiso   1.00
C1268  C     0.84275   0.68809   0.54091   0.00000  Uiso   1.00
C1269  C     0.81886   0.95724   0.49926   0.00000  Uiso   1.00
C1270  C     0.84455   0.70883   0.50050   0.00000  Uiso   1.00
C1271  C     0.86679   0.86076   0.36115   0.00000  Uiso   1.00
C1272  C     0.79992   0.80584   0.63896   0.00000  Uiso   1.00
C1273  C     0.86485   0.86186   0.64662   0.00000  Uiso   1.00
C1274  C     0.80158   0.80501   0.35347   0.00000  Uiso   1.00
N1275  N     0.83332   0.83332   0.61907   0.00000  Uiso   1.00
N1276  N     0.83335   0.83334   0.38093   0.00000  Uiso   1.00
O1277  O     0.83333   0.77225   0.53821   0.00000  Uiso   1.00
O1278  O     0.83334   0.89442   0.46179   0.00000  Uiso   1.00
O1279  O     0.83333   0.77226   0.46176   0.00000  Uiso   1.00
O1280  O     0.83334   0.89441   0.53824   0.00000  Uiso   1.00
O1281  O     0.75725   0.83333   0.52928   0.00000  Uiso   1.00
O1282  O     0.90942   0.83334   0.47072   0.00000  Uiso   1.00
O1283  O     0.75725   0.83334   0.45284   0.00000  Uiso   1.00
O1284  O     0.90942   0.83333   0.54716   0.00000  Uiso   1.00
Zn1285 Zn    0.83333   0.83333   0.55104   0.00000  Uiso   1.00
Zn1286 Zn    0.83333   0.83334   0.44896   0.00000  Uiso   1.00
C1287  C     0.99242   0.78065   0.46346   0.00000  Uiso   1.00
C1288  C     0.97453   0.78442   0.41334   0.00000  Uiso   1.00
H1289  H     0.66963   0.80471   0.39746   0.00000  Uiso   1.00
H1290  H     0.97148   0.75299   0.39679   0.00000  Uiso   1.00
H1291  H     0.93584   0.79726   0.40708   0.00000  Uiso   1.00
H1292  H     0.69059   0.75860   0.46750   0.00000  Uiso   1.00
H1293  H     0.96066   0.76545   0.48039   0.00000  Uiso   1.00
C1294  C     0.67492   0.88543   0.53828   0.00000  Uiso   1.00
C1295  C     0.69152   0.88012   0.58839   0.00000  Uiso   1.00
H1296  H     0.99531   0.86003   0.60325   0.00000  Uiso   1.00
H1297  H     0.72963   0.86635   0.59462   0.00000  Uiso   1.00
H1298  H     0.69550   0.91102   0.60605   0.00000  Uiso   1.00
H1299  H     0.70779   0.90066   0.52268   0.00000  Uiso   1.00
H1300  H     0.97734   0.90799   0.53436   0.00000  Uiso   1.00
C1301  C     0.88406   0.69843   0.43037   0.00000  Uiso   1.00
C1302  C     0.87254   0.68710   0.38072   0.00000  Uiso   1.00
H1303  H     0.87149   0.98638   0.37478   0.00000  Uiso   1.00
H1304  H     0.83565   0.69921   0.36551   0.00000  Uiso   1.00
H1305  H     0.90500   0.70114   0.36396   0.00000  Uiso   1.00
H1306  H     0.89376   0.73245   0.43254   0.00000  Uiso   1.00
H1307  H     0.92013   0.68371   0.44404   0.00000  Uiso   1.00
C1308  C     0.79349   0.96579   0.57876   0.00000  Uiso   1.00
C1309  C     0.74306   0.98803   0.57834   0.00000  Uiso   1.00
H1310  H     0.74983   0.68873   0.57354   0.00000  Uiso   1.00
H1311  H     0.71382   0.97537   0.55035   0.00000  Uiso   1.00
H1312  H     0.72691   0.98330   0.61054   0.00000  Uiso   1.00
H1313  H     0.78196   0.93198   0.57738   0.00000  Uiso   1.00
H1314  H     0.81819   0.97219   0.61135   0.00000  Uiso   1.00
I1315  I     0.77413   0.95280   0.39941   0.00000  Uiso   1.00
I1316  I     0.88394   0.71445   0.60206   0.00000  Uiso   1.00
C1317  C     0.90579   0.89114   0.38948   0.00000  Uiso   1.00
C1318  C     0.96305   0.88475   0.38477   0.00000  Uiso   1.00
H1319  H     0.96698   0.86087   0.35847   0.00000  Uiso   1.00
H1320  H     0.98312   0.91471   0.37595   0.00000  Uiso   1.00
H1321  H     0.98381   0.87522   0.41708   0.00000  Uiso   1.00
H1322  H     0.89726   0.92336   0.38023   0.00000  Uiso   1.00
H1323  H     0.90230   0.88992   0.42500   0.00000  Uiso   1.00
C1324  C     0.76192   0.77452   0.61101   0.00000  Uiso   1.00
C1325  C     0.70419   0.77993   0.61487   0.00000  Uiso   1.00
H1326  H     0.68442   0.74946   0.62253   0.00000  Uiso   1.00
H1327  H     0.69908   0.80314   0.64150   0.00000  Uiso   1.00
H1328  H     0.68395   0.78999   0.58255   0.00000  Uiso   1.00
H1329  H     0.76544   0.77556   0.57548   0.00000  Uiso   1.00
H1330  H     0.77169   0.74271   0.62151   0.00000  Uiso   1.00
I1331  I     0.90844   0.91166   0.61834   0.00000  Uiso   1.00
I1332  I     0.75718   0.75609   0.38234   0.00000  Uiso   1.00
C1333  C     0.17178   0.08695   0.83358   0.00000  Uiso   1.00
C1334  C     0.16022   0.24610   0.83299   0.00000  Uiso   1.00
C1335  C     0.06747   0.16521   0.82217   0.00000  Uiso   1.00
C1336  C     0.26590   0.16833   0.84455   0.00000  Uiso   1.00
C1337  C     0.01293   0.15607   0.81921   0.00000  Uiso   1.00
C1338  C     0.32054   0.17736   0.84776   0.00000  Uiso   1.00
C1339  C     0.17521   0.01953   0.79300   0.00000  Uiso   1.00
C1340  C     0.15571   0.31356   0.87335   0.00000  Uiso   1.00
C1341  C     0.15502   0.31130   0.79200   0.00000  Uiso   1.00
C1342  C     0.17608   0.02142   0.87424   0.00000  Uiso   1.00
C1343  C     0.15219   0.29058   0.83259   0.00000  Uiso   1.00
C1344  C     0.17788   0.04217   0.83383   0.00000  Uiso   1.00
C1345  C     0.20013   0.19410   0.69448   0.00000  Uiso   1.00
C1346  C     0.13325   0.13917   0.97230   0.00000  Uiso   1.00
C1347  C     0.19818   0.19519   0.97996   0.00000  Uiso   1.00
C1348  C     0.13491   0.13835   0.68680   0.00000  Uiso   1.00
N1349  N     0.16665   0.16666   0.95240   0.00000  Uiso   1.00
N1350  N     0.16668   0.16668   0.71427   0.00000  Uiso   1.00
O1351  O     0.16666   0.10558   0.87154   0.00000  Uiso   1.00
O1352  O     0.16667   0.22775   0.79513   0.00000  Uiso   1.00
O1353  O     0.16666   0.10559   0.79510   0.00000  Uiso   1.00
O1354  O     0.16667   0.22774   0.87157   0.00000  Uiso   1.00
O1355  O     0.09058   0.16666   0.86261   0.00000  Uiso   1.00
O1356  O     0.24275   0.16667   0.80405   0.00000  Uiso   1.00
O1357  O     0.09058   0.16667   0.78617   0.00000  Uiso   1.00
O1358  O     0.24275   0.16666   0.88050   0.00000  Uiso   1.00
Zn1359 Zn    0.16667   0.16666   0.88437   0.00000  Uiso   1.00
Zn1360 Zn    0.16667   0.16667   0.78229   0.00000  Uiso   1.00
C1361  C     0.32576   0.11398   0.79679   0.00000  Uiso   1.00
C1362  C     0.30786   0.11775   0.74667   0.00000  Uiso   1.00
H1363  H     0.00296   0.13804   0.73079   0.00000  Uiso   1.00
H1364  H     0.30481   0.08632   0.73013   0.00000  Uiso   1.00
H1365  H     0.26917   0.13059   0.74041   0.00000  Uiso   1.00
H1366  H     0.02392   0.09193   0.80083   0.00000  Uiso   1.00
H1367  H     0.29399   0.09879   0.81372   0.00000  Uiso   1.00
C1368  C     0.00825   0.21876   0.87161   0.00000  Uiso   1.00
C1369  C     0.02485   0.21345   0.92172   0.00000  Uiso   1.00
H1370  H     0.32864   0.19336   0.93658   0.00000  Uiso   1.00
H1371  H     0.06296   0.19968   0.92795   0.00000  Uiso   1.00
H1372  H     0.02883   0.24435   0.93938   0.00000  Uiso   1.00
H1373  H     0.04112   0.23399   0.85601   0.00000  Uiso   1.00
H1374  H     0.31067   0.24133   0.86769   0.00000  Uiso   1.00
C1375  C     0.21739   0.03176   0.76371   0.00000  Uiso   1.00
C1376  C     0.20588   0.02044   0.71405   0.00000  Uiso   1.00
H1377  H     0.20482   0.31972   0.70811   0.00000  Uiso   1.00
H1378  H     0.16899   0.03254   0.69884   0.00000  Uiso   1.00
H1379  H     0.23834   0.03448   0.69730   0.00000  Uiso   1.00
H1380  H     0.22709   0.06578   0.76587   0.00000  Uiso   1.00
H1381  H     0.25347   0.01704   0.77737   0.00000  Uiso   1.00
C1382  C     0.12682   0.29913   0.91210   0.00000  Uiso   1.00
C1383  C     0.07639   0.32136   0.91167   0.00000  Uiso   1.00
H1384  H     0.08316   0.02206   0.90687   0.00000  Uiso   1.00
H1385  H     0.04716   0.30870   0.88369   0.00000  Uiso   1.00
H1386  H     0.06024   0.31664   0.94387   0.00000  Uiso   1.00
H1387  H     0.11529   0.26532   0.91071   0.00000  Uiso   1.00
H1388  H     0.15152   0.30552   0.94469   0.00000  Uiso   1.00
I1389  I     0.10747   0.28613   0.73274   0.00000  Uiso   1.00
I1390  I     0.21728   0.04778   0.93540   0.00000  Uiso   1.00
C1391  C     0.23912   0.22448   0.72281   0.00000  Uiso   1.00
C1392  C     0.29638   0.21808   0.71810   0.00000  Uiso   1.00
H1393  H     0.30031   0.19420   0.69180   0.00000  Uiso   1.00
H1394  H     0.31645   0.24805   0.70928   0.00000  Uiso   1.00
H1395  H     0.31714   0.20855   0.75041   0.00000  Uiso   1.00
H1396  H     0.23059   0.25669   0.71357   0.00000  Uiso   1.00
H1397  H     0.23563   0.22325   0.75834   0.00000  Uiso   1.00
C1398  C     0.09525   0.10785   0.94435   0.00000  Uiso   1.00
C1399  C     0.03752   0.11327   0.94820   0.00000  Uiso   1.00
H1400  H     0.01775   0.08279   0.95586   0.00000  Uiso   1.00
H1401  H     0.03242   0.13647   0.97483   0.00000  Uiso   1.00
H1402  H     0.01729   0.12332   0.91588   0.00000  Uiso   1.00
H1403  H     0.09877   0.10889   0.90881   0.00000  Uiso   1.00
H1404  H     0.10503   0.07604   0.95485   0.00000  Uiso   1.00
I1405  I     0.24177   0.24499   0.95168   0.00000  Uiso   1.00
I1406  I     0.09052   0.08943   0.71567   0.00000  Uiso   1.00
C1407  C     0.50511   0.08695   0.83358   0.00000  Uiso   1.00
C1408  C     0.49356   0.24610   0.83299   0.00000  Uiso   1.00
C1409  C     0.40080   0.16521   0.82217   0.00000  Uiso   1.00
C1410  C     0.59923   0.16833   0.84455   0.00000  Uiso   1.00
C1411  C     0.34627   0.15607   0.81921   0.00000  Uiso   1.00
C1412  C     0.65387   0.17736   0.84776   0.00000  Uiso   1.00
C1413  C     0.50855   0.01953   0.79300   0.00000  Uiso   1.00
C1414  C     0.48904   0.31356   0.87335   0.00000  Uiso   1.00
C1415  C     0.48836   0.31130   0.79200   0.00000  Uiso   1.00
C1416  C     0.50942   0.02142   0.87424   0.00000  Uiso   1.00
C1417  C     0.48552   0.29058   0.83259   0.00000  Uiso   1.00
C1418  C     0.51122   0.04217   0.83383   0.00000  Uiso   1.00
C1419  C     0.53346   0.19410   0.69448   0.00000  Uiso   1.00
C1420  C     0.46659   0.13917   0.97230   0.00000  Uiso   1.00
C1421  C     0.53152   0.19519   0.97996   0.00000  Uiso   1.00
C1422  C     0.46824   0.13835   0.68680   0.00000  Uiso   1.00
N1423  N     0.49999   0.16666   0.95240   0.00000  Uiso   1.00
N1424  N     0.50001   0.16668   0.71427   0.00000  Uiso   1.00
O1425  O     0.50000   0.10558   0.87154   0.00000  Uiso   1.00
O1426  O     0.50000   0.22775   0.79513   0.00000  Uiso   1.00
O1427  O     0.50000   0.10559   0.79510   0.00000  Uiso   1.00
O1428  O     0.50000   0.22774   0.87157   0.00000  Uiso   1.00
O1429  O     0.42392   0.16666   0.86261   0.00000  Uiso   1.00
O1430  O     0.57608   0.16667   0.80405   0.00000  Uiso   1.00
O1431  O     0.42392   0.16667   0.78617   0.00000  Uiso   1.00
O1432  O     0.57608   0.16666   0.88050   0.00000  Uiso   1.00
Zn1433 Zn    0.50000   0.16666   0.88437   0.00000  Uiso   1.00
Zn1434 Zn    0.50000   0.16667   0.78229   0.00000  Uiso   1.00
C1435  C     0.65909   0.11398   0.79679   0.00000  Uiso   1.00
C1436  C     0.64120   0.11775   0.74667   0.00000  Uiso   1.00
H1437  H     0.33630   0.13804   0.73079   0.00000  Uiso   1.00
H1438  H     0.63815   0.08632   0.73013   0.00000  Uiso   1.00
H1439  H     0.60250   0.13059   0.74041   0.00000  Uiso   1.00
H1440  H     0.35726   0.09193   0.80083   0.00000  Uiso   1.00
H1441  H     0.62733   0.09879   0.81372   0.00000  Uiso   1.00
C1442  C     0.34159   0.21876   0.87161   0.00000  Uiso   1.00
C1443  C     0.35819   0.21345   0.92172   0.00000  Uiso   1.00
H1444  H     0.66197   0.19336   0.93658   0.00000  Uiso   1.00
H1445  H     0.39629   0.19968   0.92795   0.00000  Uiso   1.00
H1446  H     0.36217   0.24435   0.93938   0.00000  Uiso   1.00
H1447  H     0.37445   0.23399   0.85601   0.00000  Uiso   1.00
H1448  H     0.64401   0.24133   0.86769   0.00000  Uiso   1.00
C1449  C     0.55072   0.03176   0.76371   0.00000  Uiso   1.00
C1450  C     0.53921   0.02044   0.71405   0.00000  Uiso   1.00
H1451  H     0.53815   0.31972   0.70811   0.00000  Uiso   1.00
H1452  H     0.50232   0.03254   0.69884   0.00000  Uiso   1.00
H1453  H     0.57167   0.03448   0.69730   0.00000  Uiso   1.00
H1454  H     0.56042   0.06578   0.76587   0.00000  Uiso   1.00
H1455  H     0.58680   0.01704   0.77737   0.00000  Uiso   1.00
C1456  C     0.46015   0.29913   0.91210   0.00000  Uiso   1.00
C1457  C     0.40972   0.32136   0.91167   0.00000  Uiso   1.00
H1458  H     0.41649   0.02206   0.90687   0.00000  Uiso   1.00
H1459  H     0.38049   0.30870   0.88369   0.00000  Uiso   1.00
H1460  H     0.39358   0.31664   0.94387   0.00000  Uiso   1.00
H1461  H     0.44863   0.26532   0.91071   0.00000  Uiso   1.00
H1462  H     0.48485   0.30552   0.94469   0.00000  Uiso   1.00
I1463  I     0.44080   0.28613   0.73274   0.00000  Uiso   1.00
I1464  I     0.55061   0.04778   0.93540   0.00000  Uiso   1.00
C1465  C     0.57245   0.22448   0.72281   0.00000  Uiso   1.00
C1466  C     0.62972   0.21808   0.71810   0.00000  Uiso   1.00
H1467  H     0.63364   0.19420   0.69180   0.00000  Uiso   1.00
H1468  H     0.64978   0.24805   0.70928   0.00000  Uiso   1.00
H1469  H     0.65048   0.20855   0.75041   0.00000  Uiso   1.00
H1470  H     0.56392   0.25669   0.71357   0.00000  Uiso   1.00
H1471  H     0.56896   0.22325   0.75834   0.00000  Uiso   1.00
C1472  C     0.42859   0.10785   0.94435   0.00000  Uiso   1.00
C1473  C     0.37086   0.11327   0.94820   0.00000  Uiso   1.00
H1474  H     0.35108   0.08279   0.95586   0.00000  Uiso   1.00
H1475  H     0.36575   0.13647   0.97483   0.00000  Uiso   1.00
H1476  H     0.35062   0.12332   0.91588   0.00000  Uiso   1.00
H1477  H     0.43210   0.10889   0.90881   0.00000  Uiso   1.00
H1478  H     0.43836   0.07604   0.95485   0.00000  Uiso   1.00
I1479  I     0.57511   0.24499   0.95168   0.00000  Uiso   1.00
I1480  I     0.42385   0.08943   0.71567   0.00000  Uiso   1.00
C1481  C     0.83845   0.08695   0.83358   0.00000  Uiso   1.00
C1482  C     0.82689   0.24610   0.83299   0.00000  Uiso   1.00
C1483  C     0.73413   0.16521   0.82217   0.00000  Uiso   1.00
C1484  C     0.93256   0.16833   0.84455   0.00000  Uiso   1.00
C1485  C     0.67960   0.15607   0.81921   0.00000  Uiso   1.00
C1486  C     0.98721   0.17736   0.84776   0.00000  Uiso   1.00
C1487  C     0.84188   0.01953   0.79300   0.00000  Uiso   1.00
C1488  C     0.82238   0.31356   0.87335   0.00000  Uiso   1.00
C1489  C     0.82169   0.31130   0.79200   0.00000  Uiso   1.00
C1490  C     0.84275   0.02142   0.87424   0.00000  Uiso   1.00
C1491  C     0.81886   0.29058   0.83259   0.00000  Uiso   1.00
C1492  C     0.84455   0.04217   0.83383   0.00000  Uiso   1.00
C1493  C     0.86679   0.19410   0.69448   0.00000  Uiso   1.00
C1494  C     0.79992   0.13917   0.97230   0.00000  Uiso   1.00
C1495  C     0.86485   0.19519   0.97996   0.00000  Uiso   1.00
C1496  C     0.80158   0.13835   0.68680   0.00000  Uiso   1.00
N1497  N     0.83332   0.16666   0.95240   0.00000  Uiso   1.00
N1498  N     0.83335   0.16668   0.71427   0.00000  Uiso   1.00
O1499  O     0.83333   0.10558   0.87154   0.00000  Uiso   1.00
O1500  O     0.83334   0.22775   0.79513   0.00000  Uiso   1.00
O1501  O     0.83333   0.10559   0.79510   0.00000  Uiso   1.00
O1502  O     0.83334   0.22774   0.87157   0.00000  Uiso   1.00
O1503  O     0.75725   0.16666   0.86261   0.00000  Uiso   1.00
O1504  O     0.90942   0.16667   0.80405   0.00000  Uiso   1.00
O1505  O     0.75725   0.16667   0.78617   0.00000  Uiso   1.00
O1506  O     0.90942   0.16666   0.88050   0.00000  Uiso   1.00
Zn1507 Zn    0.83333   0.16666   0.88437   0.00000  Uiso   1.00
Zn1508 Zn    0.83333   0.16667   0.78229   0.00000  Uiso   1.00
C1509  C     0.99242   0.11398   0.79679   0.00000  Uiso   1.00
C1510  C     0.97453   0.11775   0.74667   0.00000  Uiso   1.00
H1511  H     0.66963   0.13804   0.73079   0.00000  Uiso   1.00
H1512  H     0.97148   0.08632   0.73013   0.00000  Uiso   1.00
H1513  H     0.93584   0.13059   0.74041   0.00000  Uiso   1.00
H1514  H     0.69059   0.09193   0.80083   0.00000  Uiso   1.00
H1515  H     0.96066   0.09879   0.81372   0.00000  Uiso   1.00
C1516  C     0.67492   0.21876   0.87161   0.00000  Uiso   1.00
C1517  C     0.69152   0.21345   0.92172   0.00000  Uiso   1.00
H1518  H     0.99531   0.19336   0.93658   0.00000  Uiso   1.00
H1519  H     0.72963   0.19968   0.92795   0.00000  Uiso   1.00
H1520  H     0.69550   0.24435   0.93938   0.00000  Uiso   1.00
H1521  H     0.70779   0.23399   0.85601   0.00000  Uiso   1.00
H1522  H     0.97734   0.24133   0.86769   0.00000  Uiso   1.00
C1523  C     0.88406   0.03176   0.76371   0.00000  Uiso   1.00
C1524  C     0.87254   0.02044   0.71405   0.00000  Uiso   1.00
H1525  H     0.87149   0.31972   0.70811   0.00000  Uiso   1.00
H1526  H     0.83565   0.03254   0.69884   0.00000  Uiso   1.00
H1527  H     0.90500   0.03448   0.69730   0.00000  Uiso   1.00
H1528  H     0.89376   0.06578   0.76587   0.00000  Uiso   1.00
H1529  H     0.92013   0.01704   0.77737   0.00000  Uiso   1.00
C1530  C     0.79349   0.29913   0.91210   0.00000  Uiso   1.00
C1531  C     0.74306   0.32136   0.91167   0.00000  Uiso   1.00
H1532  H     0.74983   0.02206   0.90687   0.00000  Uiso   1.00
H1533  H     0.71382   0.30870   0.88369   0.00000  Uiso   1.00
H1534  H     0.72691   0.31664   0.94387   0.00000  Uiso   1.00
H1535  H     0.78196   0.26532   0.91071   0.00000  Uiso   1.00
H1536  H     0.81819   0.30552   0.94469   0.00000  Uiso   1.00
I1537  I     0.77413   0.28613   0.73274   0.00000  Uiso   1.00
I1538  I     0.88394   0.04778   0.93540   0.00000  Uiso   1.00
C1539  C     0.90579   0.22448   0.72281   0.00000  Uiso   1.00
C1540  C     0.96305   0.21808   0.71810   0.00000  Uiso   1.00
H1541  H     0.96698   0.19420   0.69180   0.00000  Uiso   1.00
H1542  H     0.98312   0.24805   0.70928   0.00000  Uiso   1.00
H1543  H     0.98381   0.20855   0.75041   0.00000  Uiso   1.00
H1544  H     0.89726   0.25669   0.71357   0.00000  Uiso   1.00
H1545  H     0.90230   0.22325   0.75834   0.00000  Uiso   1.00
C1546  C     0.76192   0.10785   0.94435   0.00000  Uiso   1.00
C1547  C     0.70419   0.11327   0.94820   0.00000  Uiso   1.00
H1548  H     0.68442   0.08279   0.95586   0.00000  Uiso   1.00
H1549  H     0.69908   0.13647   0.97483   0.00000  Uiso   1.00
H1550  H     0.68395   0.12332   0.91588   0.00000  Uiso   1.00
H1551  H     0.76544   0.10889   0.90881   0.00000  Uiso   1.00
H1552  H     0.77169   0.07604   0.95485   0.00000  Uiso   1.00
I1553  I     0.90844   0.24499   0.95168   0.00000  Uiso   1.00
I1554  I     0.75718   0.08943   0.71567   0.00000  Uiso   1.00
C1555  C     0.17178   0.42028   0.83358   0.00000  Uiso   1.00
C1556  C     0.16022   0.57943   0.83299   0.00000  Uiso   1.00
C1557  C     0.06747   0.49854   0.82217   0.00000  Uiso   1.00
C1558  C     0.26590   0.50167   0.84455   0.00000  Uiso   1.00
C1559  C     0.01293   0.48940   0.81921   0.00000  Uiso   1.00
C1560  C     0.32054   0.51070   0.84776   0.00000  Uiso   1.00
C1561  C     0.17521   0.35287   0.79300   0.00000  Uiso   1.00
C1562  C     0.15571   0.64689   0.87335   0.00000  Uiso   1.00
C1563  C     0.15502   0.64463   0.79200   0.00000  Uiso   1.00
C1564  C     0.17608   0.35476   0.87424   0.00000  Uiso   1.00
C1565  C     0.15219   0.62391   0.83259   0.00000  Uiso   1.00
C1566  C     0.17788   0.37550   0.83383   0.00000  Uiso   1.00
C1567  C     0.20013   0.52743   0.69448   0.00000  Uiso   1.00
C1568  C     0.13325   0.47251   0.97230   0.00000  Uiso   1.00
C1569  C     0.19818   0.52852   0.97996   0.00000  Uiso   1.00
C1570  C     0.13491   0.47168   0.68680   0.00000  Uiso   1.00
N1571  N     0.16665   0.49999   0.95240   0.00000  Uiso   1.00
N1572  N     0.16668   0.50001   0.71427   0.00000  Uiso   1.00
O1573  O     0.16666   0.43892   0.87154   0.00000  Uiso   1.00
O1574  O     0.16667   0.56108   0.79513   0.00000  Uiso   1.00
O1575  O     0.16666   0.43893   0.79510   0.00000  Uiso   1.00
O1576  O     0.16667   0.56107   0.87157   0.00000  Uiso   1.00
O1577  O     0.09058   0.50000   0.86261   0.00000  Uiso   1.00
O1578  O     0.24275   0.50000   0.80405   0.00000  Uiso   1.00
O1579  O     0.09058   0.50000   0.78617   0.00000  Uiso   1.00
O1580  O     0.24275   0.50000   0.88050   0.00000  Uiso   1.00
Zn1581 Zn    0.16667   0.49999   0.88437   0.00000  Uiso   1.00
Zn1582 Zn    0.16667   0.50001   0.78229   0.00000  Uiso   1.00
C1583  C     0.32576   0.44732   0.79679   0.00000  Uiso   1.00
C1584  C     0.30786   0.45108   0.74667   0.00000  Uiso   1.00
H1585  H     0.00296   0.47138   0.73079   0.00000  Uiso   1.00
H1586  H     0.30481   0.41965   0.73013   0.00000  Uiso   1.00
H1587  H     0.26917   0.46393   0.74041   0.00000  Uiso   1.00
H1588  H     0.02392   0.42526   0.80083   0.00000  Uiso   1.00
H1589  H     0.29399   0.43212   0.81372   0.00000  Uiso   1.00
C1590  C     0.00825   0.55210   0.87161   0.00000  Uiso   1.00
C1591  C     0.02485   0.54679   0.92172   0.00000  Uiso   1.00
H1592  H     0.32864   0.52670   0.93658   0.00000  Uiso   1.00
H1593  H     0.06296   0.53301   0.92795   0.00000  Uiso   1.00
H1594  H     0.02883   0.57768   0.93938   0.00000  Uiso   1.00
H1595  H     0.04112   0.56733   0.85601   0.00000  Uiso   1.00
H1596  H     0.31067   0.57466   0.86769   0.00000  Uiso   1.00
C1597  C     0.21739   0.36510   0.76371   0.00000  Uiso   1.00
C1598  C     0.20588   0.35377   0.71405   0.00000  Uiso   1.00
H1599  H     0.20482   0.65305   0.70811   0.00000  Uiso   1.00
H1600  H     0.16899   0.36587   0.69884   0.00000  Uiso   1.00
H1601  H     0.23834   0.36781   0.69730   0.00000  Uiso   1.00
H1602  H     0.22709   0.39911   0.76587   0.00000  Uiso   1.00
H1603  H     0.25347   0.35037   0.77737   0.00000  Uiso   1.00
C1604  C     0.12682   0.63246   0.91210   0.00000  Uiso   1.00
C1605  C     0.07639   0.65470   0.91167   0.00000  Uiso   1.00
H1606  H     0.08316   0.35540   0.90687   0.00000  Uiso   1.00
H1607  H     0.04716   0.64204   0.88369   0.00000  Uiso   1.00
H1608  H     0.06024   0.64997   0.94387   0.00000  Uiso   1.00
H1609  H     0.11529   0.59865   0.91071   0.00000  Uiso   1.00
H1610  H     0.15152   0.63886   0.94469   0.00000  Uiso   1.00
I1611  I     0.10747   0.61946   0.73274   0.00000  Uiso   1.00
I1612  I     0.21728   0.38111   0.93540   0.00000  Uiso   1.00
C1613  C     0.23912   0.55781   0.72281   0.00000  Uiso   1.00
C1614  C     0.29638   0.55142   0.71810   0.00000  Uiso   1.00
H1615  H     0.30031   0.52753   0.69180   0.00000  Uiso   1.00
H1616  H     0.31645   0.58138   0.70928   0.00000  Uiso   1.00
H1617  H     0.31714   0.54189   0.75041   0.00000  Uiso   1.00
H1618  H     0.23059   0.59003   0.71357   0.00000  Uiso   1.00
H1619  H     0.23563   0.55659   0.75834   0.00000  Uiso   1.00
C1620  C     0.09525   0.44119   0.94435   0.00000  Uiso   1.00
C1621  C     0.03752   0.44660   0.94820   0.00000  Uiso   1.00
H1622  H     0.01775   0.41612   0.95586   0.00000  Uiso   1.00
H1623  H     0.03242   0.46980   0.97483   0.00000  Uiso   1.00
H1624  H     0.01729   0.45665   0.91588   0.00000  Uiso   1.00
H1625  H     0.09877   0.44222   0.90881   0.00000  Uiso   1.00
H1626  H     0.10503   0.40938   0.95485   0.00000  Uiso   1.00
I1627  I     0.24177   0.57832   0.95168   0.00000  Uiso   1.00
I1628  I     0.09052   0.42276   0.71567   0.00000  Uiso   1.00
C1629  C     0.50511   0.42028   0.83358   0.00000  Uiso   1.00
C1630  C     0.49356   0.57943   0.83299   0.00000  Uiso   1.00
C1631  C     0.40080   0.49854   0.82217   0.00000  Uiso   1.00
C1632  C     0.59923   0.50167   0.84455   0.00000  Uiso   1.00
C1633  C     0.34627   0.48940   0.81921   0.00000  Uiso   1.00
C1634  C     0.65387   0.51070   0.84776   0.00000  Uiso   1.00
C1635  C     0.50855   0.35287   0.79300   0.00000  Uiso   1.00
C1636  C     0.48904   0.64689   0.87335   0.00000  Uiso   1.00
C1637  C     0.48836   0.64463   0.79200   0.00000  Uiso   1.00
C1638  C     0.50942   0.35476   0.87424   0.00000  Uiso   1.00
C1639  C     0.48552   0.62391   0.83259   0.00000  Uiso   1.00
C1640  C     0.51122   0.37550   0.83383   0.00000  Uiso   1.00
C1641  C     0.53346   0.52743   0.69448   0.00000  Uiso   1.00
C1642  C     0.46659   0.47251   0.97230   0.00000  Uiso   1.00
C1643  C     0.53152   0.52852   0.97996   0.00000  Uiso   1.00
C1644  C     0.46824   0.47168   0.68680   0.00000  Uiso   1.00
N1645  N     0.49999   0.49999   0.95240   0.00000  Uiso   1.00
N1646  N     0.50001   0.50001   0.71427   0.00000  Uiso   1.00
O1647  O     0.50000   0.43892   0.87154   0.00000  Uiso   1.00
O1648  O     0.50000   0.56108   0.79513   0.00000  Uiso   1.00
O1649  O     0.50000   0.43893   0.79510   0.00000  Uiso   1.00
O1650  O     0.50000   0.56107   0.87157   0.00000  Uiso   1.00
O1651  O     0.42392   0.50000   0.86261   0.00000  Uiso   1.00
O1652  O     0.57608   0.50000   0.80405   0.00000  Uiso   1.00
O1653  O     0.42392   0.50000   0.78617   0.00000  Uiso   1.00
O1654  O     0.57608   0.50000   0.88050   0.00000  Uiso   1.00
Zn1655 Zn    0.50000   0.49999   0.88437   0.00000  Uiso   1.00
Zn1656 Zn    0.50000   0.50001   0.78229   0.00000  Uiso   1.00
C1657  C     0.65909   0.44732   0.79679   0.00000  Uiso   1.00
C1658  C     0.64120   0.45108   0.74667   0.00000  Uiso   1.00
H1659  H     0.33630   0.47138   0.73079   0.00000  Uiso   1.00
H1660  H     0.63815   0.41965   0.73013   0.00000  Uiso   1.00
H1661  H     0.60250   0.46393   0.74041   0.00000  Uiso   1.00
H1662  H     0.35726   0.42526   0.80083   0.00000  Uiso   1.00
H1663  H     0.62733   0.43212   0.81372   0.00000  Uiso   1.00
C1664  C     0.34159   0.55210   0.87161   0.00000  Uiso   1.00
C1665  C     0.35819   0.54679   0.92172   0.00000  Uiso   1.00
H1666  H     0.66197   0.52670   0.93658   0.00000  Uiso   1.00
H1667  H     0.39629   0.53301   0.92795   0.00000  Uiso   1.00
H1668  H     0.36217   0.57768   0.93938   0.00000  Uiso   1.00
H1669  H     0.37445   0.56733   0.85601   0.00000  Uiso   1.00
H1670  H     0.64401   0.57466   0.86769   0.00000  Uiso   1.00
C1671  C     0.55072   0.36510   0.76371   0.00000  Uiso   1.00
C1672  C     0.53921   0.35377   0.71405   0.00000  Uiso   1.00
H1673  H     0.53815   0.65305   0.70811   0.00000  Uiso   1.00
H1674  H     0.50232   0.36587   0.69884   0.00000  Uiso   1.00
H1675  H     0.57167   0.36781   0.69730   0.00000  Uiso   1.00
H1676  H     0.56042   0.39911   0.76587   0.00000  Uiso   1.00
H1677  H     0.58680   0.35037   0.77737   0.00000  Uiso   1.00
C1678  C     0.46015   0.63246   0.91210   0.00000  Uiso   1.00
C1679  C     0.40972   0.65470   0.91167   0.00000  Uiso   1.00
H1680  H     0.41649   0.35540   0.90687   0.00000  Uiso   1.00
H1681  H     0.38049   0.64204   0.88369   0.00000  Uiso   1.00
H1682  H     0.39358   0.64997   0.94387   0.00000  Uiso   1.00
H1683  H     0.44863   0.59865   0.91071   0.00000  Uiso   1.00
H1684  H     0.48485   0.63886   0.94469   0.00000  Uiso   1.00
I1685  I     0.44080   0.61946   0.73274   0.00000  Uiso   1.00
I1686  I     0.55061   0.38111   0.93540   0.00000  Uiso   1.00
C1687  C     0.57245   0.55781   0.72281   0.00000  Uiso   1.00
C1688  C     0.62972   0.55142   0.71810   0.00000  Uiso   1.00
H1689  H     0.63364   0.52753   0.69180   0.00000  Uiso   1.00
H1690  H     0.64978   0.58138   0.70928   0.00000  Uiso   1.00
H1691  H     0.65048   0.54189   0.75041   0.00000  Uiso   1.00
H1692  H     0.56392   0.59003   0.71357   0.00000  Uiso   1.00
H1693  H     0.56896   0.55659   0.75834   0.00000  Uiso   1.00
C1694  C     0.42859   0.44119   0.94435   0.00000  Uiso   1.00
C1695  C     0.37086   0.44660   0.94820   0.00000  Uiso   1.00
H1696  H     0.35108   0.41612   0.95586   0.00000  Uiso   1.00
H1697  H     0.36575   0.46980   0.97483   0.00000  Uiso   1.00
H1698  H     0.35062   0.45665   0.91588   0.00000  Uiso   1.00
H1699  H     0.43210   0.44222   0.90881   0.00000  Uiso   1.00
H1700  H     0.43836   0.40938   0.95485   0.00000  Uiso   1.00
I1701  I     0.57511   0.57832   0.95168   0.00000  Uiso   1.00
I1702  I     0.42385   0.42276   0.71567   0.00000  Uiso   1.00
C1703  C     0.83845   0.42028   0.83358   0.00000  Uiso   1.00
C1704  C     0.82689   0.57943   0.83299   0.00000  Uiso   1.00
C1705  C     0.73413   0.49854   0.82217   0.00000  Uiso   1.00
C1706  C     0.93256   0.50167   0.84455   0.00000  Uiso   1.00
C1707  C     0.67960   0.48940   0.81921   0.00000  Uiso   1.00
C1708  C     0.98721   0.51070   0.84776   0.00000  Uiso   1.00
C1709  C     0.84188   0.35287   0.79300   0.00000  Uiso   1.00
C1710  C     0.82238   0.64689   0.87335   0.00000  Uiso   1.00
C1711  C     0.82169   0.64463   0.79200   0.00000  Uiso   1.00
C1712  C     0.84275   0.35476   0.87424   0.00000  Uiso   1.00
C1713  C     0.81886   0.62391   0.83259   0.00000  Uiso   1.00
C1714  C     0.84455   0.37550   0.83383   0.00000  Uiso   1.00
C1715  C     0.86679   0.52743   0.69448   0.00000  Uiso   1.00
C1716  C     0.79992   0.47251   0.97230   0.00000  Uiso   1.00
C1717  C     0.86485   0.52852   0.97996   0.00000  Uiso   1.00
C1718  C     0.80158   0.47168   0.68680   0.00000  Uiso   1.00
N1719  N     0.83332   0.49999   0.95240   0.00000  Uiso   1.00
N1720  N     0.83335   0.50001   0.71427   0.00000  Uiso   1.00
O1721  O     0.83333   0.43892   0.87154   0.00000  Uiso   1.00
O1722  O     0.83334   0.56108   0.79513   0.00000  Uiso   1.00
O1723  O     0.83333   0.43893   0.79510   0.00000  Uiso   1.00
O1724  O     0.83334   0.56107   0.87157   0.00000  Uiso   1.00
O1725  O     0.75725   0.50000   0.86261   0.00000  Uiso   1.00
O1726  O     0.90942   0.50000   0.80405   0.00000  Uiso   1.00
O1727  O     0.75725   0.50000   0.78617   0.00000  Uiso   1.00
O1728  O     0.90942   0.50000   0.88050   0.00000  Uiso   1.00
Zn1729 Zn    0.83333   0.49999   0.88437   0.00000  Uiso   1.00
Zn1730 Zn    0.83333   0.50001   0.78229   0.00000  Uiso   1.00
C1731  C     0.99242   0.44732   0.79679   0.00000  Uiso   1.00
C1732  C     0.97453   0.45108   0.74667   0.00000  Uiso   1.00
H1733  H     0.66963   0.47138   0.73079   0.00000  Uiso   1.00
H1734  H     0.97148   0.41965   0.73013   0.00000  Uiso   1.00
H1735  H     0.93584   0.46393   0.74041   0.00000  Uiso   1.00
H1736  H     0.69059   0.42526   0.80083   0.00000  Uiso   1.00
H1737  H     0.96066   0.43212   0.81372   0.00000  Uiso   1.00
C1738  C     0.67492   0.55210   0.87161   0.00000  Uiso   1.00
C1739  C     0.69152   0.54679   0.92172   0.00000  Uiso   1.00
H1740  H     0.99531   0.52670   0.93658   0.00000  Uiso   1.00
H1741  H     0.72963   0.53301   0.92795   0.00000  Uiso   1.00
H1742  H     0.69550   0.57768   0.93938   0.00000  Uiso   1.00
H1743  H     0.70779   0.56733   0.85601   0.00000  Uiso   1.00
H1744  H     0.97734   0.57466   0.86769   0.00000  Uiso   1.00
C1745  C     0.88406   0.36510   0.76371   0.00000  Uiso   1.00
C1746  C     0.87254   0.35377   0.71405   0.00000  Uiso   1.00
H1747  H     0.87149   0.65305   0.70811   0.00000  Uiso   1.00
H1748  H     0.83565   0.36587   0.69884   0.00000  Uiso   1.00
H1749  H     0.90500   0.36781   0.69730   0.00000  Uiso   1.00
H1750  H     0.89376   0.39911   0.76587   0.00000  Uiso   1.00
H1751  H     0.92013   0.35037   0.77737   0.00000  Uiso   1.00
C1752  C     0.79349   0.63246   0.91210   0.00000  Uiso   1.00
C1753  C     0.74306   0.65470   0.91167   0.00000  Uiso   1.00
H1754  H     0.74983   0.35540   0.90687   0.00000  Uiso   1.00
H1755  H     0.71382   0.64204   0.88369   0.00000  Uiso   1.00
H1756  H     0.72691   0.64997   0.94387   0.00000  Uiso   1.00
H1757  H     0.78196   0.59865   0.91071   0.00000  Uiso   1.00
H1758  H     0.81819   0.63886   0.94469   0.00000  Uiso   1.00
I1759  I     0.77413   0.61946   0.73274   0.00000  Uiso   1.00
I1760  I     0.88394   0.38111   0.93540   0.00000  Uiso   1.00
C1761  C     0.90579   0.55781   0.72281   0.00000  Uiso   1.00
C1762  C     0.96305   0.55142   0.71810   0.00000  Uiso   1.00
H1763  H     0.96698   0.52753   0.69180   0.00000  Uiso   1.00
H1764  H     0.98312   0.58138   0.70928   0.00000  Uiso   1.00
H1765  H     0.98381   0.54189   0.75041   0.00000  Uiso   1.00
H1766  H     0.89726   0.59003   0.71357   0.00000  Uiso   1.00
H1767  H     0.90230   0.55659   0.75834   0.00000  Uiso   1.00
C1768  C     0.76192   0.44119   0.94435   0.00000  Uiso   1.00
C1769  C     0.70419   0.44660   0.94820   0.00000  Uiso   1.00
H1770  H     0.68442   0.41612   0.95586   0.00000  Uiso   1.00
H1771  H     0.69908   0.46980   0.97483   0.00000  Uiso   1.00
H1772  H     0.68395   0.45665   0.91588   0.00000  Uiso   1.00
H1773  H     0.76544   0.44222   0.90881   0.00000  Uiso   1.00
H1774  H     0.77169   0.40938   0.95485   0.00000  Uiso   1.00
I1775  I     0.90844   0.57832   0.95168   0.00000  Uiso   1.00
I1776  I     0.75718   0.42276   0.71567   0.00000  Uiso   1.00
C1777  C     0.17178   0.75361   0.83358   0.00000  Uiso   1.00
C1778  C     0.16022   0.91276   0.83299   0.00000  Uiso   1.00
C1779  C     0.06747   0.83187   0.82217   0.00000  Uiso   1.00
C1780  C     0.26590   0.83500   0.84455   0.00000  Uiso   1.00
C1781  C     0.01293   0.82273   0.81921   0.00000  Uiso   1.00
C1782  C     0.32054   0.84403   0.84776   0.00000  Uiso   1.00
C1783  C     0.17521   0.68620   0.79300   0.00000  Uiso   1.00
C1784  C     0.15571   0.98022   0.87335   0.00000  Uiso   1.00
C1785  C     0.15502   0.97796   0.79200   0.00000  Uiso   1.00
C1786  C     0.17608   0.68809   0.87424   0.00000  Uiso   1.00
C1787  C     0.15219   0.95724   0.83259   0.00000  Uiso   1.00
C1788  C     0.17788   0.70883   0.83383   0.00000  Uiso   1.00
C1789  C     0.20013   0.86076   0.69448   0.00000  Uiso   1.00
C1790  C     0.13325   0.80584   0.97230   0.00000  Uiso   1.00
C1791  C     0.19818   0.86186   0.97996   0.00000  Uiso   1.00
C1792  C     0.13491   0.80501   0.68680   0.00000  Uiso   1.00
N1793  N     0.16665   0.83332   0.95240   0.00000  Uiso   1.00
N1794  N     0.16668   0.83334   0.71427   0.00000  Uiso   1.00
O1795  O     0.16666   0.77225   0.87154   0.00000  Uiso   1.00
O1796  O     0.16667   0.89442   0.79513   0.00000  Uiso   1.00
O1797  O     0.16666   0.77226   0.79510   0.00000  Uiso   1.00
O1798  O     0.16667   0.89441   0.87157   0.00000  Uiso   1.00
O1799  O     0.09058   0.83333   0.86261   0.00000  Uiso   1.00
O1800  O     0.24275   0.83334   0.80405   0.00000  Uiso   1.00
O1801  O     0.09058   0.83334   0.78617   0.00000  Uiso   1.00
O1802  O     0.24275   0.83333   0.88050   0.00000  Uiso   1.00
Zn1803 Zn    0.16667   0.83333   0.88437   0.00000  Uiso   1.00
Zn1804 Zn    0.16667   0.83334   0.78229   0.00000  Uiso   1.00
C1805  C     0.32576   0.78065   0.79679   0.00000  Uiso   1.00
C1806  C     0.30786   0.78442   0.74667   0.00000  Uiso   1.00
H1807  H     0.00296   0.80471   0.73079   0.00000  Uiso   1.00
H1808  H     0.30481   0.75299   0.73013   0.00000  Uiso   1.00
H1809  H     0.26917   0.79726   0.74041   0.00000  Uiso   1.00
H1810  H     0.02392   0.75860   0.80083   0.00000  Uiso   1.00
H1811  H     0.29399   0.76545   0.81372   0.00000  Uiso   1.00
C1812  C     0.00825   0.88543   0.87161   0.00000  Uiso   1.00
C1813  C     0.02485   0.88012   0.92172   0.00000  Uiso   1.00
H1814  H     0.32864   0.86003   0.93658   0.00000  Uiso   1.00
H1815  H     0.06296   0.86635   0.92795   0.00000  Uiso   1.00
H1816  H     0.02883   0.91102   0.93938   0.00000  Uiso   1.00
H1817  H     0.04112   0.90066   0.85601   0.00000  Uiso   1.00
H1818  H     0.31067   0.90799   0.86769   0.00000  Uiso   1.00
C1819  C     0.21739   0.69843   0.76371   0.00000  Uiso   1.00
C1820  C     0.20588   0.68710   0.71405   0.00000  Uiso   1.00
H1821  H     0.20482   0.98638   0.70811   0.00000  Uiso   1.00
H1822  H     0.16899   0.69921   0.69884   0.00000  Uiso   1.00
H1823  H     0.23834   0.70114   0.69730   0.00000  Uiso   1.00
H1824  H     0.22709   0.73245   0.76587   0.00000  Uiso   1.00
H1825  H     0.25347   0.68371   0.77737   0.00000  Uiso   1.00
C1826  C     0.12682   0.96579   0.91210   0.00000  Uiso   1.00
C1827  C     0.07639   0.98803   0.91167   0.00000  Uiso   1.00
H1828  H     0.08316   0.68873   0.90687   0.00000  Uiso   1.00
H1829  H     0.04716   0.97537   0.88369   0.00000  Uiso   1.00
H1830  H     0.06024   0.98330   0.94387   0.00000  Uiso   1.00
H1831  H     0.11529   0.93198   0.91071   0.00000  Uiso   1.00
H1832  H     0.15152   0.97219   0.94469   0.00000  Uiso   1.00
I1833  I     0.10747   0.95280   0.73274   0.00000  Uiso   1.00
I1834  I     0.21728   0.71445   0.93540   0.00000  Uiso   1.00
C1835  C     0.23912   0.89114   0.72281   0.00000  Uiso   1.00
C1836  C     0.29638   0.88475   0.71810   0.00000  Uiso   1.00
H1837  H     0.30031   0.86087   0.69180   0.00000  Uiso   1.00
H1838  H     0.31645   0.91471   0.70928   0.00000  Uiso   1.00
H1839  H     0.31714   0.87522   0.75041   0.00000  Uiso   1.00
H1840  H     0.23059   0.92336   0.71357   0.00000  Uiso   1.00
H1841  H     0.23563   0.88992   0.75834   0.00000  Uiso   1.00
C1842  C     0.09525   0.77452   0.94435   0.00000  Uiso   1.00
C1843  C     0.03752   0.77993   0.94820   0.00000  Uiso   1.00
H1844  H     0.01775   0.74946   0.95586   0.00000  Uiso   1.00
H1845  H     0.03242   0.80314   0.97483   0.00000  Uiso   1.00
H1846  H     0.01729   0.78999   0.91588   0.00000  Uiso   1.00
H1847  H     0.09877   0.77556   0.90881   0.00000  Uiso   1.00
H1848  H     0.10503   0.74271   0.95485   0.00000  Uiso   1.00
I1849  I     0.24177   0.91166   0.95168   0.00000  Uiso   1.00
I1850  I     0.09052   0.75609   0.71567   0.00000  Uiso   1.00
C1851  C     0.50511   0.75361   0.83358   0.00000  Uiso   1.00
C1852  C     0.49356   0.91276   0.83299   0.00000  Uiso   1.00
C1853  C     0.40080   0.83187   0.82217   0.00000  Uiso   1.00
C1854  C     0.59923   0.83500   0.84455   0.00000  Uiso   1.00
C1855  C     0.34627   0.82273   0.81921   0.00000  Uiso   1.00
C1856  C     0.65387   0.84403   0.84776   0.00000  Uiso   1.00
C1857  C     0.50855   0.68620   0.79300   0.00000  Uiso   1.00
C1858  C     0.48904   0.98022   0.87335   0.00000  Uiso   1.00
C1859  C     0.48836   0.97796   0.79200   0.00000  Uiso   1.00
C1860  C     0.50942   0.68809   0.87424   0.00000  Uiso   1.00
C1861  C     0.48552   0.95724   0.83259   0.00000  Uiso   1.00
C1862  C     0.51122   0.70883   0.83383   0.00000  Uiso   1.00
C1863  C     0.53346   0.86076   0.69448   0.00000  Uiso   1.00
C1864  C     0.46659   0.80584   0.97230   0.00000  Uiso   1.00
C1865  C     0.53152   0.86186   0.97996   0.00000  Uiso   1.00
C1866  C     0.46824   0.80501   0.68680   0.00000  Uiso   1.00
N1867  N     0.49999   0.83332   0.95240   0.00000  Uiso   1.00
N1868  N     0.50001   0.83334   0.71427   0.00000  Uiso   1.00
O1869  O     0.50000   0.77225   0.87154   0.00000  Uiso   1.00
O1870  O     0.50000   0.89442   0.79513   0.00000  Uiso   1.00
O1871  O     0.50000   0.77226   0.79510   0.00000  Uiso   1.00
O1872  O     0.50000   0.89441   0.87157   0.00000  Uiso   1.00
O1873  O     0.42392   0.83333   0.86261   0.00000  Uiso   1.00
O1874  O     0.57608   0.83334   0.80405   0.00000  Uiso   1.00
O1875  O     0.42392   0.83334   0.78617   0.00000  Uiso   1.00
O1876  O     0.57608   0.83333   0.88050   0.00000  Uiso   1.00
Zn1877 Zn    0.50000   0.83333   0.88437   0.00000  Uiso   1.00
Zn1878 Zn    0.50000   0.83334   0.78229   0.00000  Uiso   1.00
C1879  C     0.65909   0.78065   0.79679   0.00000  Uiso   1.00
C1880  C     0.64120   0.78442   0.74667   0.00000  Uiso   1.00
H1881  H     0.33630   0.80471   0.73079   0.00000  Uiso   1.00
H1882  H     0.63815   0.75299   0.73013   0.00000  Uiso   1.00
H1883  H     0.60250   0.79726   0.74041   0.00000  Uiso   1.00
H1884  H     0.35726   0.75860   0.80083   0.00000  Uiso   1.00
H1885  H     0.62733   0.76545   0.81372   0.00000  Uiso   1.00
C1886  C     0.34159   0.88543   0.87161   0.00000  Uiso   1.00
C1887  C     0.35819   0.88012   0.92172   0.00000  Uiso   1.00
H1888  H     0.66197   0.86003   0.93658   0.00000  Uiso   1.00
H1889  H     0.39629   0.86635   0.92795   0.00000  Uiso   1.00
H1890  H     0.36217   0.91102   0.93938   0.00000  Uiso   1.00
H1891  H     0.37445   0.90066   0.85601   0.00000  Uiso   1.00
H1892  H     0.64401   0.90799   0.86769   0.00000  Uiso   1.00
C1893  C     0.55072   0.69843   0.76371   0.00000  Uiso   1.00
C1894  C     0.53921   0.68710   0.71405   0.00000  Uiso   1.00
H1895  H     0.53815   0.98638   0.70811   0.00000  Uiso   1.00
H1896  H     0.50232   0.69921   0.69884   0.00000  Uiso   1.00
H1897  H     0.57167   0.70114   0.69730   0.00000  Uiso   1.00
H1898  H     0.56042   0.73245   0.76587   0.00000  Uiso   1.00
H1899  H     0.58680   0.68371   0.77737   0.00000  Uiso   1.00
C1900  C     0.46015   0.96579   0.91210   0.00000  Uiso   1.00
C1901  C     0.40972   0.98803   0.91167   0.00000  Uiso   1.00
H1902  H     0.41649   0.68873   0.90687   0.00000  Uiso   1.00
H1903  H     0.38049   0.97537   0.88369   0.00000  Uiso   1.00
H1904  H     0.39358   0.98330   0.94387   0.00000  Uiso   1.00
H1905  H     0.44863   0.93198   0.91071   0.00000  Uiso   1.00
H1906  H     0.48485   0.97219   0.94469   0.00000  Uiso   1.00
I1907  I     0.44080   0.95280   0.73274   0.00000  Uiso   1.00
I1908  I     0.55061   0.71445   0.93540   0.00000  Uiso   1.00
C1909  C     0.57245   0.89114   0.72281   0.00000  Uiso   1.00
C1910  C     0.62972   0.88475   0.71810   0.00000  Uiso   1.00
H1911  H     0.63364   0.86087   0.69180   0.00000  Uiso   1.00
H1912  H     0.64978   0.91471   0.70928   0.00000  Uiso   1.00
H1913  H     0.65048   0.87522   0.75041   0.00000  Uiso   1.00
H1914  H     0.56392   0.92336   0.71357   0.00000  Uiso   1.00
H1915  H     0.56896   0.88992   0.75834   0.00000  Uiso   1.00
C1916  C     0.42859   0.77452   0.94435   0.00000  Uiso   1.00
C1917  C     0.37086   0.77993   0.94820   0.00000  Uiso   1.00
H1918  H     0.35108   0.74946   0.95586   0.00000  Uiso   1.00
H1919  H     0.36575   0.80314   0.97483   0.00000  Uiso   1.00
H1920  H     0.35062   0.78999   0.91588   0.00000  Uiso   1.00
H1921  H     0.43210   0.77556   0.90881   0.00000  Uiso   1.00
H1922  H     0.43836   0.74271   0.95485   0.00000  Uiso   1.00
I1923  I     0.57511   0.91166   0.95168   0.00000  Uiso   1.00
I1924  I     0.42385   0.75609   0.71567   0.00000  Uiso   1.00
C1925  C     0.83845   0.75361   0.83358   0.00000  Uiso   1.00
C1926  C     0.82689   0.91276   0.83299   0.00000  Uiso   1.00
C1927  C     0.73413   0.83187   0.82217   0.00000  Uiso   1.00
C1928  C     0.93256   0.83500   0.84455   0.00000  Uiso   1.00
C1929  C     0.67960   0.82273   0.81921   0.00000  Uiso   1.00
C1930  C     0.98721   0.84403   0.84776   0.00000  Uiso   1.00
C1931  C     0.84188   0.68620   0.79300   0.00000  Uiso   1.00
C1932  C     0.82238   0.98022   0.87335   0.00000  Uiso   1.00
C1933  C     0.82169   0.97796   0.79200   0.00000  Uiso   1.00
C1934  C     0.84275   0.68809   0.87424   0.00000  Uiso   1.00
C1935  C     0.81886   0.95724   0.83259   0.00000  Uiso   1.00
C1936  C     0.84455   0.70883   0.83383   0.00000  Uiso   1.00
C1937  C     0.86679   0.86076   0.69448   0.00000  Uiso   1.00
C1938  C     0.79992   0.80584   0.97230   0.00000  Uiso   1.00
C1939  C     0.86485   0.86186   0.97996   0.00000  Uiso   1.00
C1940  C     0.80158   0.80501   0.68680   0.00000  Uiso   1.00
N1941  N     0.83332   0.83332   0.95240   0.00000  Uiso   1.00
N1942  N     0.83335   0.83334   0.71427   0.00000  Uiso   1.00
O1943  O     0.83333   0.77225   0.87154   0.00000  Uiso   1.00
O1944  O     0.83334   0.89442   0.79513   0.00000  Uiso   1.00
O1945  O     0.83333   0.77226   0.79510   0.00000  Uiso   1.00
O1946  O     0.83334   0.89441   0.87157   0.00000  Uiso   1.00
O1947  O     0.75725   0.83333   0.86261   0.00000  Uiso   1.00
O1948  O     0.90942   0.83334   0.80405   0.00000  Uiso   1.00
O1949  O     0.75725   0.83334   0.78617   0.00000  Uiso   1.00
O1950  O     0.90942   0.83333   0.88050   0.00000  Uiso   1.00
Zn1951 Zn    0.83333   0.83333   0.88437   0.00000  Uiso   1.00
Zn1952 Zn    0.83333   0.83334   0.78229   0.00000  Uiso   1.00
C1953  C     0.99242   0.78065   0.79679   0.00000  Uiso   1.00
C1954  C     0.97453   0.78442   0.74667   0.00000  Uiso   1.00
H1955  H     0.66963   0.80471   0.73079   0.00000  Uiso   1.00
H1956  H     0.97148   0.75299   0.73013   0.00000  Uiso   1.00
H1957  H     0.93584   0.79726   0.74041   0.00000  Uiso   1.00
H1958  H     0.69059   0.75860   0.80083   0.00000  Uiso   1.00
H1959  H     0.96066   0.76545   0.81372   0.00000  Uiso   1.00
C1960  C     0.67492   0.88543   0.87161   0.00000  Uiso   1.00
C1961  C     0.69152   0.88012   0.92172   0.00000  Uiso   1.00
H1962  H     0.99531   0.86003   0.93658   0.00000  Uiso   1.00
H1963  H     0.72963   0.86635   0.92795   0.00000  Uiso   1.00
H1964  H     0.69550   0.91102   0.93938   0.00000  Uiso   1.00
H1965  H     0.70779   0.90066   0.85601   0.00000  Uiso   1.00
H1966  H     0.97734   0.90799   0.86769   0.00000  Uiso   1.00
C1967  C     0.88406   0.69843   0.76371   0.00000  Uiso   1.00
C1968  C     0.87254   0.68710   0.71405   0.00000  Uiso   1.00
H1969  H     0.87149   0.98638   0.70811   0.00000  Uiso   1.00
H1970  H     0.83565   0.69921   0.69884   0.00000  Uiso   1.00
H1971  H     0.90500   0.70114   0.69730   0.00000  Uiso   1.00
H1972  H     0.89376   0.73245   0.76587   0.00000  Uiso   1.00
H1973  H     0.92013   0.68371   0.77737   0.00000  Uiso   1.00
C1974  C     0.79349   0.96579   0.91210   0.00000  Uiso   1.00
C1975  C     0.74306   0.98803   0.91167   0.00000  Uiso   1.00
H1976  H     0.74983   0.68873   0.90687   0.00000  Uiso   1.00
H1977  H     0.71382   0.97537   0.88369   0.00000  Uiso   1.00
H1978  H     0.72691   0.98330   0.94387   0.00000  Uiso   1.00
H1979  H     0.78196   0.93198   0.91071   0.00000  Uiso   1.00
H1980  H     0.81819   0.97219   0.94469   0.00000  Uiso   1.00
I1981  I     0.77413   0.95280   0.73274   0.00000  Uiso   1.00
I1982  I     0.88394   0.71445   0.93540   0.00000  Uiso   1.00
C1983  C     0.90579   0.89114   0.72281   0.00000  Uiso   1.00
C1984  C     0.96305   0.88475   0.71810   0.00000  Uiso   1.00
H1985  H     0.96698   0.86087   0.69180   0.00000  Uiso   1.00
H1986  H     0.98312   0.91471   0.70928   0.00000  Uiso   1.00
H1987  H     0.98381   0.87522   0.75041   0.00000  Uiso   1.00
H1988  H     0.89726   0.92336   0.71357   0.00000  Uiso   1.00
H1989  H     0.90230   0.88992   0.75834   0.00000  Uiso   1.00
C1990  C     0.76192   0.77452   0.94435   0.00000  Uiso   1.00
C1991  C     0.70419   0.77993   0.94820   0.00000  Uiso   1.00
H1992  H     0.68442   0.74946   0.95586   0.00000  Uiso   1.00
H1993  H     0.69908   0.80314   0.97483   0.00000  Uiso   1.00
H1994  H     0.68395   0.78999   0.91588   0.00000  Uiso   1.00
H1995  H     0.76544   0.77556   0.90881   0.00000  Uiso   1.00
H1996  H     0.77169   0.74271   0.95485   0.00000  Uiso   1.00
I1997  I     0.90844   0.91166   0.95168   0.00000  Uiso   1.00
I1998  I     0.75718   0.75609   0.71567   0.00000  Uiso   1.00
loop_
_geom_bond_atom_site_label_1
_geom_bond_atom_site_label_2
_geom_bond_distance
_geom_bond_site_symmetry_2
_ccdc_geom_bond_type
C1     O21     1.306   .     A
C1     C12     1.453   .     S
C1     O19     1.305   .     A
C2     O22     1.306   .     A
C2     C11     1.453   .     S
C2     O20     1.307   .     A
C3     C5      1.415   .     S
C3     O25     1.301   .     A
C3     O23     1.285   .     A
C4     O26     1.300   .     A
C4     O24     1.286   .     A
C4     C6      1.417   .     S
C5     C154    1.355   1_455 S
C5     C177    1.527   1_455 S
C6     C79     1.355   .     S
C6     C110    1.529   .     S
C7     C43     1.522   .     S
C7     C12     1.407   .     A
C7     C453    1.394   1_545 S
C8     C11     1.409   .     A
C8     C50     1.522   .     S
C8     C232    1.384   .     S
C9     C11     1.405   .     A
C9     I57     2.146   .     S
C9     C229    1.394   .     S
C10    C12     1.398   .     A
C10    I58     2.136   .     S
C10    C452    1.384   1_545 S
C13    C59     1.521   .     S
C13    N18     1.384   .     A
C13    C1347   1.434   1_554 S
C14    N17     1.386   .     A
C14    C66     1.519   .     S
C14    C682    1.434   .     S
C15    I73     2.138   .     S
C15    N17     1.375   .     A
C15    C679    1.434   .     S
C16    I74     2.138   .     S
C16    N18     1.372   .     A
C16    C1346   1.434   1_554 S
N17    Zn27    2.045   .     S
N18    Zn28    2.045   .     S
O19    Zn27    1.987   .     S
O20    Zn28    1.987   .     S
O21    Zn28    1.998   .     S
O22    Zn27    1.998   .     S
O23    Zn27    1.998   .     S
O24    Zn28    1.998   .     S
O25    Zn28    1.990   .     S
O26    Zn27    1.990   .     S
C29    H35     1.109   .     S
C29    C30     1.529   .     S
C29    C79     1.527   .     S
C29    H108    1.113   .     S
C30    H32     1.109   .     S
C30    H33     1.106   .     S
C30    H105    1.106   .     S
H31    C178    1.106   1_455 S
H34    C177    1.113   1_455 S
C36    H41     1.110   .     S
C36    C37     1.529   .     S
C36    C154    1.529   1_455 S
C36    H190    1.113   1_455 S
C37    H39     1.106   .     S
C37    H40     1.107   .     S
C37    H186    1.107   1_455 S
H38    C111    1.107   .     S
H42    C110    1.113   .     S
C43    C44     1.518   .     S
C43    H48     1.099   .     S
C43    H49     1.112   .     S
C44    H47     1.106   .     S
C44    H46     1.105   .     S
C44    H489    1.100   1_545 S
H45    C266    1.100   .     S
C50    H55     1.101   .     S
C50    C51     1.531   .     S
C50    H56     1.109   .     S
C51    H54     1.110   .     S
C51    H53     1.110   .     S
C51    H274    1.106   .     S
H52    C495    1.106   1_545 S
C59    C60     1.536   .     S
C59    H65     1.084   .     S
C59    H64     1.102   .     S
C60    H62     1.110   .     S
C60    H63     1.108   .     S
C60    H61     1.110   .     S
C66    H71     1.084   .     S
C66    C67     1.537   .     S
C66    H72     1.108   .     S
C67    H70     1.108   .     S
C67    H68     1.111   .     S
C67    H69     1.110   .     S
C75    O95     1.306   .     A
C75    C86     1.453   .     S
C75    O93     1.305   .     A
C76    O96     1.306   .     A
C76    C85     1.453   .     S
C76    O94     1.307   .     A
C77    C79     1.415   .     S
C77    O99     1.301   .     A
C77    O97     1.285   .     A
C78    O100    1.300   .     A
C78    O98     1.286   .     A
C78    C80     1.417   .     S
C80    C153    1.355   .     S
C80    C184    1.529   .     S
C81    C117    1.522   .     S
C81    C86     1.407   .     A
C81    C527    1.394   1_545 S
C82    C85     1.409   .     A
C82    C124    1.522   .     S
C82    C306    1.384   .     S
C83    C85     1.405   .     A
C83    I131    2.146   .     S
C83    C303    1.394   .     S
C84    C86     1.398   .     A
C84    I132    2.136   .     S
C84    C526    1.384   1_545 S
C87    C133    1.521   .     S
C87    N92     1.384   .     A
C87    C1421   1.434   1_554 S
C88    N91     1.386   .     A
C88    C140    1.519   .     S
C88    C756    1.434   .     S
C89    I147    2.138   .     S
C89    N91     1.375   .     A
C89    C753    1.434   .     S
C90    I148    2.138   .     S
C90    N92     1.372   .     A
C90    C1420   1.434   1_554 S
N91    Zn101   2.045   .     S
N92    Zn102   2.045   .     S
O93    Zn101   1.987   .     S
O94    Zn102   1.987   .     S
O95    Zn102   1.998   .     S
O96    Zn101   1.998   .     S
O97    Zn101   1.998   .     S
O98    Zn102   1.998   .     S
O99    Zn102   1.990   .     S
O100   Zn101   1.990   .     S
C103   H109    1.109   .     S
C103   C104    1.529   .     S
C103   C153    1.527   .     S
C103   H182    1.113   .     S
C104   H106    1.109   .     S
C104   H107    1.106   .     S
C104   H179    1.106   .     S
C110   H115    1.110   .     S
C110   C111    1.529   .     S
C111   H113    1.106   .     S
C111   H114    1.107   .     S
H112   C185    1.107   .     S
H116   C184    1.113   .     S
C117   C118    1.518   .     S
C117   H122    1.099   .     S
C117   H123    1.112   .     S
C118   H121    1.106   .     S
C118   H120    1.105   .     S
C118   H563    1.100   1_545 S
H119   C340    1.100   .     S
C124   H129    1.101   .     S
C124   C125    1.531   .     S
C124   H130    1.109   .     S
C125   H128    1.110   .     S
C125   H127    1.110   .     S
C125   H348    1.106   .     S
H126   C569    1.106   1_545 S
C133   C134    1.536   .     S
C133   H139    1.084   .     S
C133   H138    1.102   .     S
C134   H136    1.110   .     S
C134   H137    1.108   .     S
C134   H135    1.110   .     S
C140   H145    1.084   .     S
C140   C141    1.537   .     S
C140   H146    1.108   .     S
C141   H144    1.108   .     S
C141   H142    1.111   .     S
C141   H143    1.110   .     S
C149   O169    1.306   .     A
C149   C160    1.453   .     S
C149   O167    1.305   .     A
C150   O170    1.306   .     A
C150   C159    1.453   .     S
C150   O168    1.307   .     A
C151   C153    1.415   .     S
C151   O173    1.301   .     A
C151   O171    1.285   .     A
C152   O174    1.300   .     A
C152   O172    1.286   .     A
C152   C154    1.417   .     S
C154   C5      1.355   1_655 S
C154   C36     1.529   1_655 S
C155   C191    1.522   .     S
C155   C160    1.407   .     A
C155   C601    1.394   1_545 S
C156   C159    1.409   .     A
C156   C198    1.522   .     S
C156   C380    1.384   .     S
C157   C159    1.405   .     A
C157   I205    2.146   .     S
C157   C377    1.394   .     S
C158   C160    1.398   .     A
C158   I206    2.136   .     S
C158   C600    1.384   1_545 S
C161   C207    1.521   .     S
C161   N166    1.384   .     A
C161   C1495   1.434   1_554 S
C162   N165    1.386   .     A
C162   C214    1.519   .     S
C162   C830    1.434   .     S
C163   I221    2.138   .     S
C163   N165    1.375   .     A
C163   C827    1.434   .     S
C164   I222    2.138   .     S
C164   N166    1.372   .     A
C164   C1494   1.434   1_554 S
N165   Zn175   2.045   .     S
N166   Zn176   2.045   .     S
O167   Zn175   1.987   .     S
O168   Zn176   1.987   .     S
O169   Zn176   1.998   .     S
O170   Zn175   1.998   .     S
O171   Zn175   1.998   .     S
O172   Zn176   1.998   .     S
O173   Zn176   1.990   .     S
O174   Zn175   1.990   .     S
C177   H183    1.109   .     S
C177   C178    1.529   .     S
C177   C5      1.527   1_655 S
C177   H34     1.113   1_655 S
C178   H180    1.109   .     S
C178   H181    1.106   .     S
C178   H31     1.106   1_655 S
C184   H189    1.110   .     S
C184   C185    1.529   .     S
C185   H187    1.106   .     S
C185   H188    1.107   .     S
H186   C37     1.107   1_655 S
H190   C36     1.113   1_655 S
C191   C192    1.518   .     S
C191   H196    1.099   .     S
C191   H197    1.112   .     S
C192   H195    1.106   .     S
C192   H194    1.105   .     S
C192   H637    1.100   1_545 S
H193   C414    1.100   .     S
C198   H203    1.101   .     S
C198   C199    1.531   .     S
C198   H204    1.109   .     S
C199   H202    1.110   .     S
C199   H201    1.110   .     S
C199   H422    1.106   .     S
H200   C643    1.106   1_545 S
C207   C208    1.536   .     S
C207   H213    1.084   .     S
C207   H212    1.102   .     S
C208   H210    1.110   .     S
C208   H211    1.108   .     S
C208   H209    1.110   .     S
C214   H219    1.084   .     S
C214   C215    1.537   .     S
C214   H220    1.108   .     S
C215   H218    1.108   .     S
C215   H216    1.111   .     S
C215   H217    1.110   .     S
C223   O243    1.306   .     A
C223   C234    1.453   .     S
C223   O241    1.305   .     A
C224   O244    1.306   .     A
C224   C233    1.453   .     S
C224   O242    1.307   .     A
C225   C227    1.415   .     S
C225   O247    1.301   .     A
C225   O245    1.285   .     A
C226   O248    1.300   .     A
C226   O246    1.286   .     A
C226   C228    1.417   .     S
C227   C376    1.355   1_455 S
C227   C399    1.527   1_455 S
C228   C301    1.355   .     S
C228   C332    1.529   .     S
C229   C265    1.522   .     S
C229   C234    1.407   .     A
C230   C233    1.409   .     A
C230   C272    1.522   .     S
C230   C454    1.384   .     S
C231   C233    1.405   .     A
C231   I279    2.146   .     S
C231   C451    1.394   .     S
C232   C234    1.398   .     A
C232   I280    2.136   .     S
C235   C281    1.521   .     S
C235   N240    1.384   .     A
C235   C1569   1.434   1_554 S
C236   N239    1.386   .     A
C236   C288    1.519   .     S
C236   C904    1.434   .     S
C237   I295    2.138   .     S
C237   N239    1.375   .     A
C237   C901    1.434   .     S
C238   I296    2.138   .     S
C238   N240    1.372   .     A
C238   C1568   1.434   1_554 S
N239   Zn249   2.045   .     S
N240   Zn250   2.045   .     S
O241   Zn249   1.987   .     S
O242   Zn250   1.987   .     S
O243   Zn250   1.998   .     S
O244   Zn249   1.998   .     S
O245   Zn249   1.998   .     S
O246   Zn250   1.998   .     S
O247   Zn250   1.990   .     S
O248   Zn249   1.990   .     S
C251   H257    1.109   .     S
C251   C252    1.529   .     S
C251   C301    1.527   .     S
C251   H330    1.113   .     S
C252   H254    1.109   .     S
C252   H255    1.106   .     S
C252   H327    1.106   .     S
H253   C400    1.106   1_455 S
H256   C399    1.113   1_455 S
C258   H263    1.110   .     S
C258   C259    1.529   .     S
C258   C376    1.529   1_455 S
C258   H412    1.113   1_455 S
C259   H261    1.106   .     S
C259   H262    1.107   .     S
C259   H408    1.107   1_455 S
H260   C333    1.107   .     S
H264   C332    1.113   .     S
C265   C266    1.518   .     S
C265   H270    1.099   .     S
C265   H271    1.112   .     S
C266   H269    1.106   .     S
C266   H268    1.105   .     S
H267   C488    1.100   .     S
C272   H277    1.101   .     S
C272   C273    1.531   .     S
C272   H278    1.109   .     S
C273   H276    1.110   .     S
C273   H275    1.110   .     S
C273   H496    1.106   .     S
C281   C282    1.536   .     S
C281   H287    1.084   .     S
C281   H286    1.102   .     S
C282   H284    1.110   .     S
C282   H285    1.108   .     S
C282   H283    1.110   .     S
C288   H293    1.084   .     S
C288   C289    1.537   .     S
C288   H294    1.108   .     S
C289   H292    1.108   .     S
C289   H290    1.111   .     S
C289   H291    1.110   .     S
C297   O317    1.306   .     A
C297   C308    1.453   .     S
C297   O315    1.305   .     A
C298   O318    1.306   .     A
C298   C307    1.453   .     S
C298   O316    1.307   .     A
C299   C301    1.415   .     S
C299   O321    1.301   .     A
C299   O319    1.285   .     A
C300   O322    1.300   .     A
C300   O320    1.286   .     A
C300   C302    1.417   .     S
C302   C375    1.355   .     S
C302   C406    1.529   .     S
C303   C339    1.522   .     S
C303   C308    1.407   .     A
C304   C307    1.409   .     A
C304   C346    1.522   .     S
C304   C528    1.384   .     S
C305   C307    1.405   .     A
C305   I353    2.146   .     S
C305   C525    1.394   .     S
C306   C308    1.398   .     A
C306   I354    2.136   .     S
C309   C355    1.521   .     S
C309   N314    1.384   .     A
C309   C1643   1.434   1_554 S
C310   N313    1.386   .     A
C310   C362    1.519   .     S
C310   C978    1.434   .     S
C311   I369    2.138   .     S
C311   N313    1.375   .     A
C311   C975    1.434   .     S
C312   I370    2.138   .     S
C312   N314    1.372   .     A
C312   C1642   1.434   1_554 S
N313   Zn323   2.045   .     S
N314   Zn324   2.045   .     S
O315   Zn323   1.987   .     S
O316   Zn324   1.987   .     S
O317   Zn324   1.998   .     S
O318   Zn323   1.998   .     S
O319   Zn323   1.998   .     S
O320   Zn324   1.998   .     S
O321   Zn324   1.990   .     S
O322   Zn323   1.990   .     S
C325   H331    1.109   .     S
C325   C326    1.529   .     S
C325   C375    1.527   .     S
C325   H404    1.113   .     S
C326   H328    1.109   .     S
C326   H329    1.106   .     S
C326   H401    1.106   .     S
C332   H337    1.110   .     S
C332   C333    1.529   .     S
C333   H335    1.106   .     S
C333   H336    1.107   .     S
H334   C407    1.107   .     S
H338   C406    1.113   .     S
C339   C340    1.518   .     S
C339   H344    1.099   .     S
C339   H345    1.112   .     S
C340   H343    1.106   .     S
C340   H342    1.105   .     S
H341   C562    1.100   .     S
C346   H351    1.101   .     S
C346   C347    1.531   .     S
C346   H352    1.109   .     S
C347   H350    1.110   .     S
C347   H349    1.110   .     S
C347   H570    1.106   .     S
C355   C356    1.536   .     S
C355   H361    1.084   .     S
C355   H360    1.102   .     S
C356   H358    1.110   .     S
C356   H359    1.108   .     S
C356   H357    1.110   .     S
C362   H367    1.084   .     S
C362   C363    1.537   .     S
C362   H368    1.108   .     S
C363   H366    1.108   .     S
C363   H364    1.111   .     S
C363   H365    1.110   .     S
C371   O391    1.306   .     A
C371   C382    1.453   .     S
C371   O389    1.305   .     A
C372   O392    1.306   .     A
C372   C381    1.453   .     S
C372   O390    1.307   .     A
C373   C375    1.415   .     S
C373   O395    1.301   .     A
C373   O393    1.285   .     A
C374   O396    1.300   .     A
C374   O394    1.286   .     A
C374   C376    1.417   .     S
C376   C227    1.355   1_655 S
C376   C258    1.529   1_655 S
C377   C413    1.522   .     S
C377   C382    1.407   .     A
C378   C381    1.409   .     A
C378   C420    1.522   .     S
C378   C602    1.384   .     S
C379   C381    1.405   .     A
C379   I427    2.146   .     S
C379   C599    1.394   .     S
C380   C382    1.398   .     A
C380   I428    2.136   .     S
C383   C429    1.521   .     S
C383   N388    1.384   .     A
C383   C1717   1.434   1_554 S
C384   N387    1.386   .     A
C384   C436    1.519   .     S
C384   C1052   1.434   .     S
C385   I443    2.138   .     S
C385   N387    1.375   .     A
C385   C1049   1.434   .     S
C386   I444    2.138   .     S
C386   N388    1.372   .     A
C386   C1716   1.434   1_554 S
N387   Zn397   2.045   .     S
N388   Zn398   2.045   .     S
O389   Zn397   1.987   .     S
O390   Zn398   1.987   .     S
O391   Zn398   1.998   .     S
O392   Zn397   1.998   .     S
O393   Zn397   1.998   .     S
O394   Zn398   1.998   .     S
O395   Zn398   1.990   .     S
O396   Zn397   1.990   .     S
C399   H405    1.109   .     S
C399   C400    1.529   .     S
C399   C227    1.527   1_655 S
C399   H256    1.113   1_655 S
C400   H402    1.109   .     S
C400   H403    1.106   .     S
C400   H253    1.106   1_655 S
C406   H411    1.110   .     S
C406   C407    1.529   .     S
C407   H409    1.106   .     S
C407   H410    1.107   .     S
H408   C259    1.107   1_655 S
H412   C258    1.113   1_655 S
C413   C414    1.518   .     S
C413   H418    1.099   .     S
C413   H419    1.112   .     S
C414   H417    1.106   .     S
C414   H416    1.105   .     S
H415   C636    1.100   .     S
C420   H425    1.101   .     S
C420   C421    1.531   .     S
C420   H426    1.109   .     S
C421   H424    1.110   .     S
C421   H423    1.110   .     S
C421   H644    1.106   .     S
C429   C430    1.536   .     S
C429   H435    1.084   .     S
C429   H434    1.102   .     S
C430   H432    1.110   .     S
C430   H433    1.108   .     S
C430   H431    1.110   .     S
C436   H441    1.084   .     S
C436   C437    1.537   .     S
C436   H442    1.108   .     S
C437   H440    1.108   .     S
C437   H438    1.111   .     S
C437   H439    1.110   .     S
C445   O465    1.306   .     A
C445   C456    1.453   .     S
C445   O463    1.305   .     A
C446   O466    1.306   .     A
C446   C455    1.453   .     S
C446   O464    1.307   .     A
C447   C449    1.415   .     S
C447   O469    1.301   .     A
C447   O467    1.285   .     A
C448   O470    1.300   .     A
C448   O468    1.286   .     A
C448   C450    1.417   .     S
C449   C598    1.355   1_455 S
C449   C621    1.527   1_455 S
C450   C523    1.355   .     S
C450   C554    1.529   .     S
C451   C487    1.522   .     S
C451   C456    1.407   .     A
C452   C455    1.409   .     A
C452   C494    1.522   .     S
C452   C10     1.384   1_565 S
C453   C455    1.405   .     A
C453   I501    2.146   .     S
C453   C7      1.394   1_565 S
C454   C456    1.398   .     A
C454   I502    2.136   .     S
C457   C503    1.521   .     S
C457   N462    1.384   .     A
C457   C1791   1.434   1_554 S
C458   N461    1.386   .     A
C458   C510    1.519   .     S
C458   C1126   1.434   .     S
C459   I517    2.138   .     S
C459   N461    1.375   .     A
C459   C1123   1.434   .     S
C460   I518    2.138   .     S
C460   N462    1.372   .     A
C460   C1790   1.434   1_554 S
N461   Zn471   2.045   .     S
N462   Zn472   2.045   .     S
O463   Zn471   1.987   .     S
O464   Zn472   1.987   .     S
O465   Zn472   1.998   .     S
O466   Zn471   1.998   .     S
O467   Zn471   1.998   .     S
O468   Zn472   1.998   .     S
O469   Zn472   1.990   .     S
O470   Zn471   1.990   .     S
C473   H479    1.109   .     S
C473   C474    1.529   .     S
C473   C523    1.527   .     S
C473   H552    1.113   .     S
C474   H476    1.109   .     S
C474   H477    1.106   .     S
C474   H549    1.106   .     S
H475   C622    1.106   1_455 S
H478   C621    1.113   1_455 S
C480   H485    1.110   .     S
C480   C481    1.529   .     S
C480   C598    1.529   1_455 S
C480   H634    1.113   1_455 S
C481   H483    1.106   .     S
C481   H484    1.107   .     S
C481   H630    1.107   1_455 S
H482   C555    1.107   .     S
H486   C554    1.113   .     S
C487   C488    1.518   .     S
C487   H492    1.099   .     S
C487   H493    1.112   .     S
C488   H491    1.106   .     S
C488   H490    1.105   .     S
H489   C44     1.100   1_565 S
C494   H499    1.101   .     S
C494   C495    1.531   .     S
C494   H500    1.109   .     S
C495   H498    1.110   .     S
C495   H497    1.110   .     S
C495   H52     1.106   1_565 S
C503   C504    1.536   .     S
C503   H509    1.084   .     S
C503   H508    1.102   .     S
C504   H506    1.110   .     S
C504   H507    1.108   .     S
C504   H505    1.110   .     S
C510   H515    1.084   .     S
C510   C511    1.537   .     S
C510   H516    1.108   .     S
C511   H514    1.108   .     S
C511   H512    1.111   .     S
C511   H513    1.110   .     S
C519   O539    1.306   .     A
C519   C530    1.453   .     S
C519   O537    1.305   .     A
C520   O540    1.306   .     A
C520   C529    1.453   .     S
C520   O538    1.307   .     A
C521   C523    1.415   .     S
C521   O543    1.301   .     A
C521   O541    1.285   .     A
C522   O544    1.300   .     A
C522   O542    1.286   .     A
C522   C524    1.417   .     S
C524   C597    1.355   .     S
C524   C628    1.529   .     S
C525   C561    1.522   .     S
C525   C530    1.407   .     A
C526   C529    1.409   .     A
C526   C568    1.522   .     S
C526   C84     1.384   1_565 S
C527   C529    1.405   .     A
C527   I575    2.146   .     S
C527   C81     1.394   1_565 S
C528   C530    1.398   .     A
C528   I576    2.136   .     S
C531   C577    1.521   .     S
C531   N536    1.384   .     A
C531   C1865   1.434   1_554 S
C532   N535    1.386   .     A
C532   C584    1.519   .     S
C532   C1200   1.434   .     S
C533   I591    2.138   .     S
C533   N535    1.375   .     A
C533   C1197   1.434   .     S
C534   I592    2.138   .     S
C534   N536    1.372   .     A
C534   C1864   1.434   1_554 S
N535   Zn545   2.045   .     S
N536   Zn546   2.045   .     S
O537   Zn545   1.987   .     S
O538   Zn546   1.987   .     S
O539   Zn546   1.998   .     S
O540   Zn545   1.998   .     S
O541   Zn545   1.998   .     S
O542   Zn546   1.998   .     S
O543   Zn546   1.990   .     S
O544   Zn545   1.990   .     S
C547   H553    1.109   .     S
C547   C548    1.529   .     S
C547   C597    1.527   .     S
C547   H626    1.113   .     S
C548   H550    1.109   .     S
C548   H551    1.106   .     S
C548   H623    1.106   .     S
C554   H559    1.110   .     S
C554   C555    1.529   .     S
C555   H557    1.106   .     S
C555   H558    1.107   .     S
H556   C629    1.107   .     S
H560   C628    1.113   .     S
C561   C562    1.518   .     S
C561   H566    1.099   .     S
C561   H567    1.112   .     S
C562   H565    1.106   .     S
C562   H564    1.105   .     S
H563   C118    1.100   1_565 S
C568   H573    1.101   .     S
C568   C569    1.531   .     S
C568   H574    1.109   .     S
C569   H572    1.110   .     S
C569   H571    1.110   .     S
C569   H126    1.106   1_565 S
C577   C578    1.536   .     S
C577   H583    1.084   .     S
C577   H582    1.102   .     S
C578   H580    1.110   .     S
C578   H581    1.108   .     S
C578   H579    1.110   .     S
C584   H589    1.084   .     S
C584   C585    1.537   .     S
C584   H590    1.108   .     S
C585   H588    1.108   .     S
C585   H586    1.111   .     S
C585   H587    1.110   .     S
C593   O613    1.306   .     A
C593   C604    1.453   .     S
C593   O611    1.305   .     A
C594   O614    1.306   .     A
C594   C603    1.453   .     S
C594   O612    1.307   .     A
C595   C597    1.415   .     S
C595   O617    1.301   .     A
C595   O615    1.285   .     A
C596   O618    1.300   .     A
C596   O616    1.286   .     A
C596   C598    1.417   .     S
C598   C449    1.355   1_655 S
C598   C480    1.529   1_655 S
C599   C635    1.522   .     S
C599   C604    1.407   .     A
C600   C603    1.409   .     A
C600   C642    1.522   .     S
C600   C158    1.384   1_565 S
C601   C603    1.405   .     A
C601   I649    2.146   .     S
C601   C155    1.394   1_565 S
C602   C604    1.398   .     A
C602   I650    2.136   .     S
C605   C651    1.521   .     S
C605   N610    1.384   .     A
C605   C1939   1.434   1_554 S
C606   N609    1.386   .     A
C606   C658    1.519   .     S
C606   C1274   1.434   .     S
C607   I665    2.138   .     S
C607   N609    1.375   .     A
C607   C1271   1.434   .     S
C608   I666    2.138   .     S
C608   N610    1.372   .     A
C608   C1938   1.434   1_554 S
N609   Zn619   2.045   .     S
N610   Zn620   2.045   .     S
O611   Zn619   1.987   .     S
O612   Zn620   1.987   .     S
O613   Zn620   1.998   .     S
O614   Zn619   1.998   .     S
O615   Zn619   1.998   .     S
O616   Zn620   1.998   .     S
O617   Zn620   1.990   .     S
O618   Zn619   1.990   .     S
C621   H627    1.109   .     S
C621   C622    1.529   .     S
C621   C449    1.527   1_655 S
C621   H478    1.113   1_655 S
C622   H624    1.109   .     S
C622   H625    1.106   .     S
C622   H475    1.106   1_655 S
C628   H633    1.110   .     S
C628   C629    1.529   .     S
C629   H631    1.106   .     S
C629   H632    1.107   .     S
H630   C481    1.107   1_655 S
H634   C480    1.113   1_655 S
C635   C636    1.518   .     S
C635   H640    1.099   .     S
C635   H641    1.112   .     S
C636   H639    1.106   .     S
C636   H638    1.105   .     S
H637   C192    1.100   1_565 S
C642   H647    1.101   .     S
C642   C643    1.531   .     S
C642   H648    1.109   .     S
C643   H646    1.110   .     S
C643   H645    1.110   .     S
C643   H200    1.106   1_565 S
C651   C652    1.536   .     S
C651   H657    1.084   .     S
C651   H656    1.102   .     S
C652   H654    1.110   .     S
C652   H655    1.108   .     S
C652   H653    1.110   .     S
C658   H663    1.084   .     S
C658   C659    1.537   .     S
C658   H664    1.108   .     S
C659   H662    1.108   .     S
C659   H660    1.111   .     S
C659   H661    1.110   .     S
C667   O687    1.306   .     A
C667   C678    1.453   .     S
C667   O685    1.305   .     A
C668   O688    1.306   .     A
C668   C677    1.453   .     S
C668   O686    1.307   .     A
C669   C671    1.415   .     S
C669   O691    1.301   .     A
C669   O689    1.285   .     A
C670   O692    1.300   .     A
C670   O690    1.286   .     A
C670   C672    1.417   .     S
C671   C820    1.355   1_455 S
C671   C843    1.527   1_455 S
C672   C745    1.355   .     S
C672   C776    1.529   .     S
C673   C709    1.522   .     S
C673   C678    1.407   .     A
C673   C1119   1.394   1_545 S
C674   C677    1.409   .     A
C674   C716    1.522   .     S
C674   C898    1.384   .     S
C675   C677    1.405   .     A
C675   I723    2.146   .     S
C675   C895    1.394   .     S
C676   C678    1.398   .     A
C676   I724    2.136   .     S
C676   C1118   1.384   1_545 S
C679   C725    1.521   .     S
C679   N684    1.384   .     A
C680   N683    1.386   .     A
C680   C732    1.519   .     S
C680   C1348   1.434   .     S
C681   I739    2.138   .     S
C681   N683    1.375   .     A
C681   C1345   1.434   .     S
C682   I740    2.138   .     S
C682   N684    1.372   .     A
N683   Zn693   2.045   .     S
N684   Zn694   2.045   .     S
O685   Zn693   1.987   .     S
O686   Zn694   1.987   .     S
O687   Zn694   1.998   .     S
O688   Zn693   1.998   .     S
O689   Zn693   1.998   .     S
O690   Zn694   1.998   .     S
O691   Zn694   1.990   .     S
O692   Zn693   1.990   .     S
C695   H701    1.109   .     S
C695   C696    1.529   .     S
C695   C745    1.527   .     S
C695   H774    1.113   .     S
C696   H698    1.109   .     S
C696   H699    1.106   .     S
C696   H771    1.106   .     S
H697   C844    1.106   1_455 S
H700   C843    1.113   1_455 S
C702   H707    1.110   .     S
C702   C703    1.529   .     S
C702   C820    1.529   1_455 S
C702   H856    1.113   1_455 S
C703   H705    1.106   .     S
C703   H706    1.107   .     S
C703   H852    1.107   1_455 S
H704   C777    1.107   .     S
H708   C776    1.113   .     S
C709   C710    1.518   .     S
C709   H714    1.099   .     S
C709   H715    1.112   .     S
C710   H713    1.106   .     S
C710   H712    1.105   .     S
C710   H1155   1.100   1_545 S
H711   C932    1.100   .     S
C716   H721    1.101   .     S
C716   C717    1.531   .     S
C716   H722    1.109   .     S
C717   H720    1.110   .     S
C717   H719    1.110   .     S
C717   H940    1.106   .     S
H718   C1161   1.106   1_545 S
C725   C726    1.536   .     S
C725   H731    1.084   .     S
C725   H730    1.102   .     S
C726   H728    1.110   .     S
C726   H729    1.108   .     S
C726   H727    1.110   .     S
C732   H737    1.084   .     S
C732   C733    1.537   .     S
C732   H738    1.108   .     S
C733   H736    1.108   .     S
C733   H734    1.111   .     S
C733   H735    1.110   .     S
C741   O761    1.306   .     A
C741   C752    1.453   .     S
C741   O759    1.305   .     A
C742   O762    1.306   .     A
C742   C751    1.453   .     S
C742   O760    1.307   .     A
C743   C745    1.415   .     S
C743   O765    1.301   .     A
C743   O763    1.285   .     A
C744   O766    1.300   .     A
C744   O764    1.286   .     A
C744   C746    1.417   .     S
C746   C819    1.355   .     S
C746   C850    1.529   .     S
C747   C783    1.522   .     S
C747   C752    1.407   .     A
C747   C1193   1.394   1_545 S
C748   C751    1.409   .     A
C748   C790    1.522   .     S
C748   C972    1.384   .     S
C749   C751    1.405   .     A
C749   I797    2.146   .     S
C749   C969    1.394   .     S
C750   C752    1.398   .     A
C750   I798    2.136   .     S
C750   C1192   1.384   1_545 S
C753   C799    1.521   .     S
C753   N758    1.384   .     A
C754   N757    1.386   .     A
C754   C806    1.519   .     S
C754   C1422   1.434   .     S
C755   I813    2.138   .     S
C755   N757    1.375   .     A
C755   C1419   1.434   .     S
C756   I814    2.138   .     S
C756   N758    1.372   .     A
N757   Zn767   2.045   .     S
N758   Zn768   2.045   .     S
O759   Zn767   1.987   .     S
O760   Zn768   1.987   .     S
O761   Zn768   1.998   .     S
O762   Zn767   1.998   .     S
O763   Zn767   1.998   .     S
O764   Zn768   1.998   .     S
O765   Zn768   1.990   .     S
O766   Zn767   1.990   .     S
C769   H775    1.109   .     S
C769   C770    1.529   .     S
C769   C819    1.527   .     S
C769   H848    1.113   .     S
C770   H772    1.109   .     S
C770   H773    1.106   .     S
C770   H845    1.106   .     S
C776   H781    1.110   .     S
C776   C777    1.529   .     S
C777   H779    1.106   .     S
C777   H780    1.107   .     S
H778   C851    1.107   .     S
H782   C850    1.113   .     S
C783   C784    1.518   .     S
C783   H788    1.099   .     S
C783   H789    1.112   .     S
C784   H787    1.106   .     S
C784   H786    1.105   .     S
C784   H1229   1.100   1_545 S
H785   C1006   1.100   .     S
C790   H795    1.101   .     S
C790   C791    1.531   .     S
C790   H796    1.109   .     S
C791   H794    1.110   .     S
C791   H793    1.110   .     S
C791   H1014   1.106   .     S
H792   C1235   1.106   1_545 S
C799   C800    1.536   .     S
C799   H805    1.084   .     S
C799   H804    1.102   .     S
C800   H802    1.110   .     S
C800   H803    1.108   .     S
C800   H801    1.110   .     S
C806   H811    1.084   .     S
C806   C807    1.537   .     S
C806   H812    1.108   .     S
C807   H810    1.108   .     S
C807   H808    1.111   .     S
C807   H809    1.110   .     S
C815   O835    1.306   .     A
C815   C826    1.453   .     S
C815   O833    1.305   .     A
C816   O836    1.306   .     A
C816   C825    1.453   .     S
C816   O834    1.307   .     A
C817   C819    1.415   .     S
C817   O839    1.301   .     A
C817   O837    1.285   .     A
C818   O840    1.300   .     A
C818   O838    1.286   .     A
C818   C820    1.417   .     S
C820   C671    1.355   1_655 S
C820   C702    1.529   1_655 S
C821   C857    1.522   .     S
C821   C826    1.407   .     A
C821   C1267   1.394   1_545 S
C822   C825    1.409   .     A
C822   C864    1.522   .     S
C822   C1046   1.384   .     S
C823   C825    1.405   .     A
C823   I871    2.146   .     S
C823   C1043   1.394   .     S
C824   C826    1.398   .     A
C824   I872    2.136   .     S
C824   C1266   1.384   1_545 S
C827   C873    1.521   .     S
C827   N832    1.384   .     A
C828   N831    1.386   .     A
C828   C880    1.519   .     S
C828   C1496   1.434   .     S
C829   I887    2.138   .     S
C829   N831    1.375   .     A
C829   C1493   1.434   .     S
C830   I888    2.138   .     S
C830   N832    1.372   .     A
N831   Zn841   2.045   .     S
N832   Zn842   2.045   .     S
O833   Zn841   1.987   .     S
O834   Zn842   1.987   .     S
O835   Zn842   1.998   .     S
O836   Zn841   1.998   .     S
O837   Zn841   1.998   .     S
O838   Zn842   1.998   .     S
O839   Zn842   1.990   .     S
O840   Zn841   1.990   .     S
C843   H849    1.109   .     S
C843   C844    1.529   .     S
C843   C671    1.527   1_655 S
C843   H700    1.113   1_655 S
C844   H846    1.109   .     S
C844   H847    1.106   .     S
C844   H697    1.106   1_655 S
C850   H855    1.110   .     S
C850   C851    1.529   .     S
C851   H853    1.106   .     S
C851   H854    1.107   .     S
H852   C703    1.107   1_655 S
H856   C702    1.113   1_655 S
C857   C858    1.518   .     S
C857   H862    1.099   .     S
C857   H863    1.112   .     S
C858   H861    1.106   .     S
C858   H860    1.105   .     S
C858   H1303   1.100   1_545 S
H859   C1080   1.100   .     S
C864   H869    1.101   .     S
C864   C865    1.531   .     S
C864   H870    1.109   .     S
C865   H868    1.110   .     S
C865   H867    1.110   .     S
C865   H1088   1.106   .     S
H866   C1309   1.106   1_545 S
C873   C874    1.536   .     S
C873   H879    1.084   .     S
C873   H878    1.102   .     S
C874   H876    1.110   .     S
C874   H877    1.108   .     S
C874   H875    1.110   .     S
C880   H885    1.084   .     S
C880   C881    1.537   .     S
C880   H886    1.108   .     S
C881   H884    1.108   .     S
C881   H882    1.111   .     S
C881   H883    1.110   .     S
C889   O909    1.306   .     A
C889   C900    1.453   .     S
C889   O907    1.305   .     A
C890   O910    1.306   .     A
C890   C899    1.453   .     S
C890   O908    1.307   .     A
C891   C893    1.415   .     S
C891   O913    1.301   .     A
C891   O911    1.285   .     A
C892   O914    1.300   .     A
C892   O912    1.286   .     A
C892   C894    1.417   .     S
C893   C1042   1.355   1_455 S
C893   C1065   1.527   1_455 S
C894   C967    1.355   .     S
C894   C998    1.529   .     S
C895   C931    1.522   .     S
C895   C900    1.407   .     A
C896   C899    1.409   .     A
C896   C938    1.522   .     S
C896   C1120   1.384   .     S
C897   C899    1.405   .     A
C897   I945    2.146   .     S
C897   C1117   1.394   .     S
C898   C900    1.398   .     A
C898   I946    2.136   .     S
C901   C947    1.521   .     S
C901   N906    1.384   .     A
C902   N905    1.386   .     A
C902   C954    1.519   .     S
C902   C1570   1.434   .     S
C903   I961    2.138   .     S
C903   N905    1.375   .     A
C903   C1567   1.434   .     S
C904   I962    2.138   .     S
C904   N906    1.372   .     A
N905   Zn915   2.045   .     S
N906   Zn916   2.045   .     S
O907   Zn915   1.987   .     S
O908   Zn916   1.987   .     S
O909   Zn916   1.998   .     S
O910   Zn915   1.998   .     S
O911   Zn915   1.998   .     S
O912   Zn916   1.998   .     S
O913   Zn916   1.990   .     S
O914   Zn915   1.990   .     S
C917   H923    1.109   .     S
C917   C918    1.529   .     S
C917   C967    1.527   .     S
C917   H996    1.113   .     S
C918   H920    1.109   .     S
C918   H921    1.106   .     S
C918   H993    1.106   .     S
H919   C1066   1.106   1_455 S
H922   C1065   1.113   1_455 S
C924   H929    1.110   .     S
C924   C925    1.529   .     S
C924   C1042   1.529   1_455 S
C924   H1078   1.113   1_455 S
C925   H927    1.106   .     S
C925   H928    1.107   .     S
C925   H1074   1.107   1_455 S
H926   C999    1.107   .     S
H930   C998    1.113   .     S
C931   C932    1.518   .     S
C931   H936    1.099   .     S
C931   H937    1.112   .     S
C932   H935    1.106   .     S
C932   H934    1.105   .     S
H933   C1154   1.100   .     S
C938   H943    1.101   .     S
C938   C939    1.531   .     S
C938   H944    1.109   .     S
C939   H942    1.110   .     S
C939   H941    1.110   .     S
C939   H1162   1.106   .     S
C947   C948    1.536   .     S
C947   H953    1.084   .     S
C947   H952    1.102   .     S
C948   H950    1.110   .     S
C948   H951    1.108   .     S
C948   H949    1.110   .     S
C954   H959    1.084   .     S
C954   C955    1.537   .     S
C954   H960    1.108   .     S
C955   H958    1.108   .     S
C955   H956    1.111   .     S
C955   H957    1.110   .     S
C963   O983    1.306   .     A
C963   C974    1.453   .     S
C963   O981    1.305   .     A
C964   O984    1.306   .     A
C964   C973    1.453   .     S
C964   O982    1.307   .     A
C965   C967    1.415   .     S
C965   O987    1.301   .     A
C965   O985    1.285   .     A
C966   O988    1.300   .     A
C966   O986    1.286   .     A
C966   C968    1.417   .     S
C968   C1041   1.355   .     S
C968   C1072   1.529   .     S
C969   C1005   1.522   .     S
C969   C974    1.407   .     A
C970   C973    1.409   .     A
C970   C1012   1.522   .     S
C970   C1194   1.384   .     S
C971   C973    1.405   .     A
C971   I1019   2.146   .     S
C971   C1191   1.394   .     S
C972   C974    1.398   .     A
C972   I1020   2.136   .     S
C975   C1021   1.521   .     S
C975   N980    1.384   .     A
C976   N979    1.386   .     A
C976   C1028   1.519   .     S
C976   C1644   1.434   .     S
C977   I1035   2.138   .     S
C977   N979    1.375   .     A
C977   C1641   1.434   .     S
C978   I1036   2.138   .     S
C978   N980    1.372   .     A
N979   Zn989   2.045   .     S
N980   Zn990   2.045   .     S
O981   Zn989   1.987   .     S
O982   Zn990   1.987   .     S
O983   Zn990   1.998   .     S
O984   Zn989   1.998   .     S
O985   Zn989   1.998   .     S
O986   Zn990   1.998   .     S
O987   Zn990   1.990   .     S
O988   Zn989   1.990   .     S
C991   H997    1.109   .     S
C991   C992    1.529   .     S
C991   C1041   1.527   .     S
C991   H1070   1.113   .     S
C992   H994    1.109   .     S
C992   H995    1.106   .     S
C992   H1067   1.106   .     S
C998   H1003   1.110   .     S
C998   C999    1.529   .     S
C999   H1001   1.106   .     S
C999   H1002   1.107   .     S
H1000  C1073   1.107   .     S
H1004  C1072   1.113   .     S
C1005  C1006   1.518   .     S
C1005  H1010   1.099   .     S
C1005  H1011   1.112   .     S
C1006  H1009   1.106   .     S
C1006  H1008   1.105   .     S
H1007  C1228   1.100   .     S
C1012  H1017   1.101   .     S
C1012  C1013   1.531   .     S
C1012  H1018   1.109   .     S
C1013  H1016   1.110   .     S
C1013  H1015   1.110   .     S
C1013  H1236   1.106   .     S
C1021  C1022   1.536   .     S
C1021  H1027   1.084   .     S
C1021  H1026   1.102   .     S
C1022  H1024   1.110   .     S
C1022  H1025   1.108   .     S
C1022  H1023   1.110   .     S
C1028  H1033   1.084   .     S
C1028  C1029   1.537   .     S
C1028  H1034   1.108   .     S
C1029  H1032   1.108   .     S
C1029  H1030   1.111   .     S
C1029  H1031   1.110   .     S
C1037  O1057   1.306   .     A
C1037  C1048   1.453   .     S
C1037  O1055   1.305   .     A
C1038  O1058   1.306   .     A
C1038  C1047   1.453   .     S
C1038  O1056   1.307   .     A
C1039  C1041   1.415   .     S
C1039  O1061   1.301   .     A
C1039  O1059   1.285   .     A
C1040  O1062   1.300   .     A
C1040  O1060   1.286   .     A
C1040  C1042   1.417   .     S
C1042  C893    1.355   1_655 S
C1042  C924    1.529   1_655 S
C1043  C1079   1.522   .     S
C1043  C1048   1.407   .     A
C1044  C1047   1.409   .     A
C1044  C1086   1.522   .     S
C1044  C1268   1.384   .     S
C1045  C1047   1.405   .     A
C1045  I1093   2.146   .     S
C1045  C1265   1.394   .     S
C1046  C1048   1.398   .     A
C1046  I1094   2.136   .     S
C1049  C1095   1.521   .     S
C1049  N1054   1.384   .     A
C1050  N1053   1.386   .     A
C1050  C1102   1.519   .     S
C1050  C1718   1.434   .     S
C1051  I1109   2.138   .     S
C1051  N1053   1.375   .     A
C1051  C1715   1.434   .     S
C1052  I1110   2.138   .     S
C1052  N1054   1.372   .     A
N1053  Zn1063  2.045   .     S
N1054  Zn1064  2.045   .     S
O1055  Zn1063  1.987   .     S
O1056  Zn1064  1.987   .     S
O1057  Zn1064  1.998   .     S
O1058  Zn1063  1.998   .     S
O1059  Zn1063  1.998   .     S
O1060  Zn1064  1.998   .     S
O1061  Zn1064  1.990   .     S
O1062  Zn1063  1.990   .     S
C1065  H1071   1.109   .     S
C1065  C1066   1.529   .     S
C1065  C893    1.527   1_655 S
C1065  H922    1.113   1_655 S
C1066  H1068   1.109   .     S
C1066  H1069   1.106   .     S
C1066  H919    1.106   1_655 S
C1072  H1077   1.110   .     S
C1072  C1073   1.529   .     S
C1073  H1075   1.106   .     S
C1073  H1076   1.107   .     S
H1074  C925    1.107   1_655 S
H1078  C924    1.113   1_655 S
C1079  C1080   1.518   .     S
C1079  H1084   1.099   .     S
C1079  H1085   1.112   .     S
C1080  H1083   1.106   .     S
C1080  H1082   1.105   .     S
H1081  C1302   1.100   .     S
C1086  H1091   1.101   .     S
C1086  C1087   1.531   .     S
C1086  H1092   1.109   .     S
C1087  H1090   1.110   .     S
C1087  H1089   1.110   .     S
C1087  H1310   1.106   .     S
C1095  C1096   1.536   .     S
C1095  H1101   1.084   .     S
C1095  H1100   1.102   .     S
C1096  H1098   1.110   .     S
C1096  H1099   1.108   .     S
C1096  H1097   1.110   .     S
C1102  H1107   1.084   .     S
C1102  C1103   1.537   .     S
C1102  H1108   1.108   .     S
C1103  H1106   1.108   .     S
C1103  H1104   1.111   .     S
C1103  H1105   1.110   .     S
C1111  O1131   1.306   .     A
C1111  C1122   1.453   .     S
C1111  O1129   1.305   .     A
C1112  O1132   1.306   .     A
C1112  C1121   1.453   .     S
C1112  O1130   1.307   .     A
C1113  C1115   1.415   .     S
C1113  O1135   1.301   .     A
C1113  O1133   1.285   .     A
C1114  O1136   1.300   .     A
C1114  O1134   1.286   .     A
C1114  C1116   1.417   .     S
C1115  C1264   1.355   1_455 S
C1115  C1287   1.527   1_455 S
C1116  C1189   1.355   .     S
C1116  C1220   1.529   .     S
C1117  C1153   1.522   .     S
C1117  C1122   1.407   .     A
C1118  C1121   1.409   .     A
C1118  C1160   1.522   .     S
C1118  C676    1.384   1_565 S
C1119  C1121   1.405   .     A
C1119  I1167   2.146   .     S
C1119  C673    1.394   1_565 S
C1120  C1122   1.398   .     A
C1120  I1168   2.136   .     S
C1123  C1169   1.521   .     S
C1123  N1128   1.384   .     A
C1124  N1127   1.386   .     A
C1124  C1176   1.519   .     S
C1124  C1792   1.434   .     S
C1125  I1183   2.138   .     S
C1125  N1127   1.375   .     A
C1125  C1789   1.434   .     S
C1126  I1184   2.138   .     S
C1126  N1128   1.372   .     A
N1127  Zn1137  2.045   .     S
N1128  Zn1138  2.045   .     S
O1129  Zn1137  1.987   .     S
O1130  Zn1138  1.987   .     S
O1131  Zn1138  1.998   .     S
O1132  Zn1137  1.998   .     S
O1133  Zn1137  1.998   .     S
O1134  Zn1138  1.998   .     S
O1135  Zn1138  1.990   .     S
O1136  Zn1137  1.990   .     S
C1139  H1145   1.109   .     S
C1139  C1140   1.529   .     S
C1139  C1189   1.527   .     S
C1139  H1218   1.113   .     S
C1140  H1142   1.109   .     S
C1140  H1143   1.106   .     S
C1140  H1215   1.106   .     S
H1141  C1288   1.106   1_455 S
H1144  C1287   1.113   1_455 S
C1146  H1151   1.110   .     S
C1146  C1147   1.529   .     S
C1146  C1264   1.529   1_455 S
C1146  H1300   1.113   1_455 S
C1147  H1149   1.106   .     S
C1147  H1150   1.107   .     S
C1147  H1296   1.107   1_455 S
H1148  C1221   1.107   .     S
H1152  C1220   1.113   .     S
C1153  C1154   1.518   .     S
C1153  H1158   1.099   .     S
C1153  H1159   1.112   .     S
C1154  H1157   1.106   .     S
C1154  H1156   1.105   .     S
H1155  C710    1.100   1_565 S
C1160  H1165   1.101   .     S
C1160  C1161   1.531   .     S
C1160  H1166   1.109   .     S
C1161  H1164   1.110   .     S
C1161  H1163   1.110   .     S
C1161  H718    1.106   1_565 S
C1169  C1170   1.536   .     S
C1169  H1175   1.084   .     S
C1169  H1174   1.102   .     S
C1170  H1172   1.110   .     S
C1170  H1173   1.108   .     S
C1170  H1171   1.110   .     S
C1176  H1181   1.084   .     S
C1176  C1177   1.537   .     S
C1176  H1182   1.108   .     S
C1177  H1180   1.108   .     S
C1177  H1178   1.111   .     S
C1177  H1179   1.110   .     S
C1185  O1205   1.306   .     A
C1185  C1196   1.453   .     S
C1185  O1203   1.305   .     A
C1186  O1206   1.306   .     A
C1186  C1195   1.453   .     S
C1186  O1204   1.307   .     A
C1187  C1189   1.415   .     S
C1187  O1209   1.301   .     A
C1187  O1207   1.285   .     A
C1188  O1210   1.300   .     A
C1188  O1208   1.286   .     A
C1188  C1190   1.417   .     S
C1190  C1263   1.355   .     S
C1190  C1294   1.529   .     S
C1191  C1227   1.522   .     S
C1191  C1196   1.407   .     A
C1192  C1195   1.409   .     A
C1192  C1234   1.522   .     S
C1192  C750    1.384   1_565 S
C1193  C1195   1.405   .     A
C1193  I1241   2.146   .     S
C1193  C747    1.394   1_565 S
C1194  C1196   1.398   .     A
C1194  I1242   2.136   .     S
C1197  C1243   1.521   .     S
C1197  N1202   1.384   .     A
C1198  N1201   1.386   .     A
C1198  C1250   1.519   .     S
C1198  C1866   1.434   .     S
C1199  I1257   2.138   .     S
C1199  N1201   1.375   .     A
C1199  C1863   1.434   .     S
C1200  I1258   2.138   .     S
C1200  N1202   1.372   .     A
N1201  Zn1211  2.045   .     S
N1202  Zn1212  2.045   .     S
O1203  Zn1211  1.987   .     S
O1204  Zn1212  1.987   .     S
O1205  Zn1212  1.998   .     S
O1206  Zn1211  1.998   .     S
O1207  Zn1211  1.998   .     S
O1208  Zn1212  1.998   .     S
O1209  Zn1212  1.990   .     S
O1210  Zn1211  1.990   .     S
C1213  H1219   1.109   .     S
C1213  C1214   1.529   .     S
C1213  C1263   1.527   .     S
C1213  H1292   1.113   .     S
C1214  H1216   1.109   .     S
C1214  H1217   1.106   .     S
C1214  H1289   1.106   .     S
C1220  H1225   1.110   .     S
C1220  C1221   1.529   .     S
C1221  H1223   1.106   .     S
C1221  H1224   1.107   .     S
H1222  C1295   1.107   .     S
H1226  C1294   1.113   .     S
C1227  C1228   1.518   .     S
C1227  H1232   1.099   .     S
C1227  H1233   1.112   .     S
C1228  H1231   1.106   .     S
C1228  H1230   1.105   .     S
H1229  C784    1.100   1_565 S
C1234  H1239   1.101   .     S
C1234  C1235   1.531   .     S
C1234  H1240   1.109   .     S
C1235  H1238   1.110   .     S
C1235  H1237   1.110   .     S
C1235  H792    1.106   1_565 S
C1243  C1244   1.536   .     S
C1243  H1249   1.084   .     S
C1243  H1248   1.102   .     S
C1244  H1246   1.110   .     S
C1244  H1247   1.108   .     S
C1244  H1245   1.110   .     S
C1250  H1255   1.084   .     S
C1250  C1251   1.537   .     S
C1250  H1256   1.108   .     S
C1251  H1254   1.108   .     S
C1251  H1252   1.111   .     S
C1251  H1253   1.110   .     S
C1259  O1279   1.306   .     A
C1259  C1270   1.453   .     S
C1259  O1277   1.305   .     A
C1260  O1280   1.306   .     A
C1260  C1269   1.453   .     S
C1260  O1278   1.307   .     A
C1261  C1263   1.415   .     S
C1261  O1283   1.301   .     A
C1261  O1281   1.285   .     A
C1262  O1284   1.300   .     A
C1262  O1282   1.286   .     A
C1262  C1264   1.417   .     S
C1264  C1115   1.355   1_655 S
C1264  C1146   1.529   1_655 S
C1265  C1301   1.522   .     S
C1265  C1270   1.407   .     A
C1266  C1269   1.409   .     A
C1266  C1308   1.522   .     S
C1266  C824    1.384   1_565 S
C1267  C1269   1.405   .     A
C1267  I1315   2.146   .     S
C1267  C821    1.394   1_565 S
C1268  C1270   1.398   .     A
C1268  I1316   2.136   .     S
C1271  C1317   1.521   .     S
C1271  N1276   1.384   .     A
C1272  N1275   1.386   .     A
C1272  C1324   1.519   .     S
C1272  C1940   1.434   .     S
C1273  I1331   2.138   .     S
C1273  N1275   1.375   .     A
C1273  C1937   1.434   .     S
C1274  I1332   2.138   .     S
C1274  N1276   1.372   .     A
N1275  Zn1285  2.045   .     S
N1276  Zn1286  2.045   .     S
O1277  Zn1285  1.987   .     S
O1278  Zn1286  1.987   .     S
O1279  Zn1286  1.998   .     S
O1280  Zn1285  1.998   .     S
O1281  Zn1285  1.998   .     S
O1282  Zn1286  1.998   .     S
O1283  Zn1286  1.990   .     S
O1284  Zn1285  1.990   .     S
C1287  H1293   1.109   .     S
C1287  C1288   1.529   .     S
C1287  C1115   1.527   1_655 S
C1287  H1144   1.113   1_655 S
C1288  H1290   1.109   .     S
C1288  H1291   1.106   .     S
C1288  H1141   1.106   1_655 S
C1294  H1299   1.110   .     S
C1294  C1295   1.529   .     S
C1295  H1297   1.106   .     S
C1295  H1298   1.107   .     S
H1296  C1147   1.107   1_655 S
H1300  C1146   1.113   1_655 S
C1301  C1302   1.518   .     S
C1301  H1306   1.099   .     S
C1301  H1307   1.112   .     S
C1302  H1305   1.106   .     S
C1302  H1304   1.105   .     S
H1303  C858    1.100   1_565 S
C1308  H1313   1.101   .     S
C1308  C1309   1.531   .     S
C1308  H1314   1.109   .     S
C1309  H1312   1.110   .     S
C1309  H1311   1.110   .     S
C1309  H866    1.106   1_565 S
C1317  C1318   1.536   .     S
C1317  H1323   1.084   .     S
C1317  H1322   1.102   .     S
C1318  H1320   1.110   .     S
C1318  H1321   1.108   .     S
C1318  H1319   1.110   .     S
C1324  H1329   1.084   .     S
C1324  C1325   1.537   .     S
C1324  H1330   1.108   .     S
C1325  H1328   1.108   .     S
C1325  H1326   1.111   .     S
C1325  H1327   1.110   .     S
C1333  O1353   1.306   .     A
C1333  C1344   1.453   .     S
C1333  O1351   1.305   .     A
C1334  O1354   1.306   .     A
C1334  C1343   1.453   .     S
C1334  O1352   1.307   .     A
C1335  C1337   1.415   .     S
C1335  O1357   1.301   .     A
C1335  O1355   1.285   .     A
C1336  O1358   1.300   .     A
C1336  O1356   1.286   .     A
C1336  C1338   1.417   .     S
C1337  C1486   1.355   1_455 S
C1337  C1509   1.527   1_455 S
C1338  C1411   1.355   .     S
C1338  C1442   1.529   .     S
C1339  C1375   1.522   .     S
C1339  C1344   1.407   .     A
C1339  C1785   1.394   1_545 S
C1340  C1343   1.409   .     A
C1340  C1382   1.522   .     S
C1340  C1564   1.384   .     S
C1341  C1343   1.405   .     A
C1341  I1389   2.146   .     S
C1341  C1561   1.394   .     S
C1342  C1344   1.398   .     A
C1342  I1390   2.136   .     S
C1342  C1784   1.384   1_545 S
C1345  C1391   1.521   .     S
C1345  N1350   1.384   .     A
C1346  N1349   1.386   .     A
C1346  C1398   1.519   .     S
C1346  C16     1.434   1_556 S
C1347  I1405   2.138   .     S
C1347  N1349   1.375   .     A
C1347  C13     1.434   1_556 S
C1348  I1406   2.138   .     S
C1348  N1350   1.372   .     A
N1349  Zn1359  2.045   .     S
N1350  Zn1360  2.045   .     S
O1351  Zn1359  1.987   .     S
O1352  Zn1360  1.987   .     S
O1353  Zn1360  1.998   .     S
O1354  Zn1359  1.998   .     S
O1355  Zn1359  1.998   .     S
O1356  Zn1360  1.998   .     S
O1357  Zn1360  1.990   .     S
O1358  Zn1359  1.990   .     S
C1361  H1367   1.109   .     S
C1361  C1362   1.529   .     S
C1361  C1411   1.527   .     S
C1361  H1440   1.113   .     S
C1362  H1364   1.109   .     S
C1362  H1365   1.106   .     S
C1362  H1437   1.106   .     S
H1363  C1510   1.106   1_455 S
H1366  C1509   1.113   1_455 S
C1368  H1373   1.110   .     S
C1368  C1369   1.529   .     S
C1368  C1486   1.529   1_455 S
C1368  H1522   1.113   1_455 S
C1369  H1371   1.106   .     S
C1369  H1372   1.107   .     S
C1369  H1518   1.107   1_455 S
H1370  C1443   1.107   .     S
H1374  C1442   1.113   .     S
C1375  C1376   1.518   .     S
C1375  H1380   1.099   .     S
C1375  H1381   1.112   .     S
C1376  H1379   1.106   .     S
C1376  H1378   1.105   .     S
C1376  H1821   1.100   1_545 S
H1377  C1598   1.100   .     S
C1382  H1387   1.101   .     S
C1382  C1383   1.531   .     S
C1382  H1388   1.109   .     S
C1383  H1386   1.110   .     S
C1383  H1385   1.110   .     S
C1383  H1606   1.106   .     S
H1384  C1827   1.106   1_545 S
C1391  C1392   1.536   .     S
C1391  H1397   1.084   .     S
C1391  H1396   1.102   .     S
C1392  H1394   1.110   .     S
C1392  H1395   1.108   .     S
C1392  H1393   1.110   .     S
C1398  H1403   1.084   .     S
C1398  C1399   1.537   .     S
C1398  H1404   1.108   .     S
C1399  H1402   1.108   .     S
C1399  H1400   1.111   .     S
C1399  H1401   1.110   .     S
C1407  O1427   1.306   .     A
C1407  C1418   1.453   .     S
C1407  O1425   1.305   .     A
C1408  O1428   1.306   .     A
C1408  C1417   1.453   .     S
C1408  O1426   1.307   .     A
C1409  C1411   1.415   .     S
C1409  O1431   1.301   .     A
C1409  O1429   1.285   .     A
C1410  O1432   1.300   .     A
C1410  O1430   1.286   .     A
C1410  C1412   1.417   .     S
C1412  C1485   1.355   .     S
C1412  C1516   1.529   .     S
C1413  C1449   1.522   .     S
C1413  C1418   1.407   .     A
C1413  C1859   1.394   1_545 S
C1414  C1417   1.409   .     A
C1414  C1456   1.522   .     S
C1414  C1638   1.384   .     S
C1415  C1417   1.405   .     A
C1415  I1463   2.146   .     S
C1415  C1635   1.394   .     S
C1416  C1418   1.398   .     A
C1416  I1464   2.136   .     S
C1416  C1858   1.384   1_545 S
C1419  C1465   1.521   .     S
C1419  N1424   1.384   .     A
C1420  N1423   1.386   .     A
C1420  C1472   1.519   .     S
C1420  C90     1.434   1_556 S
C1421  I1479   2.138   .     S
C1421  N1423   1.375   .     A
C1421  C87     1.434   1_556 S
C1422  I1480   2.138   .     S
C1422  N1424   1.372   .     A
N1423  Zn1433  2.045   .     S
N1424  Zn1434  2.045   .     S
O1425  Zn1433  1.987   .     S
O1426  Zn1434  1.987   .     S
O1427  Zn1434  1.998   .     S
O1428  Zn1433  1.998   .     S
O1429  Zn1433  1.998   .     S
O1430  Zn1434  1.998   .     S
O1431  Zn1434  1.990   .     S
O1432  Zn1433  1.990   .     S
C1435  H1441   1.109   .     S
C1435  C1436   1.529   .     S
C1435  C1485   1.527   .     S
C1435  H1514   1.113   .     S
C1436  H1438   1.109   .     S
C1436  H1439   1.106   .     S
C1436  H1511   1.106   .     S
C1442  H1447   1.110   .     S
C1442  C1443   1.529   .     S
C1443  H1445   1.106   .     S
C1443  H1446   1.107   .     S
H1444  C1517   1.107   .     S
H1448  C1516   1.113   .     S
C1449  C1450   1.518   .     S
C1449  H1454   1.099   .     S
C1449  H1455   1.112   .     S
C1450  H1453   1.106   .     S
C1450  H1452   1.105   .     S
C1450  H1895   1.100   1_545 S
H1451  C1672   1.100   .     S
C1456  H1461   1.101   .     S
C1456  C1457   1.531   .     S
C1456  H1462   1.109   .     S
C1457  H1460   1.110   .     S
C1457  H1459   1.110   .     S
C1457  H1680   1.106   .     S
H1458  C1901   1.106   1_545 S
C1465  C1466   1.536   .     S
C1465  H1471   1.084   .     S
C1465  H1470   1.102   .     S
C1466  H1468   1.110   .     S
C1466  H1469   1.108   .     S
C1466  H1467   1.110   .     S
C1472  H1477   1.084   .     S
C1472  C1473   1.537   .     S
C1472  H1478   1.108   .     S
C1473  H1476   1.108   .     S
C1473  H1474   1.111   .     S
C1473  H1475   1.110   .     S
C1481  O1501   1.306   .     A
C1481  C1492   1.453   .     S
C1481  O1499   1.305   .     A
C1482  O1502   1.306   .     A
C1482  C1491   1.453   .     S
C1482  O1500   1.307   .     A
C1483  C1485   1.415   .     S
C1483  O1505   1.301   .     A
C1483  O1503   1.285   .     A
C1484  O1506   1.300   .     A
C1484  O1504   1.286   .     A
C1484  C1486   1.417   .     S
C1486  C1337   1.355   1_655 S
C1486  C1368   1.529   1_655 S
C1487  C1523   1.522   .     S
C1487  C1492   1.407   .     A
C1487  C1933   1.394   1_545 S
C1488  C1491   1.409   .     A
C1488  C1530   1.522   .     S
C1488  C1712   1.384   .     S
C1489  C1491   1.405   .     A
C1489  I1537   2.146   .     S
C1489  C1709   1.394   .     S
C1490  C1492   1.398   .     A
C1490  I1538   2.136   .     S
C1490  C1932   1.384   1_545 S
C1493  C1539   1.521   .     S
C1493  N1498   1.384   .     A
C1494  N1497   1.386   .     A
C1494  C1546   1.519   .     S
C1494  C164    1.434   1_556 S
C1495  I1553   2.138   .     S
C1495  N1497   1.375   .     A
C1495  C161    1.434   1_556 S
C1496  I1554   2.138   .     S
C1496  N1498   1.372   .     A
N1497  Zn1507  2.045   .     S
N1498  Zn1508  2.045   .     S
O1499  Zn1507  1.987   .     S
O1500  Zn1508  1.987   .     S
O1501  Zn1508  1.998   .     S
O1502  Zn1507  1.998   .     S
O1503  Zn1507  1.998   .     S
O1504  Zn1508  1.998   .     S
O1505  Zn1508  1.990   .     S
O1506  Zn1507  1.990   .     S
C1509  H1515   1.109   .     S
C1509  C1510   1.529   .     S
C1509  C1337   1.527   1_655 S
C1509  H1366   1.113   1_655 S
C1510  H1512   1.109   .     S
C1510  H1513   1.106   .     S
C1510  H1363   1.106   1_655 S
C1516  H1521   1.110   .     S
C1516  C1517   1.529   .     S
C1517  H1519   1.106   .     S
C1517  H1520   1.107   .     S
H1518  C1369   1.107   1_655 S
H1522  C1368   1.113   1_655 S
C1523  C1524   1.518   .     S
C1523  H1528   1.099   .     S
C1523  H1529   1.112   .     S
C1524  H1527   1.106   .     S
C1524  H1526   1.105   .     S
C1524  H1969   1.100   1_545 S
H1525  C1746   1.100   .     S
C1530  H1535   1.101   .     S
C1530  C1531   1.531   .     S
C1530  H1536   1.109   .     S
C1531  H1534   1.110   .     S
C1531  H1533   1.110   .     S
C1531  H1754   1.106   .     S
H1532  C1975   1.106   1_545 S
C1539  C1540   1.536   .     S
C1539  H1545   1.084   .     S
C1539  H1544   1.102   .     S
C1540  H1542   1.110   .     S
C1540  H1543   1.108   .     S
C1540  H1541   1.110   .     S
C1546  H1551   1.084   .     S
C1546  C1547   1.537   .     S
C1546  H1552   1.108   .     S
C1547  H1550   1.108   .     S
C1547  H1548   1.111   .     S
C1547  H1549   1.110   .     S
C1555  O1575   1.306   .     A
C1555  C1566   1.453   .     S
C1555  O1573   1.305   .     A
C1556  O1576   1.306   .     A
C1556  C1565   1.453   .     S
C1556  O1574   1.307   .     A
C1557  C1559   1.415   .     S
C1557  O1579   1.301   .     A
C1557  O1577   1.285   .     A
C1558  O1580   1.300   .     A
C1558  O1578   1.286   .     A
C1558  C1560   1.417   .     S
C1559  C1708   1.355   1_455 S
C1559  C1731   1.527   1_455 S
C1560  C1633   1.355   .     S
C1560  C1664   1.529   .     S
C1561  C1597   1.522   .     S
C1561  C1566   1.407   .     A
C1562  C1565   1.409   .     A
C1562  C1604   1.522   .     S
C1562  C1786   1.384   .     S
C1563  C1565   1.405   .     A
C1563  I1611   2.146   .     S
C1563  C1783   1.394   .     S
C1564  C1566   1.398   .     A
C1564  I1612   2.136   .     S
C1567  C1613   1.521   .     S
C1567  N1572   1.384   .     A
C1568  N1571   1.386   .     A
C1568  C1620   1.519   .     S
C1568  C238    1.434   1_556 S
C1569  I1627   2.138   .     S
C1569  N1571   1.375   .     A
C1569  C235    1.434   1_556 S
C1570  I1628   2.138   .     S
C1570  N1572   1.372   .     A
N1571  Zn1581  2.045   .     S
N1572  Zn1582  2.045   .     S
O1573  Zn1581  1.987   .     S
O1574  Zn1582  1.987   .     S
O1575  Zn1582  1.998   .     S
O1576  Zn1581  1.998   .     S
O1577  Zn1581  1.998   .     S
O1578  Zn1582  1.998   .     S
O1579  Zn1582  1.990   .     S
O1580  Zn1581  1.990   .     S
C1583  H1589   1.109   .     S
C1583  C1584   1.529   .     S
C1583  C1633   1.527   .     S
C1583  H1662   1.113   .     S
C1584  H1586   1.109   .     S
C1584  H1587   1.106   .     S
C1584  H1659   1.106   .     S
H1585  C1732   1.106   1_455 S
H1588  C1731   1.113   1_455 S
C1590  H1595   1.110   .     S
C1590  C1591   1.529   .     S
C1590  C1708   1.529   1_455 S
C1590  H1744   1.113   1_455 S
C1591  H1593   1.106   .     S
C1591  H1594   1.107   .     S
C1591  H1740   1.107   1_455 S
H1592  C1665   1.107   .     S
H1596  C1664   1.113   .     S
C1597  C1598   1.518   .     S
C1597  H1602   1.099   .     S
C1597  H1603   1.112   .     S
C1598  H1601   1.106   .     S
C1598  H1600   1.105   .     S
H1599  C1820   1.100   .     S
C1604  H1609   1.101   .     S
C1604  C1605   1.531   .     S
C1604  H1610   1.109   .     S
C1605  H1608   1.110   .     S
C1605  H1607   1.110   .     S
C1605  H1828   1.106   .     S
C1613  C1614   1.536   .     S
C1613  H1619   1.084   .     S
C1613  H1618   1.102   .     S
C1614  H1616   1.110   .     S
C1614  H1617   1.108   .     S
C1614  H1615   1.110   .     S
C1620  H1625   1.084   .     S
C1620  C1621   1.537   .     S
C1620  H1626   1.108   .     S
C1621  H1624   1.108   .     S
C1621  H1622   1.111   .     S
C1621  H1623   1.110   .     S
C1629  O1649   1.306   .     A
C1629  C1640   1.453   .     S
C1629  O1647   1.305   .     A
C1630  O1650   1.306   .     A
C1630  C1639   1.453   .     S
C1630  O1648   1.307   .     A
C1631  C1633   1.415   .     S
C1631  O1653   1.301   .     A
C1631  O1651   1.285   .     A
C1632  O1654   1.300   .     A
C1632  O1652   1.286   .     A
C1632  C1634   1.417   .     S
C1634  C1707   1.355   .     S
C1634  C1738   1.529   .     S
C1635  C1671   1.522   .     S
C1635  C1640   1.407   .     A
C1636  C1639   1.409   .     A
C1636  C1678   1.522   .     S
C1636  C1860   1.384   .     S
C1637  C1639   1.405   .     A
C1637  I1685   2.146   .     S
C1637  C1857   1.394   .     S
C1638  C1640   1.398   .     A
C1638  I1686   2.136   .     S
C1641  C1687   1.521   .     S
C1641  N1646   1.384   .     A
C1642  N1645   1.386   .     A
C1642  C1694   1.519   .     S
C1642  C312    1.434   1_556 S
C1643  I1701   2.138   .     S
C1643  N1645   1.375   .     A
C1643  C309    1.434   1_556 S
C1644  I1702   2.138   .     S
C1644  N1646   1.372   .     A
N1645  Zn1655  2.045   .     S
N1646  Zn1656  2.045   .     S
O1647  Zn1655  1.987   .     S
O1648  Zn1656  1.987   .     S
O1649  Zn1656  1.998   .     S
O1650  Zn1655  1.998   .     S
O1651  Zn1655  1.998   .     S
O1652  Zn1656  1.998   .     S
O1653  Zn1656  1.990   .     S
O1654  Zn1655  1.990   .     S
C1657  H1663   1.109   .     S
C1657  C1658   1.529   .     S
C1657  C1707   1.527   .     S
C1657  H1736   1.113   .     S
C1658  H1660   1.109   .     S
C1658  H1661   1.106   .     S
C1658  H1733   1.106   .     S
C1664  H1669   1.110   .     S
C1664  C1665   1.529   .     S
C1665  H1667   1.106   .     S
C1665  H1668   1.107   .     S
H1666  C1739   1.107   .     S
H1670  C1738   1.113   .     S
C1671  C1672   1.518   .     S
C1671  H1676   1.099   .     S
C1671  H1677   1.112   .     S
C1672  H1675   1.106   .     S
C1672  H1674   1.105   .     S
H1673  C1894   1.100   .     S
C1678  H1683   1.101   .     S
C1678  C1679   1.531   .     S
C1678  H1684   1.109   .     S
C1679  H1682   1.110   .     S
C1679  H1681   1.110   .     S
C1679  H1902   1.106   .     S
C1687  C1688   1.536   .     S
C1687  H1693   1.084   .     S
C1687  H1692   1.102   .     S
C1688  H1690   1.110   .     S
C1688  H1691   1.108   .     S
C1688  H1689   1.110   .     S
C1694  H1699   1.084   .     S
C1694  C1695   1.537   .     S
C1694  H1700   1.108   .     S
C1695  H1698   1.108   .     S
C1695  H1696   1.111   .     S
C1695  H1697   1.110   .     S
C1703  O1723   1.306   .     A
C1703  C1714   1.453   .     S
C1703  O1721   1.305   .     A
C1704  O1724   1.306   .     A
C1704  C1713   1.453   .     S
C1704  O1722   1.307   .     A
C1705  C1707   1.415   .     S
C1705  O1727   1.301   .     A
C1705  O1725   1.285   .     A
C1706  O1728   1.300   .     A
C1706  O1726   1.286   .     A
C1706  C1708   1.417   .     S
C1708  C1559   1.355   1_655 S
C1708  C1590   1.529   1_655 S
C1709  C1745   1.522   .     S
C1709  C1714   1.407   .     A
C1710  C1713   1.409   .     A
C1710  C1752   1.522   .     S
C1710  C1934   1.384   .     S
C1711  C1713   1.405   .     A
C1711  I1759   2.146   .     S
C1711  C1931   1.394   .     S
C1712  C1714   1.398   .     A
C1712  I1760   2.136   .     S
C1715  C1761   1.521   .     S
C1715  N1720   1.384   .     A
C1716  N1719   1.386   .     A
C1716  C1768   1.519   .     S
C1716  C386    1.434   1_556 S
C1717  I1775   2.138   .     S
C1717  N1719   1.375   .     A
C1717  C383    1.434   1_556 S
C1718  I1776   2.138   .     S
C1718  N1720   1.372   .     A
N1719  Zn1729  2.045   .     S
N1720  Zn1730  2.045   .     S
O1721  Zn1729  1.987   .     S
O1722  Zn1730  1.987   .     S
O1723  Zn1730  1.998   .     S
O1724  Zn1729  1.998   .     S
O1725  Zn1729  1.998   .     S
O1726  Zn1730  1.998   .     S
O1727  Zn1730  1.990   .     S
O1728  Zn1729  1.990   .     S
C1731  H1737   1.109   .     S
C1731  C1732   1.529   .     S
C1731  C1559   1.527   1_655 S
C1731  H1588   1.113   1_655 S
C1732  H1734   1.109   .     S
C1732  H1735   1.106   .     S
C1732  H1585   1.106   1_655 S
C1738  H1743   1.110   .     S
C1738  C1739   1.529   .     S
C1739  H1741   1.106   .     S
C1739  H1742   1.107   .     S
H1740  C1591   1.107   1_655 S
H1744  C1590   1.113   1_655 S
C1745  C1746   1.518   .     S
C1745  H1750   1.099   .     S
C1745  H1751   1.112   .     S
C1746  H1749   1.106   .     S
C1746  H1748   1.105   .     S
H1747  C1968   1.100   .     S
C1752  H1757   1.101   .     S
C1752  C1753   1.531   .     S
C1752  H1758   1.109   .     S
C1753  H1756   1.110   .     S
C1753  H1755   1.110   .     S
C1753  H1976   1.106   .     S
C1761  C1762   1.536   .     S
C1761  H1767   1.084   .     S
C1761  H1766   1.102   .     S
C1762  H1764   1.110   .     S
C1762  H1765   1.108   .     S
C1762  H1763   1.110   .     S
C1768  H1773   1.084   .     S
C1768  C1769   1.537   .     S
C1768  H1774   1.108   .     S
C1769  H1772   1.108   .     S
C1769  H1770   1.111   .     S
C1769  H1771   1.110   .     S
C1777  O1797   1.306   .     A
C1777  C1788   1.453   .     S
C1777  O1795   1.305   .     A
C1778  O1798   1.306   .     A
C1778  C1787   1.453   .     S
C1778  O1796   1.307   .     A
C1779  C1781   1.415   .     S
C1779  O1801   1.301   .     A
C1779  O1799   1.285   .     A
C1780  O1802   1.300   .     A
C1780  O1800   1.286   .     A
C1780  C1782   1.417   .     S
C1781  C1930   1.355   1_455 S
C1781  C1953   1.527   1_455 S
C1782  C1855   1.355   .     S
C1782  C1886   1.529   .     S
C1783  C1819   1.522   .     S
C1783  C1788   1.407   .     A
C1784  C1787   1.409   .     A
C1784  C1826   1.522   .     S
C1784  C1342   1.384   1_565 S
C1785  C1787   1.405   .     A
C1785  I1833   2.146   .     S
C1785  C1339   1.394   1_565 S
C1786  C1788   1.398   .     A
C1786  I1834   2.136   .     S
C1789  C1835   1.521   .     S
C1789  N1794   1.384   .     A
C1790  N1793   1.386   .     A
C1790  C1842   1.519   .     S
C1790  C460    1.434   1_556 S
C1791  I1849   2.138   .     S
C1791  N1793   1.375   .     A
C1791  C457    1.434   1_556 S
C1792  I1850   2.138   .     S
C1792  N1794   1.372   .     A
N1793  Zn1803  2.045   .     S
N1794  Zn1804  2.045   .     S
O1795  Zn1803  1.987   .     S
O1796  Zn1804  1.987   .     S
O1797  Zn1804  1.998   .     S
O1798  Zn1803  1.998   .     S
O1799  Zn1803  1.998   .     S
O1800  Zn1804  1.998   .     S
O1801  Zn1804  1.990   .     S
O1802  Zn1803  1.990   .     S
C1805  H1811   1.109   .     S
C1805  C1806   1.529   .     S
C1805  C1855   1.527   .     S
C1805  H1884   1.113   .     S
C1806  H1808   1.109   .     S
C1806  H1809   1.106   .     S
C1806  H1881   1.106   .     S
H1807  C1954   1.106   1_455 S
H1810  C1953   1.113   1_455 S
C1812  H1817   1.110   .     S
C1812  C1813   1.529   .     S
C1812  C1930   1.529   1_455 S
C1812  H1966   1.113   1_455 S
C1813  H1815   1.106   .     S
C1813  H1816   1.107   .     S
C1813  H1962   1.107   1_455 S
H1814  C1887   1.107   .     S
H1818  C1886   1.113   .     S
C1819  C1820   1.518   .     S
C1819  H1824   1.099   .     S
C1819  H1825   1.112   .     S
C1820  H1823   1.106   .     S
C1820  H1822   1.105   .     S
H1821  C1376   1.100   1_565 S
C1826  H1831   1.101   .     S
C1826  C1827   1.531   .     S
C1826  H1832   1.109   .     S
C1827  H1830   1.110   .     S
C1827  H1829   1.110   .     S
C1827  H1384   1.106   1_565 S
C1835  C1836   1.536   .     S
C1835  H1841   1.084   .     S
C1835  H1840   1.102   .     S
C1836  H1838   1.110   .     S
C1836  H1839   1.108   .     S
C1836  H1837   1.110   .     S
C1842  H1847   1.084   .     S
C1842  C1843   1.537   .     S
C1842  H1848   1.108   .     S
C1843  H1846   1.108   .     S
C1843  H1844   1.111   .     S
C1843  H1845   1.110   .     S
C1851  O1871   1.306   .     A
C1851  C1862   1.453   .     S
C1851  O1869   1.305   .     A
C1852  O1872   1.306   .     A
C1852  C1861   1.453   .     S
C1852  O1870   1.307   .     A
C1853  C1855   1.415   .     S
C1853  O1875   1.301   .     A
C1853  O1873   1.285   .     A
C1854  O1876   1.300   .     A
C1854  O1874   1.286   .     A
C1854  C1856   1.417   .     S
C1856  C1929   1.355   .     S
C1856  C1960   1.529   .     S
C1857  C1893   1.522   .     S
C1857  C1862   1.407   .     A
C1858  C1861   1.409   .     A
C1858  C1900   1.522   .     S
C1858  C1416   1.384   1_565 S
C1859  C1861   1.405   .     A
C1859  I1907   2.146   .     S
C1859  C1413   1.394   1_565 S
C1860  C1862   1.398   .     A
C1860  I1908   2.136   .     S
C1863  C1909   1.521   .     S
C1863  N1868   1.384   .     A
C1864  N1867   1.386   .     A
C1864  C1916   1.519   .     S
C1864  C534    1.434   1_556 S
C1865  I1923   2.138   .     S
C1865  N1867   1.375   .     A
C1865  C531    1.434   1_556 S
C1866  I1924   2.138   .     S
C1866  N1868   1.372   .     A
N1867  Zn1877  2.045   .     S
N1868  Zn1878  2.045   .     S
O1869  Zn1877  1.987   .     S
O1870  Zn1878  1.987   .     S
O1871  Zn1878  1.998   .     S
O1872  Zn1877  1.998   .     S
O1873  Zn1877  1.998   .     S
O1874  Zn1878  1.998   .     S
O1875  Zn1878  1.990   .     S
O1876  Zn1877  1.990   .     S
C1879  H1885   1.109   .     S
C1879  C1880   1.529   .     S
C1879  C1929   1.527   .     S
C1879  H1958   1.113   .     S
C1880  H1882   1.109   .     S
C1880  H1883   1.106   .     S
C1880  H1955   1.106   .     S
C1886  H1891   1.110   .     S
C1886  C1887   1.529   .     S
C1887  H1889   1.106   .     S
C1887  H1890   1.107   .     S
H1888  C1961   1.107   .     S
H1892  C1960   1.113   .     S
C1893  C1894   1.518   .     S
C1893  H1898   1.099   .     S
C1893  H1899   1.112   .     S
C1894  H1897   1.106   .     S
C1894  H1896   1.105   .     S
H1895  C1450   1.100   1_565 S
C1900  H1905   1.101   .     S
C1900  C1901   1.531   .     S
C1900  H1906   1.109   .     S
C1901  H1904   1.110   .     S
C1901  H1903   1.110   .     S
C1901  H1458   1.106   1_565 S
C1909  C1910   1.536   .     S
C1909  H1915   1.084   .     S
C1909  H1914   1.102   .     S
C1910  H1912   1.110   .     S
C1910  H1913   1.108   .     S
C1910  H1911   1.110   .     S
C1916  H1921   1.084   .     S
C1916  C1917   1.537   .     S
C1916  H1922   1.108   .     S
C1917  H1920   1.108   .     S
C1917  H1918   1.111   .     S
C1917  H1919   1.110   .     S
C1925  O1945   1.306   .     A
C1925  C1936   1.453   .     S
C1925  O1943   1.305   .     A
C1926  O1946   1.306   .     A
C1926  C1935   1.453   .     S
C1926  O1944   1.307   .     A
C1927  C1929   1.415   .     S
C1927  O1949   1.301   .     A
C1927  O1947   1.285   .     A
C1928  O1950   1.300   .     A
C1928  O1948   1.286   .     A
C1928  C1930   1.417   .     S
C1930  C1781   1.355   1_655 S
C1930  C1812   1.529   1_655 S
C1931  C1967   1.522   .     S
C1931  C1936   1.407   .     A
C1932  C1935   1.409   .     A
C1932  C1974   1.522   .     S
C1932  C1490   1.384   1_565 S
C1933  C1935   1.405   .     A
C1933  I1981   2.146   .     S
C1933  C1487   1.394   1_565 S
C1934  C1936   1.398   .     A
C1934  I1982   2.136   .     S
C1937  C1983   1.521   .     S
C1937  N1942   1.384   .     A
C1938  N1941   1.386   .     A
C1938  C1990   1.519   .     S
C1938  C608    1.434   1_556 S
C1939  I1997   2.138   .     S
C1939  N1941   1.375   .     A
C1939  C605    1.434   1_556 S
C1940  I1998   2.138   .     S
C1940  N1942   1.372   .     A
N1941  Zn1951  2.045   .     S
N1942  Zn1952  2.045   .     S
O1943  Zn1951  1.987   .     S
O1944  Zn1952  1.987   .     S
O1945  Zn1952  1.998   .     S
O1946  Zn1951  1.998   .     S
O1947  Zn1951  1.998   .     S
O1948  Zn1952  1.998   .     S
O1949  Zn1952  1.990   .     S
O1950  Zn1951  1.990   .     S
C1953  H1959   1.109   .     S
C1953  C1954   1.529   .     S
C1953  C1781   1.527   1_655 S
C1953  H1810   1.113   1_655 S
C1954  H1956   1.109   .     S
C1954  H1957   1.106   .     S
C1954  H1807   1.106   1_655 S
C1960  H1965   1.110   .     S
C1960  C1961   1.529   .     S
C1961  H1963   1.106   .     S
C1961  H1964   1.107   .     S
H1962  C1813   1.107   1_655 S
H1966  C1812   1.113   1_655 S
C1967  C1968   1.518   .     S
C1967  H1972   1.099   .     S
C1967  H1973   1.112   .     S
C1968  H1971   1.106   .     S
C1968  H1970   1.105   .     S
H1969  C1524   1.100   1_565 S
C1974  H1979   1.101   .     S
C1974  C1975   1.531   .     S
C1974  H1980   1.109   .     S
C1975  H1978   1.110   .     S
C1975  H1977   1.110   .     S
C1975  H1532   1.106   1_565 S
C1983  C1984   1.536   .     S
C1983  H1989   1.084   .     S
C1983  H1988   1.102   .     S
C1984  H1986   1.110   .     S
C1984  H1987   1.108   .     S
C1984  H1985   1.110   .     S
C1990  H1995   1.084   .     S
C1990  C1991   1.537   .     S
C1990  H1996   1.108   .     S
C1991  H1994   1.108   .     S
C1991  H1992   1.111   .     S
C1991  H1993   1.110   .     S
