data_str_m1_o10_o18_pcu_sym.211
_audit_creation_date              2020-01-03
_audit_creation_method            'Materials Studio'
_symmetry_space_group_name_H-M    'P1'
_symmetry_Int_Tables_number       1
_symmetry_cell_setting            triclinic
loop_
_symmetry_equiv_pos_as_xyz
  x,y,z
_cell_length_a                    32.5591
_cell_length_b                    32.5343
_cell_length_c                    35.6684
_cell_angle_alpha                 98.1809
_cell_angle_beta                  73.2092
_cell_angle_gamma                 98.5792
loop_
_atom_site_label
_atom_site_type_symbol
_atom_site_fract_x
_atom_site_fract_y
_atom_site_fract_z
_atom_site_U_iso_or_equiv
_atom_site_adp_type
_atom_site_occupancy
C1     C     0.05249   0.15987   0.25874   0.00000  Uiso   1.00
C2     C     0.18530   0.11804   0.46166   0.00000  Uiso   1.00
C3     C     0.20352   0.09568   0.48196   0.00000  Uiso   1.00
C4     C     0.28104   0.17354   0.24123   0.00000  Uiso   1.00
C5     C     0.19984   0.10783   0.02232   0.00000  Uiso   1.00
C6     C     0.17334   0.13947   0.04264   0.00000  Uiso   1.00
C7     C     0.22345   0.09036   0.04221   0.00000  Uiso   1.00
C8     C     0.22071   0.10275   0.08173   0.00000  Uiso   1.00
C9     C     0.17581   0.15651   0.08089   0.00000  Uiso   1.00
C10    C     0.32699   0.17618   0.23767   0.00000  Uiso   1.00
C11    C     0.00712   0.15740   0.26214   0.00000  Uiso   1.00
C12    C     0.10047   0.21726   0.42112   0.00000  Uiso   1.00
C13    C     0.18090   0.32214   0.23813   0.00000  Uiso   1.00
C14    C     0.15158   0.01206   0.26208   0.00000  Uiso   1.00
C15    C     0.15594   0.05609   0.25888   0.00000  Uiso   1.00
C16    C     0.17686   0.27766   0.24135   0.00000  Uiso   1.00
C17    C     0.18785   0.14548   0.14403   0.00000  Uiso   1.00
C18    C     0.14538   0.18761   0.35624   0.00000  Uiso   1.00
C19    C     0.13330   0.19304   0.39961   0.00000  Uiso   1.00
C20    C     0.19647   0.13589   0.10138   0.00000  Uiso   1.00
C21    C     0.08714   0.21932   0.46205   0.00000  Uiso   1.00
C22    C     0.15313   0.17160   0.41961   0.00000  Uiso   1.00
C23    C     0.13909   0.17180   0.46089   0.00000  Uiso   1.00
C24    C     0.10581   0.19654   0.48234   0.00000  Uiso   1.00
C25    C     0.15810   0.14895   0.48131   0.00000  Uiso   1.00
C26    C     0.14762   0.15535   0.02292   0.00000  Uiso   1.00
C27    C     0.10982   0.17434   0.04353   0.00000  Uiso   1.00
C28    C     0.09089   0.19755   0.02351   0.00000  Uiso   1.00
H29    H     0.24468   0.06693   0.02742   0.00000  Uiso   1.00
H30    H     0.06011   0.22972   0.07081   0.00000  Uiso   1.00
H31    H     0.17104   0.20652   0.11929   0.00000  Uiso   1.00
H32    H     0.24206   0.09580   0.12622   0.00000  Uiso   1.00
H33    H     0.22127   0.04069   0.47784   0.00000  Uiso   1.00
H34    H     0.05804   0.16791   0.08752   0.00000  Uiso   1.00
H35    H     0.01664   0.19347   0.21503   0.00000  Uiso   1.00
H36    H     0.31814   0.14005   0.28505   0.00000  Uiso   1.00
H37    H     0.20799   0.00276   0.21609   0.00000  Uiso   1.00
H38    H     0.12410   0.33220   0.28418   0.00000  Uiso   1.00
H39    H     0.06155   0.23831   0.47765   0.00000  Uiso   1.00
H40    H     0.08467   0.23423   0.40631   0.00000  Uiso   1.00
H41    H     0.18008   0.15544   0.40228   0.00000  Uiso   1.00
H42    H     0.19034   0.10804   0.43068   0.00000  Uiso   1.00
O43    O     0.16667   0.16667   0.25000   0.00000  Uiso   1.00
O44    O     0.15693   0.12393   0.16625   0.00000  Uiso   1.00
O45    O     0.12687   0.20646   0.33749   0.00000  Uiso   1.00
O46    O     0.21088   0.17493   0.15877   0.00000  Uiso   1.00
O47    O     0.17198   0.16135   0.33749   0.00000  Uiso   1.00
O48    O     0.05799   0.22147   0.04354   0.00000  Uiso   1.00
O49    O     0.16052   0.19466   0.09620   0.00000  Uiso   1.00
O50    O     0.24297   0.08202   0.09947   0.00000  Uiso   1.00
O51    O     0.22606   0.06333   0.46070   0.00000  Uiso   1.00
O52    O     0.08929   0.16556   0.08175   0.00000  Uiso   1.00
O53    O     0.17849   0.08101   0.27821   0.00000  Uiso   1.00
O54    O     0.14581   0.26136   0.26767   0.00000  Uiso   1.00
O55    O     0.07452   0.13251   0.23607   0.00000  Uiso   1.00
O56    O     0.26785   0.19179   0.21805   0.00000  Uiso   1.00
O57    O     0.06990   0.18960   0.27820   0.00000  Uiso   1.00
O58    O     0.25440   0.15277   0.26767   0.00000  Uiso   1.00
O59    O     0.13800   0.06903   0.23607   0.00000  Uiso   1.00
O60    O     0.20437   0.25527   0.21805   0.00000  Uiso   1.00
Zn61   Zn    0.19244   0.14090   0.28278   0.00000  Uiso   1.00
Zn62   Zn    0.13459   0.12378   0.22258   0.00000  Uiso   1.00
Zn63   Zn    0.21166   0.19664   0.21188   0.00000  Uiso   1.00
Zn64   Zn    0.12798   0.20535   0.28277   0.00000  Uiso   1.00
C65    C     0.38582   0.15987   0.25874   0.00000  Uiso   1.00
C66    C     0.51863   0.11804   0.46166   0.00000  Uiso   1.00
C67    C     0.53685   0.09568   0.48196   0.00000  Uiso   1.00
C68    C     0.61438   0.17354   0.24123   0.00000  Uiso   1.00
C69    C     0.53318   0.10783   0.02232   0.00000  Uiso   1.00
C70    C     0.50667   0.13947   0.04264   0.00000  Uiso   1.00
C71    C     0.55678   0.09036   0.04221   0.00000  Uiso   1.00
C72    C     0.55404   0.10275   0.08173   0.00000  Uiso   1.00
C73    C     0.50914   0.15651   0.08089   0.00000  Uiso   1.00
C74    C     0.66032   0.17618   0.23767   0.00000  Uiso   1.00
C75    C     0.34046   0.15740   0.26214   0.00000  Uiso   1.00
C76    C     0.43381   0.21726   0.42112   0.00000  Uiso   1.00
C77    C     0.51423   0.32214   0.23813   0.00000  Uiso   1.00
C78    C     0.48492   0.01206   0.26208   0.00000  Uiso   1.00
C79    C     0.48928   0.05609   0.25888   0.00000  Uiso   1.00
C80    C     0.51019   0.27766   0.24135   0.00000  Uiso   1.00
C81    C     0.52119   0.14548   0.14403   0.00000  Uiso   1.00
C82    C     0.47871   0.18761   0.35624   0.00000  Uiso   1.00
C83    C     0.46663   0.19304   0.39961   0.00000  Uiso   1.00
C84    C     0.52981   0.13589   0.10138   0.00000  Uiso   1.00
C85    C     0.42047   0.21932   0.46205   0.00000  Uiso   1.00
C86    C     0.48647   0.17160   0.41961   0.00000  Uiso   1.00
C87    C     0.47242   0.17180   0.46089   0.00000  Uiso   1.00
C88    C     0.43914   0.19654   0.48234   0.00000  Uiso   1.00
C89    C     0.49143   0.14895   0.48131   0.00000  Uiso   1.00
C90    C     0.48095   0.15535   0.02292   0.00000  Uiso   1.00
C91    C     0.44316   0.17434   0.04353   0.00000  Uiso   1.00
C92    C     0.42423   0.19755   0.02351   0.00000  Uiso   1.00
H93    H     0.57801   0.06693   0.02742   0.00000  Uiso   1.00
H94    H     0.39344   0.22972   0.07081   0.00000  Uiso   1.00
H95    H     0.50437   0.20652   0.11929   0.00000  Uiso   1.00
H96    H     0.57539   0.09580   0.12622   0.00000  Uiso   1.00
H97    H     0.55460   0.04069   0.47784   0.00000  Uiso   1.00
H98    H     0.39137   0.16791   0.08752   0.00000  Uiso   1.00
H99    H     0.34997   0.19347   0.21503   0.00000  Uiso   1.00
H100   H     0.65147   0.14005   0.28505   0.00000  Uiso   1.00
H101   H     0.54132   0.00276   0.21609   0.00000  Uiso   1.00
H102   H     0.45743   0.33220   0.28418   0.00000  Uiso   1.00
H103   H     0.39489   0.23831   0.47765   0.00000  Uiso   1.00
H104   H     0.41800   0.23423   0.40631   0.00000  Uiso   1.00
H105   H     0.51342   0.15544   0.40228   0.00000  Uiso   1.00
H106   H     0.52367   0.10804   0.43068   0.00000  Uiso   1.00
O107   O     0.50000   0.16667   0.25000   0.00000  Uiso   1.00
O108   O     0.49027   0.12393   0.16625   0.00000  Uiso   1.00
O109   O     0.46020   0.20646   0.33749   0.00000  Uiso   1.00
O110   O     0.54421   0.17493   0.15877   0.00000  Uiso   1.00
O111   O     0.50532   0.16135   0.33749   0.00000  Uiso   1.00
O112   O     0.39132   0.22147   0.04354   0.00000  Uiso   1.00
O113   O     0.49386   0.19466   0.09620   0.00000  Uiso   1.00
O114   O     0.57630   0.08202   0.09947   0.00000  Uiso   1.00
O115   O     0.55940   0.06333   0.46070   0.00000  Uiso   1.00
O116   O     0.42262   0.16556   0.08175   0.00000  Uiso   1.00
O117   O     0.51182   0.08101   0.27821   0.00000  Uiso   1.00
O118   O     0.47914   0.26136   0.26767   0.00000  Uiso   1.00
O119   O     0.40785   0.13251   0.23607   0.00000  Uiso   1.00
O120   O     0.60119   0.19179   0.21805   0.00000  Uiso   1.00
O121   O     0.40323   0.18960   0.27820   0.00000  Uiso   1.00
O122   O     0.58773   0.15277   0.26767   0.00000  Uiso   1.00
O123   O     0.47133   0.06903   0.23607   0.00000  Uiso   1.00
O124   O     0.53771   0.25527   0.21805   0.00000  Uiso   1.00
Zn125  Zn    0.52577   0.14090   0.28278   0.00000  Uiso   1.00
Zn126  Zn    0.46792   0.12378   0.22258   0.00000  Uiso   1.00
Zn127  Zn    0.54500   0.19664   0.21188   0.00000  Uiso   1.00
Zn128  Zn    0.46131   0.20535   0.28277   0.00000  Uiso   1.00
C129   C     0.71915   0.15987   0.25874   0.00000  Uiso   1.00
C130   C     0.85196   0.11804   0.46166   0.00000  Uiso   1.00
C131   C     0.87019   0.09568   0.48196   0.00000  Uiso   1.00
C132   C     0.94771   0.17354   0.24123   0.00000  Uiso   1.00
C133   C     0.86651   0.10783   0.02232   0.00000  Uiso   1.00
C134   C     0.84000   0.13947   0.04264   0.00000  Uiso   1.00
C135   C     0.89011   0.09036   0.04221   0.00000  Uiso   1.00
C136   C     0.88737   0.10275   0.08173   0.00000  Uiso   1.00
C137   C     0.84248   0.15651   0.08089   0.00000  Uiso   1.00
C138   C     0.99365   0.17618   0.23767   0.00000  Uiso   1.00
C139   C     0.67379   0.15740   0.26214   0.00000  Uiso   1.00
C140   C     0.76714   0.21726   0.42112   0.00000  Uiso   1.00
C141   C     0.84756   0.32214   0.23813   0.00000  Uiso   1.00
C142   C     0.81825   0.01206   0.26208   0.00000  Uiso   1.00
C143   C     0.82261   0.05609   0.25888   0.00000  Uiso   1.00
C144   C     0.84352   0.27766   0.24135   0.00000  Uiso   1.00
C145   C     0.85452   0.14548   0.14403   0.00000  Uiso   1.00
C146   C     0.81204   0.18761   0.35624   0.00000  Uiso   1.00
C147   C     0.79996   0.19304   0.39961   0.00000  Uiso   1.00
C148   C     0.86314   0.13589   0.10138   0.00000  Uiso   1.00
C149   C     0.75380   0.21932   0.46205   0.00000  Uiso   1.00
C150   C     0.81980   0.17160   0.41961   0.00000  Uiso   1.00
C151   C     0.80576   0.17180   0.46089   0.00000  Uiso   1.00
C152   C     0.77248   0.19654   0.48234   0.00000  Uiso   1.00
C153   C     0.82476   0.14895   0.48131   0.00000  Uiso   1.00
C154   C     0.81428   0.15535   0.02292   0.00000  Uiso   1.00
C155   C     0.77649   0.17434   0.04353   0.00000  Uiso   1.00
C156   C     0.75756   0.19755   0.02351   0.00000  Uiso   1.00
H157   H     0.91134   0.06693   0.02742   0.00000  Uiso   1.00
H158   H     0.72677   0.22972   0.07081   0.00000  Uiso   1.00
H159   H     0.83771   0.20652   0.11929   0.00000  Uiso   1.00
H160   H     0.90872   0.09580   0.12622   0.00000  Uiso   1.00
H161   H     0.88794   0.04069   0.47784   0.00000  Uiso   1.00
H162   H     0.72470   0.16791   0.08752   0.00000  Uiso   1.00
H163   H     0.68330   0.19347   0.21503   0.00000  Uiso   1.00
H164   H     0.98481   0.14005   0.28505   0.00000  Uiso   1.00
H165   H     0.87465   0.00276   0.21609   0.00000  Uiso   1.00
H166   H     0.79077   0.33220   0.28418   0.00000  Uiso   1.00
H167   H     0.72822   0.23831   0.47765   0.00000  Uiso   1.00
H168   H     0.75134   0.23423   0.40631   0.00000  Uiso   1.00
H169   H     0.84675   0.15544   0.40228   0.00000  Uiso   1.00
H170   H     0.85700   0.10804   0.43068   0.00000  Uiso   1.00
O171   O     0.83333   0.16667   0.25000   0.00000  Uiso   1.00
O172   O     0.82360   0.12393   0.16625   0.00000  Uiso   1.00
O173   O     0.79354   0.20646   0.33749   0.00000  Uiso   1.00
O174   O     0.87755   0.17493   0.15877   0.00000  Uiso   1.00
O175   O     0.83865   0.16135   0.33749   0.00000  Uiso   1.00
O176   O     0.72465   0.22147   0.04354   0.00000  Uiso   1.00
O177   O     0.82719   0.19466   0.09620   0.00000  Uiso   1.00
O178   O     0.90963   0.08202   0.09947   0.00000  Uiso   1.00
O179   O     0.89273   0.06333   0.46070   0.00000  Uiso   1.00
O180   O     0.75595   0.16556   0.08175   0.00000  Uiso   1.00
O181   O     0.84515   0.08101   0.27821   0.00000  Uiso   1.00
O182   O     0.81247   0.26136   0.26767   0.00000  Uiso   1.00
O183   O     0.74119   0.13251   0.23607   0.00000  Uiso   1.00
O184   O     0.93452   0.19179   0.21805   0.00000  Uiso   1.00
O185   O     0.73656   0.18960   0.27820   0.00000  Uiso   1.00
O186   O     0.92106   0.15277   0.26767   0.00000  Uiso   1.00
O187   O     0.80467   0.06903   0.23607   0.00000  Uiso   1.00
O188   O     0.87104   0.25527   0.21805   0.00000  Uiso   1.00
Zn189  Zn    0.85910   0.14090   0.28278   0.00000  Uiso   1.00
Zn190  Zn    0.80125   0.12378   0.22258   0.00000  Uiso   1.00
Zn191  Zn    0.87833   0.19664   0.21188   0.00000  Uiso   1.00
Zn192  Zn    0.79465   0.20535   0.28277   0.00000  Uiso   1.00
C193   C     0.05249   0.49320   0.25874   0.00000  Uiso   1.00
C194   C     0.18530   0.45138   0.46166   0.00000  Uiso   1.00
C195   C     0.20352   0.42901   0.48196   0.00000  Uiso   1.00
C196   C     0.28104   0.50688   0.24123   0.00000  Uiso   1.00
C197   C     0.19984   0.44116   0.02232   0.00000  Uiso   1.00
C198   C     0.17334   0.47281   0.04264   0.00000  Uiso   1.00
C199   C     0.22345   0.42369   0.04221   0.00000  Uiso   1.00
C200   C     0.22071   0.43608   0.08173   0.00000  Uiso   1.00
C201   C     0.17581   0.48984   0.08089   0.00000  Uiso   1.00
C202   C     0.32699   0.50952   0.23767   0.00000  Uiso   1.00
C203   C     0.00712   0.49073   0.26214   0.00000  Uiso   1.00
C204   C     0.10047   0.55059   0.42112   0.00000  Uiso   1.00
C205   C     0.18090   0.65548   0.23813   0.00000  Uiso   1.00
C206   C     0.15158   0.34539   0.26208   0.00000  Uiso   1.00
C207   C     0.15594   0.38942   0.25888   0.00000  Uiso   1.00
C208   C     0.17686   0.61099   0.24135   0.00000  Uiso   1.00
C209   C     0.18785   0.47881   0.14403   0.00000  Uiso   1.00
C210   C     0.14538   0.52094   0.35624   0.00000  Uiso   1.00
C211   C     0.13330   0.52638   0.39961   0.00000  Uiso   1.00
C212   C     0.19647   0.46922   0.10138   0.00000  Uiso   1.00
C213   C     0.08714   0.55265   0.46205   0.00000  Uiso   1.00
C214   C     0.15313   0.50493   0.41961   0.00000  Uiso   1.00
C215   C     0.13909   0.50513   0.46089   0.00000  Uiso   1.00
C216   C     0.10581   0.52987   0.48234   0.00000  Uiso   1.00
C217   C     0.15810   0.48228   0.48131   0.00000  Uiso   1.00
C218   C     0.14762   0.48869   0.02292   0.00000  Uiso   1.00
C219   C     0.10982   0.50768   0.04353   0.00000  Uiso   1.00
C220   C     0.09089   0.53088   0.02351   0.00000  Uiso   1.00
H221   H     0.24468   0.40026   0.02742   0.00000  Uiso   1.00
H222   H     0.06011   0.56305   0.07081   0.00000  Uiso   1.00
H223   H     0.17104   0.53985   0.11929   0.00000  Uiso   1.00
H224   H     0.24206   0.42913   0.12622   0.00000  Uiso   1.00
H225   H     0.22127   0.37402   0.47784   0.00000  Uiso   1.00
H226   H     0.05804   0.50125   0.08752   0.00000  Uiso   1.00
H227   H     0.01664   0.52681   0.21503   0.00000  Uiso   1.00
H228   H     0.31814   0.47338   0.28505   0.00000  Uiso   1.00
H229   H     0.20799   0.33610   0.21609   0.00000  Uiso   1.00
H230   H     0.12410   0.66553   0.28418   0.00000  Uiso   1.00
H231   H     0.06155   0.57164   0.47765   0.00000  Uiso   1.00
H232   H     0.08467   0.56756   0.40631   0.00000  Uiso   1.00
H233   H     0.18008   0.48877   0.40228   0.00000  Uiso   1.00
H234   H     0.19034   0.44137   0.43068   0.00000  Uiso   1.00
O235   O     0.16667   0.50000   0.25000   0.00000  Uiso   1.00
O236   O     0.15693   0.45726   0.16625   0.00000  Uiso   1.00
O237   O     0.12687   0.53979   0.33749   0.00000  Uiso   1.00
O238   O     0.21088   0.50826   0.15877   0.00000  Uiso   1.00
O239   O     0.17198   0.49468   0.33749   0.00000  Uiso   1.00
O240   O     0.05799   0.55480   0.04354   0.00000  Uiso   1.00
O241   O     0.16052   0.52799   0.09620   0.00000  Uiso   1.00
O242   O     0.24297   0.41535   0.09947   0.00000  Uiso   1.00
O243   O     0.22606   0.39666   0.46070   0.00000  Uiso   1.00
O244   O     0.08929   0.49890   0.08175   0.00000  Uiso   1.00
O245   O     0.17849   0.41434   0.27821   0.00000  Uiso   1.00
O246   O     0.14581   0.59469   0.26767   0.00000  Uiso   1.00
O247   O     0.07452   0.46584   0.23607   0.00000  Uiso   1.00
O248   O     0.26785   0.52512   0.21805   0.00000  Uiso   1.00
O249   O     0.06990   0.52293   0.27820   0.00000  Uiso   1.00
O250   O     0.25440   0.48610   0.26767   0.00000  Uiso   1.00
O251   O     0.13800   0.40236   0.23607   0.00000  Uiso   1.00
O252   O     0.20437   0.58860   0.21805   0.00000  Uiso   1.00
Zn253  Zn    0.19244   0.47423   0.28278   0.00000  Uiso   1.00
Zn254  Zn    0.13459   0.45711   0.22258   0.00000  Uiso   1.00
Zn255  Zn    0.21166   0.52997   0.21188   0.00000  Uiso   1.00
Zn256  Zn    0.12798   0.53868   0.28277   0.00000  Uiso   1.00
C257   C     0.38582   0.49320   0.25874   0.00000  Uiso   1.00
C258   C     0.51863   0.45138   0.46166   0.00000  Uiso   1.00
C259   C     0.53685   0.42901   0.48196   0.00000  Uiso   1.00
C260   C     0.61438   0.50688   0.24123   0.00000  Uiso   1.00
C261   C     0.53318   0.44116   0.02232   0.00000  Uiso   1.00
C262   C     0.50667   0.47281   0.04264   0.00000  Uiso   1.00
C263   C     0.55678   0.42369   0.04221   0.00000  Uiso   1.00
C264   C     0.55404   0.43608   0.08173   0.00000  Uiso   1.00
C265   C     0.50914   0.48984   0.08089   0.00000  Uiso   1.00
C266   C     0.66032   0.50952   0.23767   0.00000  Uiso   1.00
C267   C     0.34046   0.49073   0.26214   0.00000  Uiso   1.00
C268   C     0.43381   0.55059   0.42112   0.00000  Uiso   1.00
C269   C     0.51423   0.65548   0.23813   0.00000  Uiso   1.00
C270   C     0.48492   0.34539   0.26208   0.00000  Uiso   1.00
C271   C     0.48928   0.38942   0.25888   0.00000  Uiso   1.00
C272   C     0.51019   0.61099   0.24135   0.00000  Uiso   1.00
C273   C     0.52119   0.47881   0.14403   0.00000  Uiso   1.00
C274   C     0.47871   0.52094   0.35624   0.00000  Uiso   1.00
C275   C     0.46663   0.52638   0.39961   0.00000  Uiso   1.00
C276   C     0.52981   0.46922   0.10138   0.00000  Uiso   1.00
C277   C     0.42047   0.55265   0.46205   0.00000  Uiso   1.00
C278   C     0.48647   0.50493   0.41961   0.00000  Uiso   1.00
C279   C     0.47242   0.50513   0.46089   0.00000  Uiso   1.00
C280   C     0.43914   0.52987   0.48234   0.00000  Uiso   1.00
C281   C     0.49143   0.48228   0.48131   0.00000  Uiso   1.00
C282   C     0.48095   0.48869   0.02292   0.00000  Uiso   1.00
C283   C     0.44316   0.50768   0.04353   0.00000  Uiso   1.00
C284   C     0.42423   0.53088   0.02351   0.00000  Uiso   1.00
H285   H     0.57801   0.40026   0.02742   0.00000  Uiso   1.00
H286   H     0.39344   0.56305   0.07081   0.00000  Uiso   1.00
H287   H     0.50437   0.53985   0.11929   0.00000  Uiso   1.00
H288   H     0.57539   0.42913   0.12622   0.00000  Uiso   1.00
H289   H     0.55460   0.37402   0.47784   0.00000  Uiso   1.00
H290   H     0.39137   0.50125   0.08752   0.00000  Uiso   1.00
H291   H     0.34997   0.52681   0.21503   0.00000  Uiso   1.00
H292   H     0.65147   0.47338   0.28505   0.00000  Uiso   1.00
H293   H     0.54132   0.33610   0.21609   0.00000  Uiso   1.00
H294   H     0.45743   0.66553   0.28418   0.00000  Uiso   1.00
H295   H     0.39489   0.57164   0.47765   0.00000  Uiso   1.00
H296   H     0.41800   0.56756   0.40631   0.00000  Uiso   1.00
H297   H     0.51342   0.48877   0.40228   0.00000  Uiso   1.00
H298   H     0.52367   0.44137   0.43068   0.00000  Uiso   1.00
O299   O     0.50000   0.50000   0.25000   0.00000  Uiso   1.00
O300   O     0.49027   0.45726   0.16625   0.00000  Uiso   1.00
O301   O     0.46020   0.53979   0.33749   0.00000  Uiso   1.00
O302   O     0.54421   0.50826   0.15877   0.00000  Uiso   1.00
O303   O     0.50532   0.49468   0.33749   0.00000  Uiso   1.00
O304   O     0.39132   0.55480   0.04354   0.00000  Uiso   1.00
O305   O     0.49386   0.52799   0.09620   0.00000  Uiso   1.00
O306   O     0.57630   0.41535   0.09947   0.00000  Uiso   1.00
O307   O     0.55940   0.39666   0.46070   0.00000  Uiso   1.00
O308   O     0.42262   0.49890   0.08175   0.00000  Uiso   1.00
O309   O     0.51182   0.41434   0.27821   0.00000  Uiso   1.00
O310   O     0.47914   0.59469   0.26767   0.00000  Uiso   1.00
O311   O     0.40785   0.46584   0.23607   0.00000  Uiso   1.00
O312   O     0.60119   0.52512   0.21805   0.00000  Uiso   1.00
O313   O     0.40323   0.52293   0.27820   0.00000  Uiso   1.00
O314   O     0.58773   0.48610   0.26767   0.00000  Uiso   1.00
O315   O     0.47133   0.40236   0.23607   0.00000  Uiso   1.00
O316   O     0.53771   0.58860   0.21805   0.00000  Uiso   1.00
Zn317  Zn    0.52577   0.47423   0.28278   0.00000  Uiso   1.00
Zn318  Zn    0.46792   0.45711   0.22258   0.00000  Uiso   1.00
Zn319  Zn    0.54500   0.52997   0.21188   0.00000  Uiso   1.00
Zn320  Zn    0.46131   0.53868   0.28277   0.00000  Uiso   1.00
C321   C     0.71915   0.49320   0.25874   0.00000  Uiso   1.00
C322   C     0.85196   0.45138   0.46166   0.00000  Uiso   1.00
C323   C     0.87019   0.42901   0.48196   0.00000  Uiso   1.00
C324   C     0.94771   0.50688   0.24123   0.00000  Uiso   1.00
C325   C     0.86651   0.44116   0.02232   0.00000  Uiso   1.00
C326   C     0.84000   0.47281   0.04264   0.00000  Uiso   1.00
C327   C     0.89011   0.42369   0.04221   0.00000  Uiso   1.00
C328   C     0.88737   0.43608   0.08173   0.00000  Uiso   1.00
C329   C     0.84248   0.48984   0.08089   0.00000  Uiso   1.00
C330   C     0.99365   0.50952   0.23767   0.00000  Uiso   1.00
C331   C     0.67379   0.49073   0.26214   0.00000  Uiso   1.00
C332   C     0.76714   0.55059   0.42112   0.00000  Uiso   1.00
C333   C     0.84756   0.65548   0.23813   0.00000  Uiso   1.00
C334   C     0.81825   0.34539   0.26208   0.00000  Uiso   1.00
C335   C     0.82261   0.38942   0.25888   0.00000  Uiso   1.00
C336   C     0.84352   0.61099   0.24135   0.00000  Uiso   1.00
C337   C     0.85452   0.47881   0.14403   0.00000  Uiso   1.00
C338   C     0.81204   0.52094   0.35624   0.00000  Uiso   1.00
C339   C     0.79996   0.52638   0.39961   0.00000  Uiso   1.00
C340   C     0.86314   0.46922   0.10138   0.00000  Uiso   1.00
C341   C     0.75380   0.55265   0.46205   0.00000  Uiso   1.00
C342   C     0.81980   0.50493   0.41961   0.00000  Uiso   1.00
C343   C     0.80576   0.50513   0.46089   0.00000  Uiso   1.00
C344   C     0.77248   0.52987   0.48234   0.00000  Uiso   1.00
C345   C     0.82476   0.48228   0.48131   0.00000  Uiso   1.00
C346   C     0.81428   0.48869   0.02292   0.00000  Uiso   1.00
C347   C     0.77649   0.50768   0.04353   0.00000  Uiso   1.00
C348   C     0.75756   0.53088   0.02351   0.00000  Uiso   1.00
H349   H     0.91134   0.40026   0.02742   0.00000  Uiso   1.00
H350   H     0.72677   0.56305   0.07081   0.00000  Uiso   1.00
H351   H     0.83771   0.53985   0.11929   0.00000  Uiso   1.00
H352   H     0.90872   0.42913   0.12622   0.00000  Uiso   1.00
H353   H     0.88794   0.37402   0.47784   0.00000  Uiso   1.00
H354   H     0.72470   0.50125   0.08752   0.00000  Uiso   1.00
H355   H     0.68330   0.52681   0.21503   0.00000  Uiso   1.00
H356   H     0.98481   0.47338   0.28505   0.00000  Uiso   1.00
H357   H     0.87465   0.33610   0.21609   0.00000  Uiso   1.00
H358   H     0.79077   0.66553   0.28418   0.00000  Uiso   1.00
H359   H     0.72822   0.57164   0.47765   0.00000  Uiso   1.00
H360   H     0.75134   0.56756   0.40631   0.00000  Uiso   1.00
H361   H     0.84675   0.48877   0.40228   0.00000  Uiso   1.00
H362   H     0.85700   0.44137   0.43068   0.00000  Uiso   1.00
O363   O     0.83333   0.50000   0.25000   0.00000  Uiso   1.00
O364   O     0.82360   0.45726   0.16625   0.00000  Uiso   1.00
O365   O     0.79354   0.53979   0.33749   0.00000  Uiso   1.00
O366   O     0.87755   0.50826   0.15877   0.00000  Uiso   1.00
O367   O     0.83865   0.49468   0.33749   0.00000  Uiso   1.00
O368   O     0.72465   0.55480   0.04354   0.00000  Uiso   1.00
O369   O     0.82719   0.52799   0.09620   0.00000  Uiso   1.00
O370   O     0.90963   0.41535   0.09947   0.00000  Uiso   1.00
O371   O     0.89273   0.39666   0.46070   0.00000  Uiso   1.00
O372   O     0.75595   0.49890   0.08175   0.00000  Uiso   1.00
O373   O     0.84515   0.41434   0.27821   0.00000  Uiso   1.00
O374   O     0.81247   0.59469   0.26767   0.00000  Uiso   1.00
O375   O     0.74119   0.46584   0.23607   0.00000  Uiso   1.00
O376   O     0.93452   0.52512   0.21805   0.00000  Uiso   1.00
O377   O     0.73656   0.52293   0.27820   0.00000  Uiso   1.00
O378   O     0.92106   0.48610   0.26767   0.00000  Uiso   1.00
O379   O     0.80467   0.40236   0.23607   0.00000  Uiso   1.00
O380   O     0.87104   0.58860   0.21805   0.00000  Uiso   1.00
Zn381  Zn    0.85910   0.47423   0.28278   0.00000  Uiso   1.00
Zn382  Zn    0.80125   0.45711   0.22258   0.00000  Uiso   1.00
Zn383  Zn    0.87833   0.52997   0.21188   0.00000  Uiso   1.00
Zn384  Zn    0.79465   0.53868   0.28277   0.00000  Uiso   1.00
C385   C     0.05249   0.82654   0.25874   0.00000  Uiso   1.00
C386   C     0.18530   0.78471   0.46166   0.00000  Uiso   1.00
C387   C     0.20352   0.76235   0.48196   0.00000  Uiso   1.00
C388   C     0.28104   0.84021   0.24123   0.00000  Uiso   1.00
C389   C     0.19984   0.77450   0.02232   0.00000  Uiso   1.00
C390   C     0.17334   0.80614   0.04264   0.00000  Uiso   1.00
C391   C     0.22345   0.75703   0.04221   0.00000  Uiso   1.00
C392   C     0.22071   0.76941   0.08173   0.00000  Uiso   1.00
C393   C     0.17581   0.82317   0.08089   0.00000  Uiso   1.00
C394   C     0.32699   0.84285   0.23767   0.00000  Uiso   1.00
C395   C     0.00712   0.82407   0.26214   0.00000  Uiso   1.00
C396   C     0.10047   0.88393   0.42112   0.00000  Uiso   1.00
C397   C     0.18090   0.98881   0.23813   0.00000  Uiso   1.00
C398   C     0.15158   0.67872   0.26208   0.00000  Uiso   1.00
C399   C     0.15594   0.72275   0.25888   0.00000  Uiso   1.00
C400   C     0.17686   0.94432   0.24135   0.00000  Uiso   1.00
C401   C     0.18785   0.81214   0.14403   0.00000  Uiso   1.00
C402   C     0.14538   0.85427   0.35624   0.00000  Uiso   1.00
C403   C     0.13330   0.85971   0.39961   0.00000  Uiso   1.00
C404   C     0.19647   0.80256   0.10138   0.00000  Uiso   1.00
C405   C     0.08714   0.88599   0.46205   0.00000  Uiso   1.00
C406   C     0.15313   0.83826   0.41961   0.00000  Uiso   1.00
C407   C     0.13909   0.83847   0.46089   0.00000  Uiso   1.00
C408   C     0.10581   0.86320   0.48234   0.00000  Uiso   1.00
C409   C     0.15810   0.81561   0.48131   0.00000  Uiso   1.00
C410   C     0.14762   0.82202   0.02292   0.00000  Uiso   1.00
C411   C     0.10982   0.84101   0.04353   0.00000  Uiso   1.00
C412   C     0.09089   0.86422   0.02351   0.00000  Uiso   1.00
H413   H     0.24468   0.73359   0.02742   0.00000  Uiso   1.00
H414   H     0.06011   0.89638   0.07081   0.00000  Uiso   1.00
H415   H     0.17104   0.87318   0.11929   0.00000  Uiso   1.00
H416   H     0.24206   0.76247   0.12622   0.00000  Uiso   1.00
H417   H     0.22127   0.70735   0.47784   0.00000  Uiso   1.00
H418   H     0.05804   0.83458   0.08752   0.00000  Uiso   1.00
H419   H     0.01664   0.86014   0.21503   0.00000  Uiso   1.00
H420   H     0.31814   0.80671   0.28505   0.00000  Uiso   1.00
H421   H     0.20799   0.66943   0.21609   0.00000  Uiso   1.00
H422   H     0.12410   0.99886   0.28418   0.00000  Uiso   1.00
H423   H     0.06155   0.90497   0.47765   0.00000  Uiso   1.00
H424   H     0.08467   0.90089   0.40631   0.00000  Uiso   1.00
H425   H     0.18008   0.82210   0.40228   0.00000  Uiso   1.00
H426   H     0.19034   0.77470   0.43068   0.00000  Uiso   1.00
O427   O     0.16667   0.83333   0.25000   0.00000  Uiso   1.00
O428   O     0.15693   0.79060   0.16625   0.00000  Uiso   1.00
O429   O     0.12687   0.87313   0.33749   0.00000  Uiso   1.00
O430   O     0.21088   0.84159   0.15877   0.00000  Uiso   1.00
O431   O     0.17198   0.82802   0.33749   0.00000  Uiso   1.00
O432   O     0.05799   0.88814   0.04354   0.00000  Uiso   1.00
O433   O     0.16052   0.86133   0.09620   0.00000  Uiso   1.00
O434   O     0.24297   0.74868   0.09947   0.00000  Uiso   1.00
O435   O     0.22606   0.72999   0.46070   0.00000  Uiso   1.00
O436   O     0.08929   0.83223   0.08175   0.00000  Uiso   1.00
O437   O     0.17849   0.74768   0.27821   0.00000  Uiso   1.00
O438   O     0.14581   0.92803   0.26767   0.00000  Uiso   1.00
O439   O     0.07452   0.79917   0.23607   0.00000  Uiso   1.00
O440   O     0.26785   0.85845   0.21805   0.00000  Uiso   1.00
O441   O     0.06990   0.85627   0.27820   0.00000  Uiso   1.00
O442   O     0.25440   0.81944   0.26767   0.00000  Uiso   1.00
O443   O     0.13800   0.73570   0.23607   0.00000  Uiso   1.00
O444   O     0.20437   0.92193   0.21805   0.00000  Uiso   1.00
Zn445  Zn    0.19244   0.80756   0.28278   0.00000  Uiso   1.00
Zn446  Zn    0.13459   0.79044   0.22258   0.00000  Uiso   1.00
Zn447  Zn    0.21166   0.86331   0.21188   0.00000  Uiso   1.00
Zn448  Zn    0.12798   0.87202   0.28277   0.00000  Uiso   1.00
C449   C     0.38582   0.82654   0.25874   0.00000  Uiso   1.00
C450   C     0.51863   0.78471   0.46166   0.00000  Uiso   1.00
C451   C     0.53685   0.76235   0.48196   0.00000  Uiso   1.00
C452   C     0.61438   0.84021   0.24123   0.00000  Uiso   1.00
C453   C     0.53318   0.77450   0.02232   0.00000  Uiso   1.00
C454   C     0.50667   0.80614   0.04264   0.00000  Uiso   1.00
C455   C     0.55678   0.75703   0.04221   0.00000  Uiso   1.00
C456   C     0.55404   0.76941   0.08173   0.00000  Uiso   1.00
C457   C     0.50914   0.82317   0.08089   0.00000  Uiso   1.00
C458   C     0.66032   0.84285   0.23767   0.00000  Uiso   1.00
C459   C     0.34046   0.82407   0.26214   0.00000  Uiso   1.00
C460   C     0.43381   0.88393   0.42112   0.00000  Uiso   1.00
C461   C     0.51423   0.98881   0.23813   0.00000  Uiso   1.00
C462   C     0.48492   0.67872   0.26208   0.00000  Uiso   1.00
C463   C     0.48928   0.72275   0.25888   0.00000  Uiso   1.00
C464   C     0.51019   0.94432   0.24135   0.00000  Uiso   1.00
C465   C     0.52119   0.81214   0.14403   0.00000  Uiso   1.00
C466   C     0.47871   0.85427   0.35624   0.00000  Uiso   1.00
C467   C     0.46663   0.85971   0.39961   0.00000  Uiso   1.00
C468   C     0.52981   0.80256   0.10138   0.00000  Uiso   1.00
C469   C     0.42047   0.88599   0.46205   0.00000  Uiso   1.00
C470   C     0.48647   0.83826   0.41961   0.00000  Uiso   1.00
C471   C     0.47242   0.83847   0.46089   0.00000  Uiso   1.00
C472   C     0.43914   0.86320   0.48234   0.00000  Uiso   1.00
C473   C     0.49143   0.81561   0.48131   0.00000  Uiso   1.00
C474   C     0.48095   0.82202   0.02292   0.00000  Uiso   1.00
C475   C     0.44316   0.84101   0.04353   0.00000  Uiso   1.00
C476   C     0.42423   0.86422   0.02351   0.00000  Uiso   1.00
H477   H     0.57801   0.73359   0.02742   0.00000  Uiso   1.00
H478   H     0.39344   0.89638   0.07081   0.00000  Uiso   1.00
H479   H     0.50437   0.87318   0.11929   0.00000  Uiso   1.00
H480   H     0.57539   0.76247   0.12622   0.00000  Uiso   1.00
H481   H     0.55460   0.70735   0.47784   0.00000  Uiso   1.00
H482   H     0.39137   0.83458   0.08752   0.00000  Uiso   1.00
H483   H     0.34997   0.86014   0.21503   0.00000  Uiso   1.00
H484   H     0.65147   0.80671   0.28505   0.00000  Uiso   1.00
H485   H     0.54132   0.66943   0.21609   0.00000  Uiso   1.00
H486   H     0.45743   0.99886   0.28418   0.00000  Uiso   1.00
H487   H     0.39489   0.90497   0.47765   0.00000  Uiso   1.00
H488   H     0.41800   0.90089   0.40631   0.00000  Uiso   1.00
H489   H     0.51342   0.82210   0.40228   0.00000  Uiso   1.00
H490   H     0.52367   0.77470   0.43068   0.00000  Uiso   1.00
O491   O     0.50000   0.83333   0.25000   0.00000  Uiso   1.00
O492   O     0.49027   0.79060   0.16625   0.00000  Uiso   1.00
O493   O     0.46020   0.87313   0.33749   0.00000  Uiso   1.00
O494   O     0.54421   0.84159   0.15877   0.00000  Uiso   1.00
O495   O     0.50532   0.82802   0.33749   0.00000  Uiso   1.00
O496   O     0.39132   0.88814   0.04354   0.00000  Uiso   1.00
O497   O     0.49386   0.86133   0.09620   0.00000  Uiso   1.00
O498   O     0.57630   0.74868   0.09947   0.00000  Uiso   1.00
O499   O     0.55940   0.72999   0.46070   0.00000  Uiso   1.00
O500   O     0.42262   0.83223   0.08175   0.00000  Uiso   1.00
O501   O     0.51182   0.74768   0.27821   0.00000  Uiso   1.00
O502   O     0.47914   0.92803   0.26767   0.00000  Uiso   1.00
O503   O     0.40785   0.79917   0.23607   0.00000  Uiso   1.00
O504   O     0.60119   0.85845   0.21805   0.00000  Uiso   1.00
O505   O     0.40323   0.85627   0.27820   0.00000  Uiso   1.00
O506   O     0.58773   0.81944   0.26767   0.00000  Uiso   1.00
O507   O     0.47133   0.73570   0.23607   0.00000  Uiso   1.00
O508   O     0.53771   0.92193   0.21805   0.00000  Uiso   1.00
Zn509  Zn    0.52577   0.80756   0.28278   0.00000  Uiso   1.00
Zn510  Zn    0.46792   0.79044   0.22258   0.00000  Uiso   1.00
Zn511  Zn    0.54500   0.86331   0.21188   0.00000  Uiso   1.00
Zn512  Zn    0.46131   0.87202   0.28277   0.00000  Uiso   1.00
C513   C     0.71915   0.82654   0.25874   0.00000  Uiso   1.00
C514   C     0.85196   0.78471   0.46166   0.00000  Uiso   1.00
C515   C     0.87019   0.76235   0.48196   0.00000  Uiso   1.00
C516   C     0.94771   0.84021   0.24123   0.00000  Uiso   1.00
C517   C     0.86651   0.77450   0.02232   0.00000  Uiso   1.00
C518   C     0.84000   0.80614   0.04264   0.00000  Uiso   1.00
C519   C     0.89011   0.75703   0.04221   0.00000  Uiso   1.00
C520   C     0.88737   0.76941   0.08173   0.00000  Uiso   1.00
C521   C     0.84248   0.82317   0.08089   0.00000  Uiso   1.00
C522   C     0.99365   0.84285   0.23767   0.00000  Uiso   1.00
C523   C     0.67379   0.82407   0.26214   0.00000  Uiso   1.00
C524   C     0.76714   0.88393   0.42112   0.00000  Uiso   1.00
C525   C     0.84756   0.98881   0.23813   0.00000  Uiso   1.00
C526   C     0.81825   0.67872   0.26208   0.00000  Uiso   1.00
C527   C     0.82261   0.72275   0.25888   0.00000  Uiso   1.00
C528   C     0.84352   0.94432   0.24135   0.00000  Uiso   1.00
C529   C     0.85452   0.81214   0.14403   0.00000  Uiso   1.00
C530   C     0.81204   0.85427   0.35624   0.00000  Uiso   1.00
C531   C     0.79996   0.85971   0.39961   0.00000  Uiso   1.00
C532   C     0.86314   0.80256   0.10138   0.00000  Uiso   1.00
C533   C     0.75380   0.88599   0.46205   0.00000  Uiso   1.00
C534   C     0.81980   0.83826   0.41961   0.00000  Uiso   1.00
C535   C     0.80576   0.83847   0.46089   0.00000  Uiso   1.00
C536   C     0.77248   0.86320   0.48234   0.00000  Uiso   1.00
C537   C     0.82476   0.81561   0.48131   0.00000  Uiso   1.00
C538   C     0.81428   0.82202   0.02292   0.00000  Uiso   1.00
C539   C     0.77649   0.84101   0.04353   0.00000  Uiso   1.00
C540   C     0.75756   0.86422   0.02351   0.00000  Uiso   1.00
H541   H     0.91134   0.73359   0.02742   0.00000  Uiso   1.00
H542   H     0.72677   0.89638   0.07081   0.00000  Uiso   1.00
H543   H     0.83771   0.87318   0.11929   0.00000  Uiso   1.00
H544   H     0.90872   0.76247   0.12622   0.00000  Uiso   1.00
H545   H     0.88794   0.70735   0.47784   0.00000  Uiso   1.00
H546   H     0.72470   0.83458   0.08752   0.00000  Uiso   1.00
H547   H     0.68330   0.86014   0.21503   0.00000  Uiso   1.00
H548   H     0.98481   0.80671   0.28505   0.00000  Uiso   1.00
H549   H     0.87465   0.66943   0.21609   0.00000  Uiso   1.00
H550   H     0.79077   0.99886   0.28418   0.00000  Uiso   1.00
H551   H     0.72822   0.90497   0.47765   0.00000  Uiso   1.00
H552   H     0.75134   0.90089   0.40631   0.00000  Uiso   1.00
H553   H     0.84675   0.82210   0.40228   0.00000  Uiso   1.00
H554   H     0.85700   0.77470   0.43068   0.00000  Uiso   1.00
O555   O     0.83333   0.83333   0.25000   0.00000  Uiso   1.00
O556   O     0.82360   0.79060   0.16625   0.00000  Uiso   1.00
O557   O     0.79354   0.87313   0.33749   0.00000  Uiso   1.00
O558   O     0.87755   0.84159   0.15877   0.00000  Uiso   1.00
O559   O     0.83865   0.82802   0.33749   0.00000  Uiso   1.00
O560   O     0.72465   0.88814   0.04354   0.00000  Uiso   1.00
O561   O     0.82719   0.86133   0.09620   0.00000  Uiso   1.00
O562   O     0.90963   0.74868   0.09947   0.00000  Uiso   1.00
O563   O     0.89273   0.72999   0.46070   0.00000  Uiso   1.00
O564   O     0.75595   0.83223   0.08175   0.00000  Uiso   1.00
O565   O     0.84515   0.74768   0.27821   0.00000  Uiso   1.00
O566   O     0.81247   0.92803   0.26767   0.00000  Uiso   1.00
O567   O     0.74119   0.79917   0.23607   0.00000  Uiso   1.00
O568   O     0.93452   0.85845   0.21805   0.00000  Uiso   1.00
O569   O     0.73656   0.85627   0.27820   0.00000  Uiso   1.00
O570   O     0.92106   0.81944   0.26767   0.00000  Uiso   1.00
O571   O     0.80467   0.73570   0.23607   0.00000  Uiso   1.00
O572   O     0.87104   0.92193   0.21805   0.00000  Uiso   1.00
Zn573  Zn    0.85910   0.80756   0.28278   0.00000  Uiso   1.00
Zn574  Zn    0.80125   0.79044   0.22258   0.00000  Uiso   1.00
Zn575  Zn    0.87833   0.86331   0.21188   0.00000  Uiso   1.00
Zn576  Zn    0.79465   0.87202   0.28277   0.00000  Uiso   1.00
C577   C     0.05249   0.15987   0.75874   0.00000  Uiso   1.00
C578   C     0.18530   0.11804   0.96166   0.00000  Uiso   1.00
C579   C     0.20352   0.09568   0.98196   0.00000  Uiso   1.00
C580   C     0.28104   0.17354   0.74123   0.00000  Uiso   1.00
C581   C     0.19984   0.10783   0.52232   0.00000  Uiso   1.00
C582   C     0.17334   0.13947   0.54264   0.00000  Uiso   1.00
C583   C     0.22345   0.09036   0.54221   0.00000  Uiso   1.00
C584   C     0.22071   0.10275   0.58173   0.00000  Uiso   1.00
C585   C     0.17581   0.15651   0.58089   0.00000  Uiso   1.00
C586   C     0.32699   0.17618   0.73767   0.00000  Uiso   1.00
C587   C     0.00712   0.15740   0.76214   0.00000  Uiso   1.00
C588   C     0.10047   0.21726   0.92112   0.00000  Uiso   1.00
C589   C     0.18090   0.32214   0.73813   0.00000  Uiso   1.00
C590   C     0.15158   0.01206   0.76208   0.00000  Uiso   1.00
C591   C     0.15594   0.05609   0.75888   0.00000  Uiso   1.00
C592   C     0.17686   0.27766   0.74135   0.00000  Uiso   1.00
C593   C     0.18785   0.14548   0.64403   0.00000  Uiso   1.00
C594   C     0.14538   0.18761   0.85624   0.00000  Uiso   1.00
C595   C     0.13330   0.19304   0.89961   0.00000  Uiso   1.00
C596   C     0.19647   0.13589   0.60138   0.00000  Uiso   1.00
C597   C     0.08714   0.21932   0.96205   0.00000  Uiso   1.00
C598   C     0.15313   0.17160   0.91961   0.00000  Uiso   1.00
C599   C     0.13909   0.17180   0.96089   0.00000  Uiso   1.00
C600   C     0.10581   0.19654   0.98234   0.00000  Uiso   1.00
C601   C     0.15810   0.14895   0.98131   0.00000  Uiso   1.00
C602   C     0.14762   0.15535   0.52292   0.00000  Uiso   1.00
C603   C     0.10982   0.17434   0.54353   0.00000  Uiso   1.00
C604   C     0.09089   0.19755   0.52351   0.00000  Uiso   1.00
H605   H     0.24468   0.06693   0.52742   0.00000  Uiso   1.00
H606   H     0.06011   0.22972   0.57081   0.00000  Uiso   1.00
H607   H     0.17104   0.20652   0.61929   0.00000  Uiso   1.00
H608   H     0.24206   0.09580   0.62622   0.00000  Uiso   1.00
H609   H     0.22127   0.04069   0.97784   0.00000  Uiso   1.00
H610   H     0.05804   0.16791   0.58752   0.00000  Uiso   1.00
H611   H     0.01664   0.19347   0.71503   0.00000  Uiso   1.00
H612   H     0.31814   0.14005   0.78505   0.00000  Uiso   1.00
H613   H     0.20799   0.00276   0.71609   0.00000  Uiso   1.00
H614   H     0.12410   0.33220   0.78418   0.00000  Uiso   1.00
H615   H     0.06155   0.23831   0.97765   0.00000  Uiso   1.00
H616   H     0.08467   0.23423   0.90631   0.00000  Uiso   1.00
H617   H     0.18008   0.15544   0.90228   0.00000  Uiso   1.00
H618   H     0.19034   0.10804   0.93068   0.00000  Uiso   1.00
O619   O     0.16667   0.16667   0.75000   0.00000  Uiso   1.00
O620   O     0.15693   0.12393   0.66625   0.00000  Uiso   1.00
O621   O     0.12687   0.20646   0.83749   0.00000  Uiso   1.00
O622   O     0.21088   0.17493   0.65877   0.00000  Uiso   1.00
O623   O     0.17198   0.16135   0.83749   0.00000  Uiso   1.00
O624   O     0.05799   0.22147   0.54354   0.00000  Uiso   1.00
O625   O     0.16052   0.19466   0.59620   0.00000  Uiso   1.00
O626   O     0.24297   0.08202   0.59947   0.00000  Uiso   1.00
O627   O     0.22606   0.06333   0.96070   0.00000  Uiso   1.00
O628   O     0.08929   0.16556   0.58175   0.00000  Uiso   1.00
O629   O     0.17849   0.08101   0.77821   0.00000  Uiso   1.00
O630   O     0.14581   0.26136   0.76767   0.00000  Uiso   1.00
O631   O     0.07452   0.13251   0.73607   0.00000  Uiso   1.00
O632   O     0.26785   0.19179   0.71805   0.00000  Uiso   1.00
O633   O     0.06990   0.18960   0.77820   0.00000  Uiso   1.00
O634   O     0.25440   0.15277   0.76767   0.00000  Uiso   1.00
O635   O     0.13800   0.06903   0.73607   0.00000  Uiso   1.00
O636   O     0.20437   0.25527   0.71805   0.00000  Uiso   1.00
Zn637  Zn    0.19244   0.14090   0.78278   0.00000  Uiso   1.00
Zn638  Zn    0.13459   0.12378   0.72258   0.00000  Uiso   1.00
Zn639  Zn    0.21166   0.19664   0.71188   0.00000  Uiso   1.00
Zn640  Zn    0.12798   0.20535   0.78277   0.00000  Uiso   1.00
C641   C     0.38582   0.15987   0.75874   0.00000  Uiso   1.00
C642   C     0.51863   0.11804   0.96166   0.00000  Uiso   1.00
C643   C     0.53685   0.09568   0.98196   0.00000  Uiso   1.00
C644   C     0.61438   0.17354   0.74123   0.00000  Uiso   1.00
C645   C     0.53318   0.10783   0.52232   0.00000  Uiso   1.00
C646   C     0.50667   0.13947   0.54264   0.00000  Uiso   1.00
C647   C     0.55678   0.09036   0.54221   0.00000  Uiso   1.00
C648   C     0.55404   0.10275   0.58173   0.00000  Uiso   1.00
C649   C     0.50914   0.15651   0.58089   0.00000  Uiso   1.00
C650   C     0.66032   0.17618   0.73767   0.00000  Uiso   1.00
C651   C     0.34046   0.15740   0.76214   0.00000  Uiso   1.00
C652   C     0.43381   0.21726   0.92112   0.00000  Uiso   1.00
C653   C     0.51423   0.32214   0.73813   0.00000  Uiso   1.00
C654   C     0.48492   0.01206   0.76208   0.00000  Uiso   1.00
C655   C     0.48928   0.05609   0.75888   0.00000  Uiso   1.00
C656   C     0.51019   0.27766   0.74135   0.00000  Uiso   1.00
C657   C     0.52119   0.14548   0.64403   0.00000  Uiso   1.00
C658   C     0.47871   0.18761   0.85624   0.00000  Uiso   1.00
C659   C     0.46663   0.19304   0.89961   0.00000  Uiso   1.00
C660   C     0.52981   0.13589   0.60138   0.00000  Uiso   1.00
C661   C     0.42047   0.21932   0.96205   0.00000  Uiso   1.00
C662   C     0.48647   0.17160   0.91961   0.00000  Uiso   1.00
C663   C     0.47242   0.17180   0.96089   0.00000  Uiso   1.00
C664   C     0.43914   0.19654   0.98234   0.00000  Uiso   1.00
C665   C     0.49143   0.14895   0.98131   0.00000  Uiso   1.00
C666   C     0.48095   0.15535   0.52292   0.00000  Uiso   1.00
C667   C     0.44316   0.17434   0.54353   0.00000  Uiso   1.00
C668   C     0.42423   0.19755   0.52351   0.00000  Uiso   1.00
H669   H     0.57801   0.06693   0.52742   0.00000  Uiso   1.00
H670   H     0.39344   0.22972   0.57081   0.00000  Uiso   1.00
H671   H     0.50437   0.20652   0.61929   0.00000  Uiso   1.00
H672   H     0.57539   0.09580   0.62622   0.00000  Uiso   1.00
H673   H     0.55460   0.04069   0.97784   0.00000  Uiso   1.00
H674   H     0.39137   0.16791   0.58752   0.00000  Uiso   1.00
H675   H     0.34997   0.19347   0.71503   0.00000  Uiso   1.00
H676   H     0.65147   0.14005   0.78505   0.00000  Uiso   1.00
H677   H     0.54132   0.00276   0.71609   0.00000  Uiso   1.00
H678   H     0.45743   0.33220   0.78418   0.00000  Uiso   1.00
H679   H     0.39489   0.23831   0.97765   0.00000  Uiso   1.00
H680   H     0.41800   0.23423   0.90631   0.00000  Uiso   1.00
H681   H     0.51342   0.15544   0.90228   0.00000  Uiso   1.00
H682   H     0.52367   0.10804   0.93068   0.00000  Uiso   1.00
O683   O     0.50000   0.16667   0.75000   0.00000  Uiso   1.00
O684   O     0.49027   0.12393   0.66625   0.00000  Uiso   1.00
O685   O     0.46020   0.20646   0.83749   0.00000  Uiso   1.00
O686   O     0.54421   0.17493   0.65877   0.00000  Uiso   1.00
O687   O     0.50532   0.16135   0.83749   0.00000  Uiso   1.00
O688   O     0.39132   0.22147   0.54354   0.00000  Uiso   1.00
O689   O     0.49386   0.19466   0.59620   0.00000  Uiso   1.00
O690   O     0.57630   0.08202   0.59947   0.00000  Uiso   1.00
O691   O     0.55940   0.06333   0.96070   0.00000  Uiso   1.00
O692   O     0.42262   0.16556   0.58175   0.00000  Uiso   1.00
O693   O     0.51182   0.08101   0.77821   0.00000  Uiso   1.00
O694   O     0.47914   0.26136   0.76767   0.00000  Uiso   1.00
O695   O     0.40785   0.13251   0.73607   0.00000  Uiso   1.00
O696   O     0.60119   0.19179   0.71805   0.00000  Uiso   1.00
O697   O     0.40323   0.18960   0.77820   0.00000  Uiso   1.00
O698   O     0.58773   0.15277   0.76767   0.00000  Uiso   1.00
O699   O     0.47133   0.06903   0.73607   0.00000  Uiso   1.00
O700   O     0.53771   0.25527   0.71805   0.00000  Uiso   1.00
Zn701  Zn    0.52577   0.14090   0.78278   0.00000  Uiso   1.00
Zn702  Zn    0.46792   0.12378   0.72258   0.00000  Uiso   1.00
Zn703  Zn    0.54500   0.19664   0.71188   0.00000  Uiso   1.00
Zn704  Zn    0.46131   0.20535   0.78277   0.00000  Uiso   1.00
C705   C     0.71915   0.15987   0.75874   0.00000  Uiso   1.00
C706   C     0.85196   0.11804   0.96166   0.00000  Uiso   1.00
C707   C     0.87019   0.09568   0.98196   0.00000  Uiso   1.00
C708   C     0.94771   0.17354   0.74123   0.00000  Uiso   1.00
C709   C     0.86651   0.10783   0.52232   0.00000  Uiso   1.00
C710   C     0.84000   0.13947   0.54264   0.00000  Uiso   1.00
C711   C     0.89011   0.09036   0.54221   0.00000  Uiso   1.00
C712   C     0.88737   0.10275   0.58173   0.00000  Uiso   1.00
C713   C     0.84248   0.15651   0.58089   0.00000  Uiso   1.00
C714   C     0.99365   0.17618   0.73767   0.00000  Uiso   1.00
C715   C     0.67379   0.15740   0.76214   0.00000  Uiso   1.00
C716   C     0.76714   0.21726   0.92112   0.00000  Uiso   1.00
C717   C     0.84756   0.32214   0.73813   0.00000  Uiso   1.00
C718   C     0.81825   0.01206   0.76208   0.00000  Uiso   1.00
C719   C     0.82261   0.05609   0.75888   0.00000  Uiso   1.00
C720   C     0.84352   0.27766   0.74135   0.00000  Uiso   1.00
C721   C     0.85452   0.14548   0.64403   0.00000  Uiso   1.00
C722   C     0.81204   0.18761   0.85624   0.00000  Uiso   1.00
C723   C     0.79996   0.19304   0.89961   0.00000  Uiso   1.00
C724   C     0.86314   0.13589   0.60138   0.00000  Uiso   1.00
C725   C     0.75380   0.21932   0.96205   0.00000  Uiso   1.00
C726   C     0.81980   0.17160   0.91961   0.00000  Uiso   1.00
C727   C     0.80576   0.17180   0.96089   0.00000  Uiso   1.00
C728   C     0.77248   0.19654   0.98234   0.00000  Uiso   1.00
C729   C     0.82476   0.14895   0.98131   0.00000  Uiso   1.00
C730   C     0.81428   0.15535   0.52292   0.00000  Uiso   1.00
C731   C     0.77649   0.17434   0.54353   0.00000  Uiso   1.00
C732   C     0.75756   0.19755   0.52351   0.00000  Uiso   1.00
H733   H     0.91134   0.06693   0.52742   0.00000  Uiso   1.00
H734   H     0.72677   0.22972   0.57081   0.00000  Uiso   1.00
H735   H     0.83771   0.20652   0.61929   0.00000  Uiso   1.00
H736   H     0.90872   0.09580   0.62622   0.00000  Uiso   1.00
H737   H     0.88794   0.04069   0.97784   0.00000  Uiso   1.00
H738   H     0.72470   0.16791   0.58752   0.00000  Uiso   1.00
H739   H     0.68330   0.19347   0.71503   0.00000  Uiso   1.00
H740   H     0.98481   0.14005   0.78505   0.00000  Uiso   1.00
H741   H     0.87465   0.00276   0.71609   0.00000  Uiso   1.00
H742   H     0.79077   0.33220   0.78418   0.00000  Uiso   1.00
H743   H     0.72822   0.23831   0.97765   0.00000  Uiso   1.00
H744   H     0.75134   0.23423   0.90631   0.00000  Uiso   1.00
H745   H     0.84675   0.15544   0.90228   0.00000  Uiso   1.00
H746   H     0.85700   0.10804   0.93068   0.00000  Uiso   1.00
O747   O     0.83333   0.16667   0.75000   0.00000  Uiso   1.00
O748   O     0.82360   0.12393   0.66625   0.00000  Uiso   1.00
O749   O     0.79354   0.20646   0.83749   0.00000  Uiso   1.00
O750   O     0.87755   0.17493   0.65877   0.00000  Uiso   1.00
O751   O     0.83865   0.16135   0.83749   0.00000  Uiso   1.00
O752   O     0.72465   0.22147   0.54354   0.00000  Uiso   1.00
O753   O     0.82719   0.19466   0.59620   0.00000  Uiso   1.00
O754   O     0.90963   0.08202   0.59947   0.00000  Uiso   1.00
O755   O     0.89273   0.06333   0.96070   0.00000  Uiso   1.00
O756   O     0.75595   0.16556   0.58175   0.00000  Uiso   1.00
O757   O     0.84515   0.08101   0.77821   0.00000  Uiso   1.00
O758   O     0.81247   0.26136   0.76767   0.00000  Uiso   1.00
O759   O     0.74119   0.13251   0.73607   0.00000  Uiso   1.00
O760   O     0.93452   0.19179   0.71805   0.00000  Uiso   1.00
O761   O     0.73656   0.18960   0.77820   0.00000  Uiso   1.00
O762   O     0.92106   0.15277   0.76767   0.00000  Uiso   1.00
O763   O     0.80467   0.06903   0.73607   0.00000  Uiso   1.00
O764   O     0.87104   0.25527   0.71805   0.00000  Uiso   1.00
Zn765  Zn    0.85910   0.14090   0.78278   0.00000  Uiso   1.00
Zn766  Zn    0.80125   0.12378   0.72258   0.00000  Uiso   1.00
Zn767  Zn    0.87833   0.19664   0.71188   0.00000  Uiso   1.00
Zn768  Zn    0.79465   0.20535   0.78277   0.00000  Uiso   1.00
C769   C     0.05249   0.49320   0.75874   0.00000  Uiso   1.00
C770   C     0.18530   0.45138   0.96166   0.00000  Uiso   1.00
C771   C     0.20352   0.42901   0.98196   0.00000  Uiso   1.00
C772   C     0.28104   0.50688   0.74123   0.00000  Uiso   1.00
C773   C     0.19984   0.44116   0.52232   0.00000  Uiso   1.00
C774   C     0.17334   0.47281   0.54264   0.00000  Uiso   1.00
C775   C     0.22345   0.42369   0.54221   0.00000  Uiso   1.00
C776   C     0.22071   0.43608   0.58173   0.00000  Uiso   1.00
C777   C     0.17581   0.48984   0.58089   0.00000  Uiso   1.00
C778   C     0.32699   0.50952   0.73767   0.00000  Uiso   1.00
C779   C     0.00712   0.49073   0.76214   0.00000  Uiso   1.00
C780   C     0.10047   0.55059   0.92112   0.00000  Uiso   1.00
C781   C     0.18090   0.65548   0.73813   0.00000  Uiso   1.00
C782   C     0.15158   0.34539   0.76208   0.00000  Uiso   1.00
C783   C     0.15594   0.38942   0.75888   0.00000  Uiso   1.00
C784   C     0.17686   0.61099   0.74135   0.00000  Uiso   1.00
C785   C     0.18785   0.47881   0.64403   0.00000  Uiso   1.00
C786   C     0.14538   0.52094   0.85624   0.00000  Uiso   1.00
C787   C     0.13330   0.52638   0.89961   0.00000  Uiso   1.00
C788   C     0.19647   0.46922   0.60138   0.00000  Uiso   1.00
C789   C     0.08714   0.55265   0.96205   0.00000  Uiso   1.00
C790   C     0.15313   0.50493   0.91961   0.00000  Uiso   1.00
C791   C     0.13909   0.50513   0.96089   0.00000  Uiso   1.00
C792   C     0.10581   0.52987   0.98234   0.00000  Uiso   1.00
C793   C     0.15810   0.48228   0.98131   0.00000  Uiso   1.00
C794   C     0.14762   0.48869   0.52292   0.00000  Uiso   1.00
C795   C     0.10982   0.50768   0.54353   0.00000  Uiso   1.00
C796   C     0.09089   0.53088   0.52351   0.00000  Uiso   1.00
H797   H     0.24468   0.40026   0.52742   0.00000  Uiso   1.00
H798   H     0.06011   0.56305   0.57081   0.00000  Uiso   1.00
H799   H     0.17104   0.53985   0.61929   0.00000  Uiso   1.00
H800   H     0.24206   0.42913   0.62622   0.00000  Uiso   1.00
H801   H     0.22127   0.37402   0.97784   0.00000  Uiso   1.00
H802   H     0.05804   0.50125   0.58752   0.00000  Uiso   1.00
H803   H     0.01664   0.52681   0.71503   0.00000  Uiso   1.00
H804   H     0.31814   0.47338   0.78505   0.00000  Uiso   1.00
H805   H     0.20799   0.33610   0.71609   0.00000  Uiso   1.00
H806   H     0.12410   0.66553   0.78418   0.00000  Uiso   1.00
H807   H     0.06155   0.57164   0.97765   0.00000  Uiso   1.00
H808   H     0.08467   0.56756   0.90631   0.00000  Uiso   1.00
H809   H     0.18008   0.48877   0.90228   0.00000  Uiso   1.00
H810   H     0.19034   0.44137   0.93068   0.00000  Uiso   1.00
O811   O     0.16667   0.50000   0.75000   0.00000  Uiso   1.00
O812   O     0.15693   0.45726   0.66625   0.00000  Uiso   1.00
O813   O     0.12687   0.53979   0.83749   0.00000  Uiso   1.00
O814   O     0.21088   0.50826   0.65877   0.00000  Uiso   1.00
O815   O     0.17198   0.49468   0.83749   0.00000  Uiso   1.00
O816   O     0.05799   0.55480   0.54354   0.00000  Uiso   1.00
O817   O     0.16052   0.52799   0.59620   0.00000  Uiso   1.00
O818   O     0.24297   0.41535   0.59947   0.00000  Uiso   1.00
O819   O     0.22606   0.39666   0.96070   0.00000  Uiso   1.00
O820   O     0.08929   0.49890   0.58175   0.00000  Uiso   1.00
O821   O     0.17849   0.41434   0.77821   0.00000  Uiso   1.00
O822   O     0.14581   0.59469   0.76767   0.00000  Uiso   1.00
O823   O     0.07452   0.46584   0.73607   0.00000  Uiso   1.00
O824   O     0.26785   0.52512   0.71805   0.00000  Uiso   1.00
O825   O     0.06990   0.52293   0.77820   0.00000  Uiso   1.00
O826   O     0.25440   0.48610   0.76767   0.00000  Uiso   1.00
O827   O     0.13800   0.40236   0.73607   0.00000  Uiso   1.00
O828   O     0.20437   0.58860   0.71805   0.00000  Uiso   1.00
Zn829  Zn    0.19244   0.47423   0.78278   0.00000  Uiso   1.00
Zn830  Zn    0.13459   0.45711   0.72258   0.00000  Uiso   1.00
Zn831  Zn    0.21166   0.52997   0.71188   0.00000  Uiso   1.00
Zn832  Zn    0.12798   0.53868   0.78277   0.00000  Uiso   1.00
C833   C     0.38582   0.49320   0.75874   0.00000  Uiso   1.00
C834   C     0.51863   0.45138   0.96166   0.00000  Uiso   1.00
C835   C     0.53685   0.42901   0.98196   0.00000  Uiso   1.00
C836   C     0.61438   0.50688   0.74123   0.00000  Uiso   1.00
C837   C     0.53318   0.44116   0.52232   0.00000  Uiso   1.00
C838   C     0.50667   0.47281   0.54264   0.00000  Uiso   1.00
C839   C     0.55678   0.42369   0.54221   0.00000  Uiso   1.00
C840   C     0.55404   0.43608   0.58173   0.00000  Uiso   1.00
C841   C     0.50914   0.48984   0.58089   0.00000  Uiso   1.00
C842   C     0.66032   0.50952   0.73767   0.00000  Uiso   1.00
C843   C     0.34046   0.49073   0.76214   0.00000  Uiso   1.00
C844   C     0.43381   0.55059   0.92112   0.00000  Uiso   1.00
C845   C     0.51423   0.65548   0.73813   0.00000  Uiso   1.00
C846   C     0.48492   0.34539   0.76208   0.00000  Uiso   1.00
C847   C     0.48928   0.38942   0.75888   0.00000  Uiso   1.00
C848   C     0.51019   0.61099   0.74135   0.00000  Uiso   1.00
C849   C     0.52119   0.47881   0.64403   0.00000  Uiso   1.00
C850   C     0.47871   0.52094   0.85624   0.00000  Uiso   1.00
C851   C     0.46663   0.52638   0.89961   0.00000  Uiso   1.00
C852   C     0.52981   0.46922   0.60138   0.00000  Uiso   1.00
C853   C     0.42047   0.55265   0.96205   0.00000  Uiso   1.00
C854   C     0.48647   0.50493   0.91961   0.00000  Uiso   1.00
C855   C     0.47242   0.50513   0.96089   0.00000  Uiso   1.00
C856   C     0.43914   0.52987   0.98234   0.00000  Uiso   1.00
C857   C     0.49143   0.48228   0.98131   0.00000  Uiso   1.00
C858   C     0.48095   0.48869   0.52292   0.00000  Uiso   1.00
C859   C     0.44316   0.50768   0.54353   0.00000  Uiso   1.00
C860   C     0.42423   0.53088   0.52351   0.00000  Uiso   1.00
H861   H     0.57801   0.40026   0.52742   0.00000  Uiso   1.00
H862   H     0.39344   0.56305   0.57081   0.00000  Uiso   1.00
H863   H     0.50437   0.53985   0.61929   0.00000  Uiso   1.00
H864   H     0.57539   0.42913   0.62622   0.00000  Uiso   1.00
H865   H     0.55460   0.37402   0.97784   0.00000  Uiso   1.00
H866   H     0.39137   0.50125   0.58752   0.00000  Uiso   1.00
H867   H     0.34997   0.52681   0.71503   0.00000  Uiso   1.00
H868   H     0.65147   0.47338   0.78505   0.00000  Uiso   1.00
H869   H     0.54132   0.33610   0.71609   0.00000  Uiso   1.00
H870   H     0.45743   0.66553   0.78418   0.00000  Uiso   1.00
H871   H     0.39489   0.57164   0.97765   0.00000  Uiso   1.00
H872   H     0.41800   0.56756   0.90631   0.00000  Uiso   1.00
H873   H     0.51342   0.48877   0.90228   0.00000  Uiso   1.00
H874   H     0.52367   0.44137   0.93068   0.00000  Uiso   1.00
O875   O     0.50000   0.50000   0.75000   0.00000  Uiso   1.00
O876   O     0.49027   0.45726   0.66625   0.00000  Uiso   1.00
O877   O     0.46020   0.53979   0.83749   0.00000  Uiso   1.00
O878   O     0.54421   0.50826   0.65877   0.00000  Uiso   1.00
O879   O     0.50532   0.49468   0.83749   0.00000  Uiso   1.00
O880   O     0.39132   0.55480   0.54354   0.00000  Uiso   1.00
O881   O     0.49386   0.52799   0.59620   0.00000  Uiso   1.00
O882   O     0.57630   0.41535   0.59947   0.00000  Uiso   1.00
O883   O     0.55940   0.39666   0.96070   0.00000  Uiso   1.00
O884   O     0.42262   0.49890   0.58175   0.00000  Uiso   1.00
O885   O     0.51182   0.41434   0.77821   0.00000  Uiso   1.00
O886   O     0.47914   0.59469   0.76767   0.00000  Uiso   1.00
O887   O     0.40785   0.46584   0.73607   0.00000  Uiso   1.00
O888   O     0.60119   0.52512   0.71805   0.00000  Uiso   1.00
O889   O     0.40323   0.52293   0.77820   0.00000  Uiso   1.00
O890   O     0.58773   0.48610   0.76767   0.00000  Uiso   1.00
O891   O     0.47133   0.40236   0.73607   0.00000  Uiso   1.00
O892   O     0.53771   0.58860   0.71805   0.00000  Uiso   1.00
Zn893  Zn    0.52577   0.47423   0.78278   0.00000  Uiso   1.00
Zn894  Zn    0.46792   0.45711   0.72258   0.00000  Uiso   1.00
Zn895  Zn    0.54500   0.52997   0.71188   0.00000  Uiso   1.00
Zn896  Zn    0.46131   0.53868   0.78277   0.00000  Uiso   1.00
C897   C     0.71915   0.49320   0.75874   0.00000  Uiso   1.00
C898   C     0.85196   0.45138   0.96166   0.00000  Uiso   1.00
C899   C     0.87019   0.42901   0.98196   0.00000  Uiso   1.00
C900   C     0.94771   0.50688   0.74123   0.00000  Uiso   1.00
C901   C     0.86651   0.44116   0.52232   0.00000  Uiso   1.00
C902   C     0.84000   0.47281   0.54264   0.00000  Uiso   1.00
C903   C     0.89011   0.42369   0.54221   0.00000  Uiso   1.00
C904   C     0.88737   0.43608   0.58173   0.00000  Uiso   1.00
C905   C     0.84248   0.48984   0.58089   0.00000  Uiso   1.00
C906   C     0.99365   0.50952   0.73767   0.00000  Uiso   1.00
C907   C     0.67379   0.49073   0.76214   0.00000  Uiso   1.00
C908   C     0.76714   0.55059   0.92112   0.00000  Uiso   1.00
C909   C     0.84756   0.65548   0.73813   0.00000  Uiso   1.00
C910   C     0.81825   0.34539   0.76208   0.00000  Uiso   1.00
C911   C     0.82261   0.38942   0.75888   0.00000  Uiso   1.00
C912   C     0.84352   0.61099   0.74135   0.00000  Uiso   1.00
C913   C     0.85452   0.47881   0.64403   0.00000  Uiso   1.00
C914   C     0.81204   0.52094   0.85624   0.00000  Uiso   1.00
C915   C     0.79996   0.52638   0.89961   0.00000  Uiso   1.00
C916   C     0.86314   0.46922   0.60138   0.00000  Uiso   1.00
C917   C     0.75380   0.55265   0.96205   0.00000  Uiso   1.00
C918   C     0.81980   0.50493   0.91961   0.00000  Uiso   1.00
C919   C     0.80576   0.50513   0.96089   0.00000  Uiso   1.00
C920   C     0.77248   0.52987   0.98234   0.00000  Uiso   1.00
C921   C     0.82476   0.48228   0.98131   0.00000  Uiso   1.00
C922   C     0.81428   0.48869   0.52292   0.00000  Uiso   1.00
C923   C     0.77649   0.50768   0.54353   0.00000  Uiso   1.00
C924   C     0.75756   0.53088   0.52351   0.00000  Uiso   1.00
H925   H     0.91134   0.40026   0.52742   0.00000  Uiso   1.00
H926   H     0.72677   0.56305   0.57081   0.00000  Uiso   1.00
H927   H     0.83771   0.53985   0.61929   0.00000  Uiso   1.00
H928   H     0.90872   0.42913   0.62622   0.00000  Uiso   1.00
H929   H     0.88794   0.37402   0.97784   0.00000  Uiso   1.00
H930   H     0.72470   0.50125   0.58752   0.00000  Uiso   1.00
H931   H     0.68330   0.52681   0.71503   0.00000  Uiso   1.00
H932   H     0.98481   0.47338   0.78505   0.00000  Uiso   1.00
H933   H     0.87465   0.33610   0.71609   0.00000  Uiso   1.00
H934   H     0.79077   0.66553   0.78418   0.00000  Uiso   1.00
H935   H     0.72822   0.57164   0.97765   0.00000  Uiso   1.00
H936   H     0.75134   0.56756   0.90631   0.00000  Uiso   1.00
H937   H     0.84675   0.48877   0.90228   0.00000  Uiso   1.00
H938   H     0.85700   0.44137   0.93068   0.00000  Uiso   1.00
O939   O     0.83333   0.50000   0.75000   0.00000  Uiso   1.00
O940   O     0.82360   0.45726   0.66625   0.00000  Uiso   1.00
O941   O     0.79354   0.53979   0.83749   0.00000  Uiso   1.00
O942   O     0.87755   0.50826   0.65877   0.00000  Uiso   1.00
O943   O     0.83865   0.49468   0.83749   0.00000  Uiso   1.00
O944   O     0.72465   0.55480   0.54354   0.00000  Uiso   1.00
O945   O     0.82719   0.52799   0.59620   0.00000  Uiso   1.00
O946   O     0.90963   0.41535   0.59947   0.00000  Uiso   1.00
O947   O     0.89273   0.39666   0.96070   0.00000  Uiso   1.00
O948   O     0.75595   0.49890   0.58175   0.00000  Uiso   1.00
O949   O     0.84515   0.41434   0.77821   0.00000  Uiso   1.00
O950   O     0.81247   0.59469   0.76767   0.00000  Uiso   1.00
O951   O     0.74119   0.46584   0.73607   0.00000  Uiso   1.00
O952   O     0.93452   0.52512   0.71805   0.00000  Uiso   1.00
O953   O     0.73656   0.52293   0.77820   0.00000  Uiso   1.00
O954   O     0.92106   0.48610   0.76767   0.00000  Uiso   1.00
O955   O     0.80467   0.40236   0.73607   0.00000  Uiso   1.00
O956   O     0.87104   0.58860   0.71805   0.00000  Uiso   1.00
Zn957  Zn    0.85910   0.47423   0.78278   0.00000  Uiso   1.00
Zn958  Zn    0.80125   0.45711   0.72258   0.00000  Uiso   1.00
Zn959  Zn    0.87833   0.52997   0.71188   0.00000  Uiso   1.00
Zn960  Zn    0.79465   0.53868   0.78277   0.00000  Uiso   1.00
C961   C     0.05249   0.82654   0.75874   0.00000  Uiso   1.00
C962   C     0.18530   0.78471   0.96166   0.00000  Uiso   1.00
C963   C     0.20352   0.76235   0.98196   0.00000  Uiso   1.00
C964   C     0.28104   0.84021   0.74123   0.00000  Uiso   1.00
C965   C     0.19984   0.77450   0.52232   0.00000  Uiso   1.00
C966   C     0.17334   0.80614   0.54264   0.00000  Uiso   1.00
C967   C     0.22345   0.75703   0.54221   0.00000  Uiso   1.00
C968   C     0.22071   0.76941   0.58173   0.00000  Uiso   1.00
C969   C     0.17581   0.82317   0.58089   0.00000  Uiso   1.00
C970   C     0.32699   0.84285   0.73767   0.00000  Uiso   1.00
C971   C     0.00712   0.82407   0.76214   0.00000  Uiso   1.00
C972   C     0.10047   0.88393   0.92112   0.00000  Uiso   1.00
C973   C     0.18090   0.98881   0.73813   0.00000  Uiso   1.00
C974   C     0.15158   0.67872   0.76208   0.00000  Uiso   1.00
C975   C     0.15594   0.72275   0.75888   0.00000  Uiso   1.00
C976   C     0.17686   0.94432   0.74135   0.00000  Uiso   1.00
C977   C     0.18785   0.81214   0.64403   0.00000  Uiso   1.00
C978   C     0.14538   0.85427   0.85624   0.00000  Uiso   1.00
C979   C     0.13330   0.85971   0.89961   0.00000  Uiso   1.00
C980   C     0.19647   0.80256   0.60138   0.00000  Uiso   1.00
C981   C     0.08714   0.88599   0.96205   0.00000  Uiso   1.00
C982   C     0.15313   0.83826   0.91961   0.00000  Uiso   1.00
C983   C     0.13909   0.83847   0.96089   0.00000  Uiso   1.00
C984   C     0.10581   0.86320   0.98234   0.00000  Uiso   1.00
C985   C     0.15810   0.81561   0.98131   0.00000  Uiso   1.00
C986   C     0.14762   0.82202   0.52292   0.00000  Uiso   1.00
C987   C     0.10982   0.84101   0.54353   0.00000  Uiso   1.00
C988   C     0.09089   0.86422   0.52351   0.00000  Uiso   1.00
H989   H     0.24468   0.73359   0.52742   0.00000  Uiso   1.00
H990   H     0.06011   0.89638   0.57081   0.00000  Uiso   1.00
H991   H     0.17104   0.87318   0.61929   0.00000  Uiso   1.00
H992   H     0.24206   0.76247   0.62622   0.00000  Uiso   1.00
H993   H     0.22127   0.70735   0.97784   0.00000  Uiso   1.00
H994   H     0.05804   0.83458   0.58752   0.00000  Uiso   1.00
H995   H     0.01664   0.86014   0.71503   0.00000  Uiso   1.00
H996   H     0.31814   0.80671   0.78505   0.00000  Uiso   1.00
H997   H     0.20799   0.66943   0.71609   0.00000  Uiso   1.00
H998   H     0.12410   0.99886   0.78418   0.00000  Uiso   1.00
H999   H     0.06155   0.90497   0.97765   0.00000  Uiso   1.00
H1000  H     0.08467   0.90089   0.90631   0.00000  Uiso   1.00
H1001  H     0.18008   0.82210   0.90228   0.00000  Uiso   1.00
H1002  H     0.19034   0.77470   0.93068   0.00000  Uiso   1.00
O1003  O     0.16667   0.83333   0.75000   0.00000  Uiso   1.00
O1004  O     0.15693   0.79060   0.66625   0.00000  Uiso   1.00
O1005  O     0.12687   0.87313   0.83749   0.00000  Uiso   1.00
O1006  O     0.21088   0.84159   0.65877   0.00000  Uiso   1.00
O1007  O     0.17198   0.82802   0.83749   0.00000  Uiso   1.00
O1008  O     0.05799   0.88814   0.54354   0.00000  Uiso   1.00
O1009  O     0.16052   0.86133   0.59620   0.00000  Uiso   1.00
O1010  O     0.24297   0.74868   0.59947   0.00000  Uiso   1.00
O1011  O     0.22606   0.72999   0.96070   0.00000  Uiso   1.00
O1012  O     0.08929   0.83223   0.58175   0.00000  Uiso   1.00
O1013  O     0.17849   0.74768   0.77821   0.00000  Uiso   1.00
O1014  O     0.14581   0.92803   0.76767   0.00000  Uiso   1.00
O1015  O     0.07452   0.79917   0.73607   0.00000  Uiso   1.00
O1016  O     0.26785   0.85845   0.71805   0.00000  Uiso   1.00
O1017  O     0.06990   0.85627   0.77820   0.00000  Uiso   1.00
O1018  O     0.25440   0.81944   0.76767   0.00000  Uiso   1.00
O1019  O     0.13800   0.73570   0.73607   0.00000  Uiso   1.00
O1020  O     0.20437   0.92193   0.71805   0.00000  Uiso   1.00
Zn1021 Zn    0.19244   0.80756   0.78278   0.00000  Uiso   1.00
Zn1022 Zn    0.13459   0.79044   0.72258   0.00000  Uiso   1.00
Zn1023 Zn    0.21166   0.86331   0.71188   0.00000  Uiso   1.00
Zn1024 Zn    0.12798   0.87202   0.78277   0.00000  Uiso   1.00
C1025  C     0.38582   0.82654   0.75874   0.00000  Uiso   1.00
C1026  C     0.51863   0.78471   0.96166   0.00000  Uiso   1.00
C1027  C     0.53685   0.76235   0.98196   0.00000  Uiso   1.00
C1028  C     0.61438   0.84021   0.74123   0.00000  Uiso   1.00
C1029  C     0.53318   0.77450   0.52232   0.00000  Uiso   1.00
C1030  C     0.50667   0.80614   0.54264   0.00000  Uiso   1.00
C1031  C     0.55678   0.75703   0.54221   0.00000  Uiso   1.00
C1032  C     0.55404   0.76941   0.58173   0.00000  Uiso   1.00
C1033  C     0.50914   0.82317   0.58089   0.00000  Uiso   1.00
C1034  C     0.66032   0.84285   0.73767   0.00000  Uiso   1.00
C1035  C     0.34046   0.82407   0.76214   0.00000  Uiso   1.00
C1036  C     0.43381   0.88393   0.92112   0.00000  Uiso   1.00
C1037  C     0.51423   0.98881   0.73813   0.00000  Uiso   1.00
C1038  C     0.48492   0.67872   0.76208   0.00000  Uiso   1.00
C1039  C     0.48928   0.72275   0.75888   0.00000  Uiso   1.00
C1040  C     0.51019   0.94432   0.74135   0.00000  Uiso   1.00
C1041  C     0.52119   0.81214   0.64403   0.00000  Uiso   1.00
C1042  C     0.47871   0.85427   0.85624   0.00000  Uiso   1.00
C1043  C     0.46663   0.85971   0.89961   0.00000  Uiso   1.00
C1044  C     0.52981   0.80256   0.60138   0.00000  Uiso   1.00
C1045  C     0.42047   0.88599   0.96205   0.00000  Uiso   1.00
C1046  C     0.48647   0.83826   0.91961   0.00000  Uiso   1.00
C1047  C     0.47242   0.83847   0.96089   0.00000  Uiso   1.00
C1048  C     0.43914   0.86320   0.98234   0.00000  Uiso   1.00
C1049  C     0.49143   0.81561   0.98131   0.00000  Uiso   1.00
C1050  C     0.48095   0.82202   0.52292   0.00000  Uiso   1.00
C1051  C     0.44316   0.84101   0.54353   0.00000  Uiso   1.00
C1052  C     0.42423   0.86422   0.52351   0.00000  Uiso   1.00
H1053  H     0.57801   0.73359   0.52742   0.00000  Uiso   1.00
H1054  H     0.39344   0.89638   0.57081   0.00000  Uiso   1.00
H1055  H     0.50437   0.87318   0.61929   0.00000  Uiso   1.00
H1056  H     0.57539   0.76247   0.62622   0.00000  Uiso   1.00
H1057  H     0.55460   0.70735   0.97784   0.00000  Uiso   1.00
H1058  H     0.39137   0.83458   0.58752   0.00000  Uiso   1.00
H1059  H     0.34997   0.86014   0.71503   0.00000  Uiso   1.00
H1060  H     0.65147   0.80671   0.78505   0.00000  Uiso   1.00
H1061  H     0.54132   0.66943   0.71609   0.00000  Uiso   1.00
H1062  H     0.45743   0.99886   0.78418   0.00000  Uiso   1.00
H1063  H     0.39489   0.90497   0.97765   0.00000  Uiso   1.00
H1064  H     0.41800   0.90089   0.90631   0.00000  Uiso   1.00
H1065  H     0.51342   0.82210   0.90228   0.00000  Uiso   1.00
H1066  H     0.52367   0.77470   0.93068   0.00000  Uiso   1.00
O1067  O     0.50000   0.83333   0.75000   0.00000  Uiso   1.00
O1068  O     0.49027   0.79060   0.66625   0.00000  Uiso   1.00
O1069  O     0.46020   0.87313   0.83749   0.00000  Uiso   1.00
O1070  O     0.54421   0.84159   0.65877   0.00000  Uiso   1.00
O1071  O     0.50532   0.82802   0.83749   0.00000  Uiso   1.00
O1072  O     0.39132   0.88814   0.54354   0.00000  Uiso   1.00
O1073  O     0.49386   0.86133   0.59620   0.00000  Uiso   1.00
O1074  O     0.57630   0.74868   0.59947   0.00000  Uiso   1.00
O1075  O     0.55940   0.72999   0.96070   0.00000  Uiso   1.00
O1076  O     0.42262   0.83223   0.58175   0.00000  Uiso   1.00
O1077  O     0.51182   0.74768   0.77821   0.00000  Uiso   1.00
O1078  O     0.47914   0.92803   0.76767   0.00000  Uiso   1.00
O1079  O     0.40785   0.79917   0.73607   0.00000  Uiso   1.00
O1080  O     0.60119   0.85845   0.71805   0.00000  Uiso   1.00
O1081  O     0.40323   0.85627   0.77820   0.00000  Uiso   1.00
O1082  O     0.58773   0.81944   0.76767   0.00000  Uiso   1.00
O1083  O     0.47133   0.73570   0.73607   0.00000  Uiso   1.00
O1084  O     0.53771   0.92193   0.71805   0.00000  Uiso   1.00
Zn1085 Zn    0.52577   0.80756   0.78278   0.00000  Uiso   1.00
Zn1086 Zn    0.46792   0.79044   0.72258   0.00000  Uiso   1.00
Zn1087 Zn    0.54500   0.86331   0.71188   0.00000  Uiso   1.00
Zn1088 Zn    0.46131   0.87202   0.78277   0.00000  Uiso   1.00
C1089  C     0.71915   0.82654   0.75874   0.00000  Uiso   1.00
C1090  C     0.85196   0.78471   0.96166   0.00000  Uiso   1.00
C1091  C     0.87019   0.76235   0.98196   0.00000  Uiso   1.00
C1092  C     0.94771   0.84021   0.74123   0.00000  Uiso   1.00
C1093  C     0.86651   0.77450   0.52232   0.00000  Uiso   1.00
C1094  C     0.84000   0.80614   0.54264   0.00000  Uiso   1.00
C1095  C     0.89011   0.75703   0.54221   0.00000  Uiso   1.00
C1096  C     0.88737   0.76941   0.58173   0.00000  Uiso   1.00
C1097  C     0.84248   0.82317   0.58089   0.00000  Uiso   1.00
C1098  C     0.99365   0.84285   0.73767   0.00000  Uiso   1.00
C1099  C     0.67379   0.82407   0.76214   0.00000  Uiso   1.00
C1100  C     0.76714   0.88393   0.92112   0.00000  Uiso   1.00
C1101  C     0.84756   0.98881   0.73813   0.00000  Uiso   1.00
C1102  C     0.81825   0.67872   0.76208   0.00000  Uiso   1.00
C1103  C     0.82261   0.72275   0.75888   0.00000  Uiso   1.00
C1104  C     0.84352   0.94432   0.74135   0.00000  Uiso   1.00
C1105  C     0.85452   0.81214   0.64403   0.00000  Uiso   1.00
C1106  C     0.81204   0.85427   0.85624   0.00000  Uiso   1.00
C1107  C     0.79996   0.85971   0.89961   0.00000  Uiso   1.00
C1108  C     0.86314   0.80256   0.60138   0.00000  Uiso   1.00
C1109  C     0.75380   0.88599   0.96205   0.00000  Uiso   1.00
C1110  C     0.81980   0.83826   0.91961   0.00000  Uiso   1.00
C1111  C     0.80576   0.83847   0.96089   0.00000  Uiso   1.00
C1112  C     0.77248   0.86320   0.98234   0.00000  Uiso   1.00
C1113  C     0.82476   0.81561   0.98131   0.00000  Uiso   1.00
C1114  C     0.81428   0.82202   0.52292   0.00000  Uiso   1.00
C1115  C     0.77649   0.84101   0.54353   0.00000  Uiso   1.00
C1116  C     0.75756   0.86422   0.52351   0.00000  Uiso   1.00
H1117  H     0.91134   0.73359   0.52742   0.00000  Uiso   1.00
H1118  H     0.72677   0.89638   0.57081   0.00000  Uiso   1.00
H1119  H     0.83771   0.87318   0.61929   0.00000  Uiso   1.00
H1120  H     0.90872   0.76247   0.62622   0.00000  Uiso   1.00
H1121  H     0.88794   0.70735   0.97784   0.00000  Uiso   1.00
H1122  H     0.72470   0.83458   0.58752   0.00000  Uiso   1.00
H1123  H     0.68330   0.86014   0.71503   0.00000  Uiso   1.00
H1124  H     0.98481   0.80671   0.78505   0.00000  Uiso   1.00
H1125  H     0.87465   0.66943   0.71609   0.00000  Uiso   1.00
H1126  H     0.79077   0.99886   0.78418   0.00000  Uiso   1.00
H1127  H     0.72822   0.90497   0.97765   0.00000  Uiso   1.00
H1128  H     0.75134   0.90089   0.90631   0.00000  Uiso   1.00
H1129  H     0.84675   0.82210   0.90228   0.00000  Uiso   1.00
H1130  H     0.85700   0.77470   0.93068   0.00000  Uiso   1.00
O1131  O     0.83333   0.83333   0.75000   0.00000  Uiso   1.00
O1132  O     0.82360   0.79060   0.66625   0.00000  Uiso   1.00
O1133  O     0.79354   0.87313   0.83749   0.00000  Uiso   1.00
O1134  O     0.87755   0.84159   0.65877   0.00000  Uiso   1.00
O1135  O     0.83865   0.82802   0.83749   0.00000  Uiso   1.00
O1136  O     0.72465   0.88814   0.54354   0.00000  Uiso   1.00
O1137  O     0.82719   0.86133   0.59620   0.00000  Uiso   1.00
O1138  O     0.90963   0.74868   0.59947   0.00000  Uiso   1.00
O1139  O     0.89273   0.72999   0.96070   0.00000  Uiso   1.00
O1140  O     0.75595   0.83223   0.58175   0.00000  Uiso   1.00
O1141  O     0.84515   0.74768   0.77821   0.00000  Uiso   1.00
O1142  O     0.81247   0.92803   0.76767   0.00000  Uiso   1.00
O1143  O     0.74119   0.79917   0.73607   0.00000  Uiso   1.00
O1144  O     0.93452   0.85845   0.71805   0.00000  Uiso   1.00
O1145  O     0.73656   0.85627   0.77820   0.00000  Uiso   1.00
O1146  O     0.92106   0.81944   0.76767   0.00000  Uiso   1.00
O1147  O     0.80467   0.73570   0.73607   0.00000  Uiso   1.00
O1148  O     0.87104   0.92193   0.71805   0.00000  Uiso   1.00
Zn1149 Zn    0.85910   0.80756   0.78278   0.00000  Uiso   1.00
Zn1150 Zn    0.80125   0.79044   0.72258   0.00000  Uiso   1.00
Zn1151 Zn    0.87833   0.86331   0.71188   0.00000  Uiso   1.00
Zn1152 Zn    0.79465   0.87202   0.78277   0.00000  Uiso   1.00
loop_
_geom_bond_atom_site_label_1
_geom_bond_atom_site_label_2
_geom_bond_distance
_geom_bond_site_symmetry_2
_ccdc_geom_bond_type
C1     O57     1.269   .     A
C1     C11     1.438   .     S
C1     O55     1.269   .     A
C2     C3      1.390   .     A
C2     H42     1.078   .     S
C2     C25     1.412   .     A
C3     O51     1.380   .     S
C3     C581    1.413   .     S
C4     O56     1.281   .     A
C4     C10     1.455   .     S
C4     O58     1.278   .     A
C5     C6      1.422   .     A
C5     C7      1.406   .     A
C5     C579    1.413   1_554 S
C6     C26     1.427   .     A
C6     C9      1.418   .     A
C7     H29     1.081   .     S
C7     C8      1.391   .     A
C8     C20     1.413   .     A
C8     O50     1.383   .     S
C9     O49     1.386   .     S
C9     C20     1.413   .     A
C10    C75     1.334   .     S
C10    H99     1.088   .     S
C11    C138    1.334   1_455 S
C11    H164    1.086   1_455 S
C12    H40     1.083   .     S
C12    C19     1.399   .     A
C12    C21     1.392   .     A
C13    C16     1.452   .     S
C13    C206    1.332   .     S
C13    H229    1.088   .     S
C14    C15     1.436   .     S
C14    C397    1.332   1_545 S
C14    H422    1.086   1_545 S
C15    O53     1.276   .     A
C15    O59     1.275   .     A
C16    O54     1.272   .     A
C16    O60     1.271   .     A
C17    C20     1.461   .     S
C17    O44     1.273   .     A
C17    O46     1.275   .     A
C18    O45     1.283   .     A
C18    O47     1.285   .     A
C18    C19     1.473   .     S
C19    C22     1.398   .     A
C21    C24     1.409   .     A
C21    H39     1.083   .     S
C22    H41     1.077   .     S
C22    C23     1.409   .     A
C23    C24     1.419   .     A
C23    C25     1.421   .     A
C24    C604    1.404   .     S
C25    C602    1.415   .     S
C26    C27     1.418   .     A
C26    C601    1.415   1_554 S
C27    O52     1.384   .     S
C27    C28     1.416   .     A
C28    O48     1.383   .     S
C28    C600    1.404   1_554 S
H30    O48     0.991   .     S
H31    O49     0.989   .     S
H32    O50     0.989   .     S
H33    O51     0.990   .     S
H34    O52     0.991   .     S
H35    C138    1.088   1_455 S
H36    C75     1.086   .     S
H37    C397    1.088   1_545 S
H38    C206    1.086   .     S
O43    Zn63    1.936   .     S
O43    Zn64    1.934   .     S
O43    Zn61    1.957   .     S
O43    Zn62    1.940   .     S
O44    Zn62    1.929   .     S
O45    Zn64    1.937   .     S
O46    Zn63    1.931   .     S
O47    Zn61    1.925   .     S
O53    Zn61    1.928   .     S
O54    Zn64    1.932   .     S
O55    Zn62    1.929   .     S
O56    Zn63    1.936   .     S
O57    Zn64    1.932   .     S
O58    Zn61    1.926   .     S
O59    Zn62    1.937   .     S
O60    Zn63    1.931   .     S
C65    O121    1.269   .     A
C65    C75     1.438   .     S
C65    O119    1.269   .     A
C66    C67     1.390   .     A
C66    H106    1.078   .     S
C66    C89     1.412   .     A
C67    O115    1.380   .     S
C67    C645    1.413   .     S
C68    O120    1.281   .     A
C68    C74     1.455   .     S
C68    O122    1.278   .     A
C69    C70     1.422   .     A
C69    C71     1.406   .     A
C69    C643    1.413   1_554 S
C70    C90     1.427   .     A
C70    C73     1.418   .     A
C71    H93     1.081   .     S
C71    C72     1.391   .     A
C72    C84     1.413   .     A
C72    O114    1.383   .     S
C73    O113    1.386   .     S
C73    C84     1.413   .     A
C74    C139    1.334   .     S
C74    H163    1.088   .     S
C76    H104    1.083   .     S
C76    C83     1.399   .     A
C76    C85     1.392   .     A
C77    C80     1.452   .     S
C77    C270    1.332   .     S
C77    H293    1.088   .     S
C78    C79     1.436   .     S
C78    C461    1.332   1_545 S
C78    H486    1.086   1_545 S
C79    O117    1.276   .     A
C79    O123    1.275   .     A
C80    O118    1.272   .     A
C80    O124    1.271   .     A
C81    C84     1.461   .     S
C81    O108    1.273   .     A
C81    O110    1.275   .     A
C82    O109    1.283   .     A
C82    O111    1.285   .     A
C82    C83     1.473   .     S
C83    C86     1.398   .     A
C85    C88     1.409   .     A
C85    H103    1.083   .     S
C86    H105    1.077   .     S
C86    C87     1.409   .     A
C87    C88     1.419   .     A
C87    C89     1.421   .     A
C88    C668    1.404   .     S
C89    C666    1.415   .     S
C90    C91     1.418   .     A
C90    C665    1.415   1_554 S
C91    O116    1.384   .     S
C91    C92     1.416   .     A
C92    O112    1.383   .     S
C92    C664    1.404   1_554 S
H94    O112    0.991   .     S
H95    O113    0.989   .     S
H96    O114    0.989   .     S
H97    O115    0.990   .     S
H98    O116    0.991   .     S
H100   C139    1.086   .     S
H101   C461    1.088   1_545 S
H102   C270    1.086   .     S
O107   Zn127   1.936   .     S
O107   Zn128   1.934   .     S
O107   Zn125   1.957   .     S
O107   Zn126   1.940   .     S
O108   Zn126   1.929   .     S
O109   Zn128   1.937   .     S
O110   Zn127   1.931   .     S
O111   Zn125   1.925   .     S
O117   Zn125   1.928   .     S
O118   Zn128   1.932   .     S
O119   Zn126   1.929   .     S
O120   Zn127   1.936   .     S
O121   Zn128   1.932   .     S
O122   Zn125   1.926   .     S
O123   Zn126   1.937   .     S
O124   Zn127   1.931   .     S
C129   O185    1.269   .     A
C129   C139    1.438   .     S
C129   O183    1.269   .     A
C130   C131    1.390   .     A
C130   H170    1.078   .     S
C130   C153    1.412   .     A
C131   O179    1.380   .     S
C131   C709    1.413   .     S
C132   O184    1.281   .     A
C132   C138    1.455   .     S
C132   O186    1.278   .     A
C133   C134    1.422   .     A
C133   C135    1.406   .     A
C133   C707    1.413   1_554 S
C134   C154    1.427   .     A
C134   C137    1.418   .     A
C135   H157    1.081   .     S
C135   C136    1.391   .     A
C136   C148    1.413   .     A
C136   O178    1.383   .     S
C137   O177    1.386   .     S
C137   C148    1.413   .     A
C138   C11     1.334   1_655 S
C138   H35     1.088   1_655 S
C140   H168    1.083   .     S
C140   C147    1.399   .     A
C140   C149    1.392   .     A
C141   C144    1.452   .     S
C141   C334    1.332   .     S
C141   H357    1.088   .     S
C142   C143    1.436   .     S
C142   C525    1.332   1_545 S
C142   H550    1.086   1_545 S
C143   O181    1.276   .     A
C143   O187    1.275   .     A
C144   O182    1.272   .     A
C144   O188    1.271   .     A
C145   C148    1.461   .     S
C145   O172    1.273   .     A
C145   O174    1.275   .     A
C146   O173    1.283   .     A
C146   O175    1.285   .     A
C146   C147    1.473   .     S
C147   C150    1.398   .     A
C149   C152    1.409   .     A
C149   H167    1.083   .     S
C150   H169    1.077   .     S
C150   C151    1.409   .     A
C151   C152    1.419   .     A
C151   C153    1.421   .     A
C152   C732    1.404   .     S
C153   C730    1.415   .     S
C154   C155    1.418   .     A
C154   C729    1.415   1_554 S
C155   O180    1.384   .     S
C155   C156    1.416   .     A
C156   O176    1.383   .     S
C156   C728    1.404   1_554 S
H158   O176    0.991   .     S
H159   O177    0.989   .     S
H160   O178    0.989   .     S
H161   O179    0.990   .     S
H162   O180    0.991   .     S
H164   C11     1.086   1_655 S
H165   C525    1.088   1_545 S
H166   C334    1.086   .     S
O171   Zn191   1.936   .     S
O171   Zn192   1.934   .     S
O171   Zn189   1.957   .     S
O171   Zn190   1.940   .     S
O172   Zn190   1.929   .     S
O173   Zn192   1.937   .     S
O174   Zn191   1.931   .     S
O175   Zn189   1.925   .     S
O181   Zn189   1.928   .     S
O182   Zn192   1.932   .     S
O183   Zn190   1.929   .     S
O184   Zn191   1.936   .     S
O185   Zn192   1.932   .     S
O186   Zn189   1.926   .     S
O187   Zn190   1.937   .     S
O188   Zn191   1.931   .     S
C193   O249    1.269   .     A
C193   C203    1.438   .     S
C193   O247    1.269   .     A
C194   C195    1.390   .     A
C194   H234    1.078   .     S
C194   C217    1.412   .     A
C195   O243    1.380   .     S
C195   C773    1.413   .     S
C196   O248    1.281   .     A
C196   C202    1.455   .     S
C196   O250    1.278   .     A
C197   C198    1.422   .     A
C197   C199    1.406   .     A
C197   C771    1.413   1_554 S
C198   C218    1.427   .     A
C198   C201    1.418   .     A
C199   H221    1.081   .     S
C199   C200    1.391   .     A
C200   C212    1.413   .     A
C200   O242    1.383   .     S
C201   O241    1.386   .     S
C201   C212    1.413   .     A
C202   C267    1.334   .     S
C202   H291    1.088   .     S
C203   C330    1.334   1_455 S
C203   H356    1.086   1_455 S
C204   H232    1.083   .     S
C204   C211    1.399   .     A
C204   C213    1.392   .     A
C205   C208    1.452   .     S
C205   C398    1.332   .     S
C205   H421    1.088   .     S
C206   C207    1.436   .     S
C207   O245    1.276   .     A
C207   O251    1.275   .     A
C208   O246    1.272   .     A
C208   O252    1.271   .     A
C209   C212    1.461   .     S
C209   O236    1.273   .     A
C209   O238    1.275   .     A
C210   O237    1.283   .     A
C210   O239    1.285   .     A
C210   C211    1.473   .     S
C211   C214    1.398   .     A
C213   C216    1.409   .     A
C213   H231    1.083   .     S
C214   H233    1.077   .     S
C214   C215    1.409   .     A
C215   C216    1.419   .     A
C215   C217    1.421   .     A
C216   C796    1.404   .     S
C217   C794    1.415   .     S
C218   C219    1.418   .     A
C218   C793    1.415   1_554 S
C219   O244    1.384   .     S
C219   C220    1.416   .     A
C220   O240    1.383   .     S
C220   C792    1.404   1_554 S
H222   O240    0.991   .     S
H223   O241    0.989   .     S
H224   O242    0.989   .     S
H225   O243    0.990   .     S
H226   O244    0.991   .     S
H227   C330    1.088   1_455 S
H228   C267    1.086   .     S
H230   C398    1.086   .     S
O235   Zn255   1.936   .     S
O235   Zn256   1.934   .     S
O235   Zn253   1.957   .     S
O235   Zn254   1.940   .     S
O236   Zn254   1.929   .     S
O237   Zn256   1.937   .     S
O238   Zn255   1.931   .     S
O239   Zn253   1.925   .     S
O245   Zn253   1.928   .     S
O246   Zn256   1.932   .     S
O247   Zn254   1.929   .     S
O248   Zn255   1.936   .     S
O249   Zn256   1.932   .     S
O250   Zn253   1.926   .     S
O251   Zn254   1.937   .     S
O252   Zn255   1.931   .     S
C257   O313    1.269   .     A
C257   C267    1.438   .     S
C257   O311    1.269   .     A
C258   C259    1.390   .     A
C258   H298    1.078   .     S
C258   C281    1.412   .     A
C259   O307    1.380   .     S
C259   C837    1.413   .     S
C260   O312    1.281   .     A
C260   C266    1.455   .     S
C260   O314    1.278   .     A
C261   C262    1.422   .     A
C261   C263    1.406   .     A
C261   C835    1.413   1_554 S
C262   C282    1.427   .     A
C262   C265    1.418   .     A
C263   H285    1.081   .     S
C263   C264    1.391   .     A
C264   C276    1.413   .     A
C264   O306    1.383   .     S
C265   O305    1.386   .     S
C265   C276    1.413   .     A
C266   C331    1.334   .     S
C266   H355    1.088   .     S
C268   H296    1.083   .     S
C268   C275    1.399   .     A
C268   C277    1.392   .     A
C269   C272    1.452   .     S
C269   C462    1.332   .     S
C269   H485    1.088   .     S
C270   C271    1.436   .     S
C271   O309    1.276   .     A
C271   O315    1.275   .     A
C272   O310    1.272   .     A
C272   O316    1.271   .     A
C273   C276    1.461   .     S
C273   O300    1.273   .     A
C273   O302    1.275   .     A
C274   O301    1.283   .     A
C274   O303    1.285   .     A
C274   C275    1.473   .     S
C275   C278    1.398   .     A
C277   C280    1.409   .     A
C277   H295    1.083   .     S
C278   H297    1.077   .     S
C278   C279    1.409   .     A
C279   C280    1.419   .     A
C279   C281    1.421   .     A
C280   C860    1.404   .     S
C281   C858    1.415   .     S
C282   C283    1.418   .     A
C282   C857    1.415   1_554 S
C283   O308    1.384   .     S
C283   C284    1.416   .     A
C284   O304    1.383   .     S
C284   C856    1.404   1_554 S
H286   O304    0.991   .     S
H287   O305    0.989   .     S
H288   O306    0.989   .     S
H289   O307    0.990   .     S
H290   O308    0.991   .     S
H292   C331    1.086   .     S
H294   C462    1.086   .     S
O299   Zn319   1.936   .     S
O299   Zn320   1.934   .     S
O299   Zn317   1.957   .     S
O299   Zn318   1.940   .     S
O300   Zn318   1.929   .     S
O301   Zn320   1.937   .     S
O302   Zn319   1.931   .     S
O303   Zn317   1.925   .     S
O309   Zn317   1.928   .     S
O310   Zn320   1.932   .     S
O311   Zn318   1.929   .     S
O312   Zn319   1.936   .     S
O313   Zn320   1.932   .     S
O314   Zn317   1.926   .     S
O315   Zn318   1.937   .     S
O316   Zn319   1.931   .     S
C321   O377    1.269   .     A
C321   C331    1.438   .     S
C321   O375    1.269   .     A
C322   C323    1.390   .     A
C322   H362    1.078   .     S
C322   C345    1.412   .     A
C323   O371    1.380   .     S
C323   C901    1.413   .     S
C324   O376    1.281   .     A
C324   C330    1.455   .     S
C324   O378    1.278   .     A
C325   C326    1.422   .     A
C325   C327    1.406   .     A
C325   C899    1.413   1_554 S
C326   C346    1.427   .     A
C326   C329    1.418   .     A
C327   H349    1.081   .     S
C327   C328    1.391   .     A
C328   C340    1.413   .     A
C328   O370    1.383   .     S
C329   O369    1.386   .     S
C329   C340    1.413   .     A
C330   C203    1.334   1_655 S
C330   H227    1.088   1_655 S
C332   H360    1.083   .     S
C332   C339    1.399   .     A
C332   C341    1.392   .     A
C333   C336    1.452   .     S
C333   C526    1.332   .     S
C333   H549    1.088   .     S
C334   C335    1.436   .     S
C335   O373    1.276   .     A
C335   O379    1.275   .     A
C336   O374    1.272   .     A
C336   O380    1.271   .     A
C337   C340    1.461   .     S
C337   O364    1.273   .     A
C337   O366    1.275   .     A
C338   O365    1.283   .     A
C338   O367    1.285   .     A
C338   C339    1.473   .     S
C339   C342    1.398   .     A
C341   C344    1.409   .     A
C341   H359    1.083   .     S
C342   H361    1.077   .     S
C342   C343    1.409   .     A
C343   C344    1.419   .     A
C343   C345    1.421   .     A
C344   C924    1.404   .     S
C345   C922    1.415   .     S
C346   C347    1.418   .     A
C346   C921    1.415   1_554 S
C347   O372    1.384   .     S
C347   C348    1.416   .     A
C348   O368    1.383   .     S
C348   C920    1.404   1_554 S
H350   O368    0.991   .     S
H351   O369    0.989   .     S
H352   O370    0.989   .     S
H353   O371    0.990   .     S
H354   O372    0.991   .     S
H356   C203    1.086   1_655 S
H358   C526    1.086   .     S
O363   Zn383   1.936   .     S
O363   Zn384   1.934   .     S
O363   Zn381   1.957   .     S
O363   Zn382   1.940   .     S
O364   Zn382   1.929   .     S
O365   Zn384   1.937   .     S
O366   Zn383   1.931   .     S
O367   Zn381   1.925   .     S
O373   Zn381   1.928   .     S
O374   Zn384   1.932   .     S
O375   Zn382   1.929   .     S
O376   Zn383   1.936   .     S
O377   Zn384   1.932   .     S
O378   Zn381   1.926   .     S
O379   Zn382   1.937   .     S
O380   Zn383   1.931   .     S
C385   O441    1.269   .     A
C385   C395    1.438   .     S
C385   O439    1.269   .     A
C386   C387    1.390   .     A
C386   H426    1.078   .     S
C386   C409    1.412   .     A
C387   O435    1.380   .     S
C387   C965    1.413   .     S
C388   O440    1.281   .     A
C388   C394    1.455   .     S
C388   O442    1.278   .     A
C389   C390    1.422   .     A
C389   C391    1.406   .     A
C389   C963    1.413   1_554 S
C390   C410    1.427   .     A
C390   C393    1.418   .     A
C391   H413    1.081   .     S
C391   C392    1.391   .     A
C392   C404    1.413   .     A
C392   O434    1.383   .     S
C393   O433    1.386   .     S
C393   C404    1.413   .     A
C394   C459    1.334   .     S
C394   H483    1.088   .     S
C395   C522    1.334   1_455 S
C395   H548    1.086   1_455 S
C396   H424    1.083   .     S
C396   C403    1.399   .     A
C396   C405    1.392   .     A
C397   C400    1.452   .     S
C397   C14     1.332   1_565 S
C397   H37     1.088   1_565 S
C398   C399    1.436   .     S
C399   O437    1.276   .     A
C399   O443    1.275   .     A
C400   O438    1.272   .     A
C400   O444    1.271   .     A
C401   C404    1.461   .     S
C401   O428    1.273   .     A
C401   O430    1.275   .     A
C402   O429    1.283   .     A
C402   O431    1.285   .     A
C402   C403    1.473   .     S
C403   C406    1.398   .     A
C405   C408    1.409   .     A
C405   H423    1.083   .     S
C406   H425    1.077   .     S
C406   C407    1.409   .     A
C407   C408    1.419   .     A
C407   C409    1.421   .     A
C408   C988    1.404   .     S
C409   C986    1.415   .     S
C410   C411    1.418   .     A
C410   C985    1.415   1_554 S
C411   O436    1.384   .     S
C411   C412    1.416   .     A
C412   O432    1.383   .     S
C412   C984    1.404   1_554 S
H414   O432    0.991   .     S
H415   O433    0.989   .     S
H416   O434    0.989   .     S
H417   O435    0.990   .     S
H418   O436    0.991   .     S
H419   C522    1.088   1_455 S
H420   C459    1.086   .     S
H422   C14     1.086   1_565 S
O427   Zn447   1.936   .     S
O427   Zn448   1.934   .     S
O427   Zn445   1.957   .     S
O427   Zn446   1.940   .     S
O428   Zn446   1.929   .     S
O429   Zn448   1.937   .     S
O430   Zn447   1.931   .     S
O431   Zn445   1.925   .     S
O437   Zn445   1.928   .     S
O438   Zn448   1.932   .     S
O439   Zn446   1.929   .     S
O440   Zn447   1.936   .     S
O441   Zn448   1.932   .     S
O442   Zn445   1.926   .     S
O443   Zn446   1.937   .     S
O444   Zn447   1.931   .     S
C449   O505    1.269   .     A
C449   C459    1.438   .     S
C449   O503    1.269   .     A
C450   C451    1.390   .     A
C450   H490    1.078   .     S
C450   C473    1.412   .     A
C451   O499    1.380   .     S
C451   C1029   1.413   .     S
C452   O504    1.281   .     A
C452   C458    1.455   .     S
C452   O506    1.278   .     A
C453   C454    1.422   .     A
C453   C455    1.406   .     A
C453   C1027   1.413   1_554 S
C454   C474    1.427   .     A
C454   C457    1.418   .     A
C455   H477    1.081   .     S
C455   C456    1.391   .     A
C456   C468    1.413   .     A
C456   O498    1.383   .     S
C457   O497    1.386   .     S
C457   C468    1.413   .     A
C458   C523    1.334   .     S
C458   H547    1.088   .     S
C460   H488    1.083   .     S
C460   C467    1.399   .     A
C460   C469    1.392   .     A
C461   C464    1.452   .     S
C461   C78     1.332   1_565 S
C461   H101    1.088   1_565 S
C462   C463    1.436   .     S
C463   O501    1.276   .     A
C463   O507    1.275   .     A
C464   O502    1.272   .     A
C464   O508    1.271   .     A
C465   C468    1.461   .     S
C465   O492    1.273   .     A
C465   O494    1.275   .     A
C466   O493    1.283   .     A
C466   O495    1.285   .     A
C466   C467    1.473   .     S
C467   C470    1.398   .     A
C469   C472    1.409   .     A
C469   H487    1.083   .     S
C470   H489    1.077   .     S
C470   C471    1.409   .     A
C471   C472    1.419   .     A
C471   C473    1.421   .     A
C472   C1052   1.404   .     S
C473   C1050   1.415   .     S
C474   C475    1.418   .     A
C474   C1049   1.415   1_554 S
C475   O500    1.384   .     S
C475   C476    1.416   .     A
C476   O496    1.383   .     S
C476   C1048   1.404   1_554 S
H478   O496    0.991   .     S
H479   O497    0.989   .     S
H480   O498    0.989   .     S
H481   O499    0.990   .     S
H482   O500    0.991   .     S
H484   C523    1.086   .     S
H486   C78     1.086   1_565 S
O491   Zn511   1.936   .     S
O491   Zn512   1.934   .     S
O491   Zn509   1.957   .     S
O491   Zn510   1.940   .     S
O492   Zn510   1.929   .     S
O493   Zn512   1.937   .     S
O494   Zn511   1.931   .     S
O495   Zn509   1.925   .     S
O501   Zn509   1.928   .     S
O502   Zn512   1.932   .     S
O503   Zn510   1.929   .     S
O504   Zn511   1.936   .     S
O505   Zn512   1.932   .     S
O506   Zn509   1.926   .     S
O507   Zn510   1.937   .     S
O508   Zn511   1.931   .     S
C513   O569    1.269   .     A
C513   C523    1.438   .     S
C513   O567    1.269   .     A
C514   C515    1.390   .     A
C514   H554    1.078   .     S
C514   C537    1.412   .     A
C515   O563    1.380   .     S
C515   C1093   1.413   .     S
C516   O568    1.281   .     A
C516   C522    1.455   .     S
C516   O570    1.278   .     A
C517   C518    1.422   .     A
C517   C519    1.406   .     A
C517   C1091   1.413   1_554 S
C518   C538    1.427   .     A
C518   C521    1.418   .     A
C519   H541    1.081   .     S
C519   C520    1.391   .     A
C520   C532    1.413   .     A
C520   O562    1.383   .     S
C521   O561    1.386   .     S
C521   C532    1.413   .     A
C522   C395    1.334   1_655 S
C522   H419    1.088   1_655 S
C524   H552    1.083   .     S
C524   C531    1.399   .     A
C524   C533    1.392   .     A
C525   C528    1.452   .     S
C525   C142    1.332   1_565 S
C525   H165    1.088   1_565 S
C526   C527    1.436   .     S
C527   O565    1.276   .     A
C527   O571    1.275   .     A
C528   O566    1.272   .     A
C528   O572    1.271   .     A
C529   C532    1.461   .     S
C529   O556    1.273   .     A
C529   O558    1.275   .     A
C530   O557    1.283   .     A
C530   O559    1.285   .     A
C530   C531    1.473   .     S
C531   C534    1.398   .     A
C533   C536    1.409   .     A
C533   H551    1.083   .     S
C534   H553    1.077   .     S
C534   C535    1.409   .     A
C535   C536    1.419   .     A
C535   C537    1.421   .     A
C536   C1116   1.404   .     S
C537   C1114   1.415   .     S
C538   C539    1.418   .     A
C538   C1113   1.415   1_554 S
C539   O564    1.384   .     S
C539   C540    1.416   .     A
C540   O560    1.383   .     S
C540   C1112   1.404   1_554 S
H542   O560    0.991   .     S
H543   O561    0.989   .     S
H544   O562    0.989   .     S
H545   O563    0.990   .     S
H546   O564    0.991   .     S
H548   C395    1.086   1_655 S
H550   C142    1.086   1_565 S
O555   Zn575   1.936   .     S
O555   Zn576   1.934   .     S
O555   Zn573   1.957   .     S
O555   Zn574   1.940   .     S
O556   Zn574   1.929   .     S
O557   Zn576   1.937   .     S
O558   Zn575   1.931   .     S
O559   Zn573   1.925   .     S
O565   Zn573   1.928   .     S
O566   Zn576   1.932   .     S
O567   Zn574   1.929   .     S
O568   Zn575   1.936   .     S
O569   Zn576   1.932   .     S
O570   Zn573   1.926   .     S
O571   Zn574   1.937   .     S
O572   Zn575   1.931   .     S
C577   O633    1.269   .     A
C577   C587    1.438   .     S
C577   O631    1.269   .     A
C578   C579    1.390   .     A
C578   H618    1.078   .     S
C578   C601    1.412   .     A
C579   O627    1.380   .     S
C579   C5      1.413   1_556 S
C580   O632    1.281   .     A
C580   C586    1.455   .     S
C580   O634    1.278   .     A
C581   C582    1.422   .     A
C581   C583    1.406   .     A
C582   C602    1.427   .     A
C582   C585    1.418   .     A
C583   H605    1.081   .     S
C583   C584    1.391   .     A
C584   C596    1.413   .     A
C584   O626    1.383   .     S
C585   O625    1.386   .     S
C585   C596    1.413   .     A
C586   C651    1.334   .     S
C586   H675    1.088   .     S
C587   C714    1.334   1_455 S
C587   H740    1.086   1_455 S
C588   H616    1.083   .     S
C588   C595    1.399   .     A
C588   C597    1.392   .     A
C589   C592    1.452   .     S
C589   C782    1.332   .     S
C589   H805    1.088   .     S
C590   C591    1.436   .     S
C590   C973    1.332   1_545 S
C590   H998    1.086   1_545 S
C591   O629    1.276   .     A
C591   O635    1.275   .     A
C592   O630    1.272   .     A
C592   O636    1.271   .     A
C593   C596    1.461   .     S
C593   O620    1.273   .     A
C593   O622    1.275   .     A
C594   O621    1.283   .     A
C594   O623    1.285   .     A
C594   C595    1.473   .     S
C595   C598    1.398   .     A
C597   C600    1.409   .     A
C597   H615    1.083   .     S
C598   H617    1.077   .     S
C598   C599    1.409   .     A
C599   C600    1.419   .     A
C599   C601    1.421   .     A
C600   C28     1.404   1_556 S
C601   C26     1.415   1_556 S
C602   C603    1.418   .     A
C603   O628    1.384   .     S
C603   C604    1.416   .     A
C604   O624    1.383   .     S
H606   O624    0.991   .     S
H607   O625    0.989   .     S
H608   O626    0.989   .     S
H609   O627    0.990   .     S
H610   O628    0.991   .     S
H611   C714    1.088   1_455 S
H612   C651    1.086   .     S
H613   C973    1.088   1_545 S
H614   C782    1.086   .     S
O619   Zn639   1.936   .     S
O619   Zn640   1.934   .     S
O619   Zn637   1.957   .     S
O619   Zn638   1.940   .     S
O620   Zn638   1.929   .     S
O621   Zn640   1.937   .     S
O622   Zn639   1.931   .     S
O623   Zn637   1.925   .     S
O629   Zn637   1.928   .     S
O630   Zn640   1.932   .     S
O631   Zn638   1.929   .     S
O632   Zn639   1.936   .     S
O633   Zn640   1.932   .     S
O634   Zn637   1.926   .     S
O635   Zn638   1.937   .     S
O636   Zn639   1.931   .     S
C641   O697    1.269   .     A
C641   C651    1.438   .     S
C641   O695    1.269   .     A
C642   C643    1.390   .     A
C642   H682    1.078   .     S
C642   C665    1.412   .     A
C643   O691    1.380   .     S
C643   C69     1.413   1_556 S
C644   O696    1.281   .     A
C644   C650    1.455   .     S
C644   O698    1.278   .     A
C645   C646    1.422   .     A
C645   C647    1.406   .     A
C646   C666    1.427   .     A
C646   C649    1.418   .     A
C647   H669    1.081   .     S
C647   C648    1.391   .     A
C648   C660    1.413   .     A
C648   O690    1.383   .     S
C649   O689    1.386   .     S
C649   C660    1.413   .     A
C650   C715    1.334   .     S
C650   H739    1.088   .     S
C652   H680    1.083   .     S
C652   C659    1.399   .     A
C652   C661    1.392   .     A
C653   C656    1.452   .     S
C653   C846    1.332   .     S
C653   H869    1.088   .     S
C654   C655    1.436   .     S
C654   C1037   1.332   1_545 S
C654   H1062   1.086   1_545 S
C655   O693    1.276   .     A
C655   O699    1.275   .     A
C656   O694    1.272   .     A
C656   O700    1.271   .     A
C657   C660    1.461   .     S
C657   O684    1.273   .     A
C657   O686    1.275   .     A
C658   O685    1.283   .     A
C658   O687    1.285   .     A
C658   C659    1.473   .     S
C659   C662    1.398   .     A
C661   C664    1.409   .     A
C661   H679    1.083   .     S
C662   H681    1.077   .     S
C662   C663    1.409   .     A
C663   C664    1.419   .     A
C663   C665    1.421   .     A
C664   C92     1.404   1_556 S
C665   C90     1.415   1_556 S
C666   C667    1.418   .     A
C667   O692    1.384   .     S
C667   C668    1.416   .     A
C668   O688    1.383   .     S
H670   O688    0.991   .     S
H671   O689    0.989   .     S
H672   O690    0.989   .     S
H673   O691    0.990   .     S
H674   O692    0.991   .     S
H676   C715    1.086   .     S
H677   C1037   1.088   1_545 S
H678   C846    1.086   .     S
O683   Zn703   1.936   .     S
O683   Zn704   1.934   .     S
O683   Zn701   1.957   .     S
O683   Zn702   1.940   .     S
O684   Zn702   1.929   .     S
O685   Zn704   1.937   .     S
O686   Zn703   1.931   .     S
O687   Zn701   1.925   .     S
O693   Zn701   1.928   .     S
O694   Zn704   1.932   .     S
O695   Zn702   1.929   .     S
O696   Zn703   1.936   .     S
O697   Zn704   1.932   .     S
O698   Zn701   1.926   .     S
O699   Zn702   1.937   .     S
O700   Zn703   1.931   .     S
C705   O761    1.269   .     A
C705   C715    1.438   .     S
C705   O759    1.269   .     A
C706   C707    1.390   .     A
C706   H746    1.078   .     S
C706   C729    1.412   .     A
C707   O755    1.380   .     S
C707   C133    1.413   1_556 S
C708   O760    1.281   .     A
C708   C714    1.455   .     S
C708   O762    1.278   .     A
C709   C710    1.422   .     A
C709   C711    1.406   .     A
C710   C730    1.427   .     A
C710   C713    1.418   .     A
C711   H733    1.081   .     S
C711   C712    1.391   .     A
C712   C724    1.413   .     A
C712   O754    1.383   .     S
C713   O753    1.386   .     S
C713   C724    1.413   .     A
C714   C587    1.334   1_655 S
C714   H611    1.088   1_655 S
C716   H744    1.083   .     S
C716   C723    1.399   .     A
C716   C725    1.392   .     A
C717   C720    1.452   .     S
C717   C910    1.332   .     S
C717   H933    1.088   .     S
C718   C719    1.436   .     S
C718   C1101   1.332   1_545 S
C718   H1126   1.086   1_545 S
C719   O757    1.276   .     A
C719   O763    1.275   .     A
C720   O758    1.272   .     A
C720   O764    1.271   .     A
C721   C724    1.461   .     S
C721   O748    1.273   .     A
C721   O750    1.275   .     A
C722   O749    1.283   .     A
C722   O751    1.285   .     A
C722   C723    1.473   .     S
C723   C726    1.398   .     A
C725   C728    1.409   .     A
C725   H743    1.083   .     S
C726   H745    1.077   .     S
C726   C727    1.409   .     A
C727   C728    1.419   .     A
C727   C729    1.421   .     A
C728   C156    1.404   1_556 S
C729   C154    1.415   1_556 S
C730   C731    1.418   .     A
C731   O756    1.384   .     S
C731   C732    1.416   .     A
C732   O752    1.383   .     S
H734   O752    0.991   .     S
H735   O753    0.989   .     S
H736   O754    0.989   .     S
H737   O755    0.990   .     S
H738   O756    0.991   .     S
H740   C587    1.086   1_655 S
H741   C1101   1.088   1_545 S
H742   C910    1.086   .     S
O747   Zn767   1.936   .     S
O747   Zn768   1.934   .     S
O747   Zn765   1.957   .     S
O747   Zn766   1.940   .     S
O748   Zn766   1.929   .     S
O749   Zn768   1.937   .     S
O750   Zn767   1.931   .     S
O751   Zn765   1.925   .     S
O757   Zn765   1.928   .     S
O758   Zn768   1.932   .     S
O759   Zn766   1.929   .     S
O760   Zn767   1.936   .     S
O761   Zn768   1.932   .     S
O762   Zn765   1.926   .     S
O763   Zn766   1.937   .     S
O764   Zn767   1.931   .     S
C769   O825    1.269   .     A
C769   C779    1.438   .     S
C769   O823    1.269   .     A
C770   C771    1.390   .     A
C770   H810    1.078   .     S
C770   C793    1.412   .     A
C771   O819    1.380   .     S
C771   C197    1.413   1_556 S
C772   O824    1.281   .     A
C772   C778    1.455   .     S
C772   O826    1.278   .     A
C773   C774    1.422   .     A
C773   C775    1.406   .     A
C774   C794    1.427   .     A
C774   C777    1.418   .     A
C775   H797    1.081   .     S
C775   C776    1.391   .     A
C776   C788    1.413   .     A
C776   O818    1.383   .     S
C777   O817    1.386   .     S
C777   C788    1.413   .     A
C778   C843    1.334   .     S
C778   H867    1.088   .     S
C779   C906    1.334   1_455 S
C779   H932    1.086   1_455 S
C780   H808    1.083   .     S
C780   C787    1.399   .     A
C780   C789    1.392   .     A
C781   C784    1.452   .     S
C781   C974    1.332   .     S
C781   H997    1.088   .     S
C782   C783    1.436   .     S
C783   O821    1.276   .     A
C783   O827    1.275   .     A
C784   O822    1.272   .     A
C784   O828    1.271   .     A
C785   C788    1.461   .     S
C785   O812    1.273   .     A
C785   O814    1.275   .     A
C786   O813    1.283   .     A
C786   O815    1.285   .     A
C786   C787    1.473   .     S
C787   C790    1.398   .     A
C789   C792    1.409   .     A
C789   H807    1.083   .     S
C790   H809    1.077   .     S
C790   C791    1.409   .     A
C791   C792    1.419   .     A
C791   C793    1.421   .     A
C792   C220    1.404   1_556 S
C793   C218    1.415   1_556 S
C794   C795    1.418   .     A
C795   O820    1.384   .     S
C795   C796    1.416   .     A
C796   O816    1.383   .     S
H798   O816    0.991   .     S
H799   O817    0.989   .     S
H800   O818    0.989   .     S
H801   O819    0.990   .     S
H802   O820    0.991   .     S
H803   C906    1.088   1_455 S
H804   C843    1.086   .     S
H806   C974    1.086   .     S
O811   Zn831   1.936   .     S
O811   Zn832   1.934   .     S
O811   Zn829   1.957   .     S
O811   Zn830   1.940   .     S
O812   Zn830   1.929   .     S
O813   Zn832   1.937   .     S
O814   Zn831   1.931   .     S
O815   Zn829   1.925   .     S
O821   Zn829   1.928   .     S
O822   Zn832   1.932   .     S
O823   Zn830   1.929   .     S
O824   Zn831   1.936   .     S
O825   Zn832   1.932   .     S
O826   Zn829   1.926   .     S
O827   Zn830   1.937   .     S
O828   Zn831   1.931   .     S
C833   O889    1.269   .     A
C833   C843    1.438   .     S
C833   O887    1.269   .     A
C834   C835    1.390   .     A
C834   H874    1.078   .     S
C834   C857    1.412   .     A
C835   O883    1.380   .     S
C835   C261    1.413   1_556 S
C836   O888    1.281   .     A
C836   C842    1.455   .     S
C836   O890    1.278   .     A
C837   C838    1.422   .     A
C837   C839    1.406   .     A
C838   C858    1.427   .     A
C838   C841    1.418   .     A
C839   H861    1.081   .     S
C839   C840    1.391   .     A
C840   C852    1.413   .     A
C840   O882    1.383   .     S
C841   O881    1.386   .     S
C841   C852    1.413   .     A
C842   C907    1.334   .     S
C842   H931    1.088   .     S
C844   H872    1.083   .     S
C844   C851    1.399   .     A
C844   C853    1.392   .     A
C845   C848    1.452   .     S
C845   C1038   1.332   .     S
C845   H1061   1.088   .     S
C846   C847    1.436   .     S
C847   O885    1.276   .     A
C847   O891    1.275   .     A
C848   O886    1.272   .     A
C848   O892    1.271   .     A
C849   C852    1.461   .     S
C849   O876    1.273   .     A
C849   O878    1.275   .     A
C850   O877    1.283   .     A
C850   O879    1.285   .     A
C850   C851    1.473   .     S
C851   C854    1.398   .     A
C853   C856    1.409   .     A
C853   H871    1.083   .     S
C854   H873    1.077   .     S
C854   C855    1.409   .     A
C855   C856    1.419   .     A
C855   C857    1.421   .     A
C856   C284    1.404   1_556 S
C857   C282    1.415   1_556 S
C858   C859    1.418   .     A
C859   O884    1.384   .     S
C859   C860    1.416   .     A
C860   O880    1.383   .     S
H862   O880    0.991   .     S
H863   O881    0.989   .     S
H864   O882    0.989   .     S
H865   O883    0.990   .     S
H866   O884    0.991   .     S
H868   C907    1.086   .     S
H870   C1038   1.086   .     S
O875   Zn895   1.936   .     S
O875   Zn896   1.934   .     S
O875   Zn893   1.957   .     S
O875   Zn894   1.940   .     S
O876   Zn894   1.929   .     S
O877   Zn896   1.937   .     S
O878   Zn895   1.931   .     S
O879   Zn893   1.925   .     S
O885   Zn893   1.928   .     S
O886   Zn896   1.932   .     S
O887   Zn894   1.929   .     S
O888   Zn895   1.936   .     S
O889   Zn896   1.932   .     S
O890   Zn893   1.926   .     S
O891   Zn894   1.937   .     S
O892   Zn895   1.931   .     S
C897   O953    1.269   .     A
C897   C907    1.438   .     S
C897   O951    1.269   .     A
C898   C899    1.390   .     A
C898   H938    1.078   .     S
C898   C921    1.412   .     A
C899   O947    1.380   .     S
C899   C325    1.413   1_556 S
C900   O952    1.281   .     A
C900   C906    1.455   .     S
C900   O954    1.278   .     A
C901   C902    1.422   .     A
C901   C903    1.406   .     A
C902   C922    1.427   .     A
C902   C905    1.418   .     A
C903   H925    1.081   .     S
C903   C904    1.391   .     A
C904   C916    1.413   .     A
C904   O946    1.383   .     S
C905   O945    1.386   .     S
C905   C916    1.413   .     A
C906   C779    1.334   1_655 S
C906   H803    1.088   1_655 S
C908   H936    1.083   .     S
C908   C915    1.399   .     A
C908   C917    1.392   .     A
C909   C912    1.452   .     S
C909   C1102   1.332   .     S
C909   H1125   1.088   .     S
C910   C911    1.436   .     S
C911   O949    1.276   .     A
C911   O955    1.275   .     A
C912   O950    1.272   .     A
C912   O956    1.271   .     A
C913   C916    1.461   .     S
C913   O940    1.273   .     A
C913   O942    1.275   .     A
C914   O941    1.283   .     A
C914   O943    1.285   .     A
C914   C915    1.473   .     S
C915   C918    1.398   .     A
C917   C920    1.409   .     A
C917   H935    1.083   .     S
C918   H937    1.077   .     S
C918   C919    1.409   .     A
C919   C920    1.419   .     A
C919   C921    1.421   .     A
C920   C348    1.404   1_556 S
C921   C346    1.415   1_556 S
C922   C923    1.418   .     A
C923   O948    1.384   .     S
C923   C924    1.416   .     A
C924   O944    1.383   .     S
H926   O944    0.991   .     S
H927   O945    0.989   .     S
H928   O946    0.989   .     S
H929   O947    0.990   .     S
H930   O948    0.991   .     S
H932   C779    1.086   1_655 S
H934   C1102   1.086   .     S
O939   Zn959   1.936   .     S
O939   Zn960   1.934   .     S
O939   Zn957   1.957   .     S
O939   Zn958   1.940   .     S
O940   Zn958   1.929   .     S
O941   Zn960   1.937   .     S
O942   Zn959   1.931   .     S
O943   Zn957   1.925   .     S
O949   Zn957   1.928   .     S
O950   Zn960   1.932   .     S
O951   Zn958   1.929   .     S
O952   Zn959   1.936   .     S
O953   Zn960   1.932   .     S
O954   Zn957   1.926   .     S
O955   Zn958   1.937   .     S
O956   Zn959   1.931   .     S
C961   O1017   1.269   .     A
C961   C971    1.438   .     S
C961   O1015   1.269   .     A
C962   C963    1.390   .     A
C962   H1002   1.078   .     S
C962   C985    1.412   .     A
C963   O1011   1.380   .     S
C963   C389    1.413   1_556 S
C964   O1016   1.281   .     A
C964   C970    1.455   .     S
C964   O1018   1.278   .     A
C965   C966    1.422   .     A
C965   C967    1.406   .     A
C966   C986    1.427   .     A
C966   C969    1.418   .     A
C967   H989    1.081   .     S
C967   C968    1.391   .     A
C968   C980    1.413   .     A
C968   O1010   1.383   .     S
C969   O1009   1.386   .     S
C969   C980    1.413   .     A
C970   C1035   1.334   .     S
C970   H1059   1.088   .     S
C971   C1098   1.334   1_455 S
C971   H1124   1.086   1_455 S
C972   H1000   1.083   .     S
C972   C979    1.399   .     A
C972   C981    1.392   .     A
C973   C976    1.452   .     S
C973   C590    1.332   1_565 S
C973   H613    1.088   1_565 S
C974   C975    1.436   .     S
C975   O1013   1.276   .     A
C975   O1019   1.275   .     A
C976   O1014   1.272   .     A
C976   O1020   1.271   .     A
C977   C980    1.461   .     S
C977   O1004   1.273   .     A
C977   O1006   1.275   .     A
C978   O1005   1.283   .     A
C978   O1007   1.285   .     A
C978   C979    1.473   .     S
C979   C982    1.398   .     A
C981   C984    1.409   .     A
C981   H999    1.083   .     S
C982   H1001   1.077   .     S
C982   C983    1.409   .     A
C983   C984    1.419   .     A
C983   C985    1.421   .     A
C984   C412    1.404   1_556 S
C985   C410    1.415   1_556 S
C986   C987    1.418   .     A
C987   O1012   1.384   .     S
C987   C988    1.416   .     A
C988   O1008   1.383   .     S
H990   O1008   0.991   .     S
H991   O1009   0.989   .     S
H992   O1010   0.989   .     S
H993   O1011   0.990   .     S
H994   O1012   0.991   .     S
H995   C1098   1.088   1_455 S
H996   C1035   1.086   .     S
H998   C590    1.086   1_565 S
O1003  Zn1023  1.936   .     S
O1003  Zn1024  1.934   .     S
O1003  Zn1021  1.957   .     S
O1003  Zn1022  1.940   .     S
O1004  Zn1022  1.929   .     S
O1005  Zn1024  1.937   .     S
O1006  Zn1023  1.931   .     S
O1007  Zn1021  1.925   .     S
O1013  Zn1021  1.928   .     S
O1014  Zn1024  1.932   .     S
O1015  Zn1022  1.929   .     S
O1016  Zn1023  1.936   .     S
O1017  Zn1024  1.932   .     S
O1018  Zn1021  1.926   .     S
O1019  Zn1022  1.937   .     S
O1020  Zn1023  1.931   .     S
C1025  O1081   1.269   .     A
C1025  C1035   1.438   .     S
C1025  O1079   1.269   .     A
C1026  C1027   1.390   .     A
C1026  H1066   1.078   .     S
C1026  C1049   1.412   .     A
C1027  O1075   1.380   .     S
C1027  C453    1.413   1_556 S
C1028  O1080   1.281   .     A
C1028  C1034   1.455   .     S
C1028  O1082   1.278   .     A
C1029  C1030   1.422   .     A
C1029  C1031   1.406   .     A
C1030  C1050   1.427   .     A
C1030  C1033   1.418   .     A
C1031  H1053   1.081   .     S
C1031  C1032   1.391   .     A
C1032  C1044   1.413   .     A
C1032  O1074   1.383   .     S
C1033  O1073   1.386   .     S
C1033  C1044   1.413   .     A
C1034  C1099   1.334   .     S
C1034  H1123   1.088   .     S
C1036  H1064   1.083   .     S
C1036  C1043   1.399   .     A
C1036  C1045   1.392   .     A
C1037  C1040   1.452   .     S
C1037  C654    1.332   1_565 S
C1037  H677    1.088   1_565 S
C1038  C1039   1.436   .     S
C1039  O1077   1.276   .     A
C1039  O1083   1.275   .     A
C1040  O1078   1.272   .     A
C1040  O1084   1.271   .     A
C1041  C1044   1.461   .     S
C1041  O1068   1.273   .     A
C1041  O1070   1.275   .     A
C1042  O1069   1.283   .     A
C1042  O1071   1.285   .     A
C1042  C1043   1.473   .     S
C1043  C1046   1.398   .     A
C1045  C1048   1.409   .     A
C1045  H1063   1.083   .     S
C1046  H1065   1.077   .     S
C1046  C1047   1.409   .     A
C1047  C1048   1.419   .     A
C1047  C1049   1.421   .     A
C1048  C476    1.404   1_556 S
C1049  C474    1.415   1_556 S
C1050  C1051   1.418   .     A
C1051  O1076   1.384   .     S
C1051  C1052   1.416   .     A
C1052  O1072   1.383   .     S
H1054  O1072   0.991   .     S
H1055  O1073   0.989   .     S
H1056  O1074   0.989   .     S
H1057  O1075   0.990   .     S
H1058  O1076   0.991   .     S
H1060  C1099   1.086   .     S
H1062  C654    1.086   1_565 S
O1067  Zn1087  1.936   .     S
O1067  Zn1088  1.934   .     S
O1067  Zn1085  1.957   .     S
O1067  Zn1086  1.940   .     S
O1068  Zn1086  1.929   .     S
O1069  Zn1088  1.937   .     S
O1070  Zn1087  1.931   .     S
O1071  Zn1085  1.925   .     S
O1077  Zn1085  1.928   .     S
O1078  Zn1088  1.932   .     S
O1079  Zn1086  1.929   .     S
O1080  Zn1087  1.936   .     S
O1081  Zn1088  1.932   .     S
O1082  Zn1085  1.926   .     S
O1083  Zn1086  1.937   .     S
O1084  Zn1087  1.931   .     S
C1089  O1145   1.269   .     A
C1089  C1099   1.438   .     S
C1089  O1143   1.269   .     A
C1090  C1091   1.390   .     A
C1090  H1130   1.078   .     S
C1090  C1113   1.412   .     A
C1091  O1139   1.380   .     S
C1091  C517    1.413   1_556 S
C1092  O1144   1.281   .     A
C1092  C1098   1.455   .     S
C1092  O1146   1.278   .     A
C1093  C1094   1.422   .     A
C1093  C1095   1.406   .     A
C1094  C1114   1.427   .     A
C1094  C1097   1.418   .     A
C1095  H1117   1.081   .     S
C1095  C1096   1.391   .     A
C1096  C1108   1.413   .     A
C1096  O1138   1.383   .     S
C1097  O1137   1.386   .     S
C1097  C1108   1.413   .     A
C1098  C971    1.334   1_655 S
C1098  H995    1.088   1_655 S
C1100  H1128   1.083   .     S
C1100  C1107   1.399   .     A
C1100  C1109   1.392   .     A
C1101  C1104   1.452   .     S
C1101  C718    1.332   1_565 S
C1101  H741    1.088   1_565 S
C1102  C1103   1.436   .     S
C1103  O1141   1.276   .     A
C1103  O1147   1.275   .     A
C1104  O1142   1.272   .     A
C1104  O1148   1.271   .     A
C1105  C1108   1.461   .     S
C1105  O1132   1.273   .     A
C1105  O1134   1.275   .     A
C1106  O1133   1.283   .     A
C1106  O1135   1.285   .     A
C1106  C1107   1.473   .     S
C1107  C1110   1.398   .     A
C1109  C1112   1.409   .     A
C1109  H1127   1.083   .     S
C1110  H1129   1.077   .     S
C1110  C1111   1.409   .     A
C1111  C1112   1.419   .     A
C1111  C1113   1.421   .     A
C1112  C540    1.404   1_556 S
C1113  C538    1.415   1_556 S
C1114  C1115   1.418   .     A
C1115  O1140   1.384   .     S
C1115  C1116   1.416   .     A
C1116  O1136   1.383   .     S
H1118  O1136   0.991   .     S
H1119  O1137   0.989   .     S
H1120  O1138   0.989   .     S
H1121  O1139   0.990   .     S
H1122  O1140   0.991   .     S
H1124  C971    1.086   1_655 S
H1126  C718    1.086   1_565 S
O1131  Zn1151  1.936   .     S
O1131  Zn1152  1.934   .     S
O1131  Zn1149  1.957   .     S
O1131  Zn1150  1.940   .     S
O1132  Zn1150  1.929   .     S
O1133  Zn1152  1.937   .     S
O1134  Zn1151  1.931   .     S
O1135  Zn1149  1.925   .     S
O1141  Zn1149  1.928   .     S
O1142  Zn1152  1.932   .     S
O1143  Zn1150  1.929   .     S
O1144  Zn1151  1.936   .     S
O1145  Zn1152  1.932   .     S
O1146  Zn1149  1.926   .     S
O1147  Zn1150  1.937   .     S
O1148  Zn1151  1.931   .     S
