data_str_m2_o1_o17_pcu_sym.55
_audit_creation_date              2020-01-03
_audit_creation_method            'Materials Studio'
_symmetry_space_group_name_H-M    'P1'
_symmetry_Int_Tables_number       1
_symmetry_cell_setting            triclinic
loop_
_symmetry_equiv_pos_as_xyz
  x,y,z
_cell_length_a                    32.9288
_cell_length_b                    29.2587
_cell_length_c                    30.0156
_cell_angle_alpha                 90.4287
_cell_angle_beta                  88.6892
_cell_angle_gamma                 87.2865
loop_
_atom_site_label
_atom_site_type_symbol
_atom_site_fract_x
_atom_site_fract_y
_atom_site_fract_z
_atom_site_U_iso_or_equiv
_atom_site_adp_type
_atom_site_occupancy
C1     C     0.08748   0.16761   0.25327   0.00000  Uiso   1.00
C2     C     0.04240   0.16880   0.25660   0.00000  Uiso   1.00
C3     C     0.16923   0.02342   0.21102   0.00000  Uiso   1.00
C4     C     0.16436   0.31001   0.28894   0.00000  Uiso   1.00
C5     C     0.17235   0.02385   0.28837   0.00000  Uiso   1.00
C6     C     0.16122   0.30958   0.21161   0.00000  Uiso   1.00
C7     C     0.16611   0.16634   0.16465   0.00000  Uiso   1.00
C8     C     0.16673   0.16675   0.33532   0.00000  Uiso   1.00
C9     C     0.20414   0.16497   0.40579   0.00000  Uiso   1.00
C10    C     0.12931   0.15556   0.09432   0.00000  Uiso   1.00
C11    C     0.16686   0.16610   0.38383   0.00000  Uiso   1.00
C12    C     0.24591   0.16580   0.24717   0.00000  Uiso   1.00
C13    C     0.16584   0.16423   0.11606   0.00000  Uiso   1.00
C14    C     0.13007   0.16141   0.40750   0.00000  Uiso   1.00
C15    C     0.20312   0.16363   0.09233   0.00000  Uiso   1.00
C16    C     0.13043   0.15478   0.45372   0.00000  Uiso   1.00
C17    C     0.20371   0.15851   0.04586   0.00000  Uiso   1.00
C18    C     0.16741   0.15516   0.47627   0.00000  Uiso   1.00
C19    C     0.16695   0.15421   0.02336   0.00000  Uiso   1.00
C20    C     0.20477   0.15624   0.45202   0.00000  Uiso   1.00
C21    C     0.13004   0.14819   0.04755   0.00000  Uiso   1.00
C22    C     0.09523   0.14371   0.47746   0.00000  Uiso   1.00
C23    C     0.09585   0.13544   0.02309   0.00000  Uiso   1.00
C24    C     0.24050   0.15381   0.02144   0.00000  Uiso   1.00
C25    C     0.24102   0.14768   0.47544   0.00000  Uiso   1.00
C26    C     0.02262   0.12738   0.26317   0.00000  Uiso   1.00
C27    C     0.31077   0.20668   0.23866   0.00000  Uiso   1.00
C28    C     0.31491   0.12466   0.25304   0.00000  Uiso   1.00
C29    C     0.01862   0.20928   0.24833   0.00000  Uiso   1.00
C30    C     0.29105   0.16502   0.24462   0.00000  Uiso   1.00
Cu31   Cu    0.16667   0.21355   0.25000   0.00000  Uiso   1.00
Cu32   Cu    0.16667   0.11978   0.25000   0.00000  Uiso   1.00
H33    H     0.06805   0.13622   0.46004   0.00000  Uiso   1.00
H34    H     0.26919   0.14997   0.03797   0.00000  Uiso   1.00
H35    H     0.03604   0.03465   0.01424   0.00000  Uiso   1.00
H36    H     0.00618   0.12486   0.42138   0.00000  Uiso   1.00
H37    H     0.14227   0.06930   0.13572   0.00000  Uiso   1.00
H38    H     0.15160   0.26835   0.40317   0.00000  Uiso   1.00
H39    H     0.26173   0.07017   0.33250   0.00000  Uiso   1.00
H40    H     0.07357   0.26105   0.16195   0.00000  Uiso   1.00
I41    I     0.25606   0.18906   0.37003   0.00000  Uiso   1.00
I42    I     0.07369   0.16178   0.13315   0.00000  Uiso   1.00
I43    I     0.07389   0.16988   0.37365   0.00000  Uiso   1.00
I44    I     0.25861   0.17007   0.12718   0.00000  Uiso   1.00
I45    I     0.05081   0.07021   0.29778   0.00000  Uiso   1.00
I46    I     0.28230   0.26493   0.20590   0.00000  Uiso   1.00
I47    I     0.29514   0.05747   0.23961   0.00000  Uiso   1.00
I48    I     0.03929   0.27659   0.26017   0.00000  Uiso   1.00
N49    N     0.16667   0.28402   0.25000   0.00000  Uiso   1.00
N50    N     0.16667   0.04931   0.25000   0.00000  Uiso   1.00
O51    O     0.10655   0.20625   0.24999   0.00000  Uiso   1.00
O52    O     0.02089   0.12054   0.05550   0.00000  Uiso   1.00
O53    O     0.05160   0.05916   0.00029   0.00000  Uiso   1.00
O54    O     0.29601   0.07916   0.48794   0.00000  Uiso   1.00
O55    O     0.26935   0.08703   0.41315   0.00000  Uiso   1.00
O56    O     0.32116   0.14547   0.43978   0.00000  Uiso   1.00
O57    O     0.22771   0.07458   0.17241   0.00000  Uiso   1.00
O58    O     0.22201   0.33080   0.14504   0.00000  Uiso   1.00
O59    O     0.16780   0.05734   0.12107   0.00000  Uiso   1.00
O60    O     0.11403   0.00204   0.35767   0.00000  Uiso   1.00
O61    O     0.10605   0.25966   0.32758   0.00000  Uiso   1.00
O62    O     0.22679   0.12709   0.25000   0.00000  Uiso   1.00
O63    O     0.16885   0.27300   0.37627   0.00000  Uiso   1.00
O64    O     0.17565   0.05763   0.37250   0.00000  Uiso   1.00
O65    O     0.22729   0.33289   0.34941   0.00000  Uiso   1.00
O66    O     0.23506   0.08134   0.32132   0.00000  Uiso   1.00
O67    O     0.10619   0.00064   0.15067   0.00000  Uiso   1.00
O68    O     0.15784   0.27568   0.12763   0.00000  Uiso   1.00
O69    O     0.09815   0.25323   0.17929   0.00000  Uiso   1.00
O70    O     0.22679   0.20625   0.25000   0.00000  Uiso   1.00
O71    O     0.10655   0.12709   0.24999   0.00000  Uiso   1.00
O72    O     0.16666   0.20627   0.18513   0.00000  Uiso   1.00
O73    O     0.16668   0.12707   0.31487   0.00000  Uiso   1.00
O74    O     0.16668   0.20627   0.31487   0.00000  Uiso   1.00
O75    O     0.16666   0.12707   0.18513   0.00000  Uiso   1.00
O76    O     0.07676   0.06866   0.08067   0.00000  Uiso   1.00
S77    S     0.06035   0.09573   0.04214   0.00000  Uiso   1.00
S78    S     0.28222   0.11299   0.45334   0.00000  Uiso   1.00
S79    S     0.19798   0.03901   0.16242   0.00000  Uiso   1.00
S80    S     0.13673   0.29403   0.33789   0.00000  Uiso   1.00
S81    S     0.20256   0.04083   0.33411   0.00000  Uiso   1.00
S82    S     0.13103   0.29287   0.16596   0.00000  Uiso   1.00
C83    C     0.42082   0.16761   0.25327   0.00000  Uiso   1.00
C84    C     0.37573   0.16880   0.25660   0.00000  Uiso   1.00
C85    C     0.50256   0.02342   0.21102   0.00000  Uiso   1.00
C86    C     0.49770   0.31001   0.28894   0.00000  Uiso   1.00
C87    C     0.50568   0.02385   0.28837   0.00000  Uiso   1.00
C88    C     0.49455   0.30958   0.21161   0.00000  Uiso   1.00
C89    C     0.49944   0.16634   0.16465   0.00000  Uiso   1.00
C90    C     0.50007   0.16675   0.33532   0.00000  Uiso   1.00
C91    C     0.53747   0.16497   0.40579   0.00000  Uiso   1.00
C92    C     0.46265   0.15556   0.09432   0.00000  Uiso   1.00
C93    C     0.50019   0.16610   0.38383   0.00000  Uiso   1.00
C94    C     0.57925   0.16580   0.24717   0.00000  Uiso   1.00
C95    C     0.49917   0.16423   0.11606   0.00000  Uiso   1.00
C96    C     0.46340   0.16141   0.40750   0.00000  Uiso   1.00
C97    C     0.53646   0.16363   0.09233   0.00000  Uiso   1.00
C98    C     0.46376   0.15478   0.45372   0.00000  Uiso   1.00
C99    C     0.53704   0.15851   0.04586   0.00000  Uiso   1.00
C100   C     0.50074   0.15516   0.47627   0.00000  Uiso   1.00
C101   C     0.50028   0.15421   0.02336   0.00000  Uiso   1.00
C102   C     0.53811   0.15624   0.45202   0.00000  Uiso   1.00
C103   C     0.46338   0.14819   0.04755   0.00000  Uiso   1.00
C104   C     0.42857   0.14371   0.47746   0.00000  Uiso   1.00
C105   C     0.42918   0.13544   0.02309   0.00000  Uiso   1.00
C106   C     0.57383   0.15381   0.02144   0.00000  Uiso   1.00
C107   C     0.57436   0.14768   0.47544   0.00000  Uiso   1.00
C108   C     0.35595   0.12738   0.26317   0.00000  Uiso   1.00
C109   C     0.64410   0.20668   0.23866   0.00000  Uiso   1.00
C110   C     0.64824   0.12466   0.25304   0.00000  Uiso   1.00
C111   C     0.35195   0.20928   0.24833   0.00000  Uiso   1.00
C112   C     0.62438   0.16502   0.24462   0.00000  Uiso   1.00
Cu113  Cu    0.50000   0.21355   0.25000   0.00000  Uiso   1.00
Cu114  Cu    0.50000   0.11978   0.25000   0.00000  Uiso   1.00
H115   H     0.40138   0.13622   0.46004   0.00000  Uiso   1.00
H116   H     0.60253   0.14997   0.03797   0.00000  Uiso   1.00
H117   H     0.36938   0.03465   0.01424   0.00000  Uiso   1.00
H118   H     0.33952   0.12486   0.42138   0.00000  Uiso   1.00
H119   H     0.47560   0.06930   0.13572   0.00000  Uiso   1.00
H120   H     0.48493   0.26835   0.40317   0.00000  Uiso   1.00
H121   H     0.59506   0.07017   0.33250   0.00000  Uiso   1.00
H122   H     0.40690   0.26105   0.16195   0.00000  Uiso   1.00
I123   I     0.58940   0.18906   0.37003   0.00000  Uiso   1.00
I124   I     0.40703   0.16178   0.13315   0.00000  Uiso   1.00
I125   I     0.40722   0.16988   0.37365   0.00000  Uiso   1.00
I126   I     0.59194   0.17007   0.12718   0.00000  Uiso   1.00
I127   I     0.38415   0.07021   0.29778   0.00000  Uiso   1.00
I128   I     0.61563   0.26493   0.20590   0.00000  Uiso   1.00
I129   I     0.62847   0.05747   0.23961   0.00000  Uiso   1.00
I130   I     0.37263   0.27659   0.26017   0.00000  Uiso   1.00
N131   N     0.50000   0.28402   0.25000   0.00000  Uiso   1.00
N132   N     0.50000   0.04931   0.25000   0.00000  Uiso   1.00
O133   O     0.43988   0.20625   0.24999   0.00000  Uiso   1.00
O134   O     0.35422   0.12054   0.05550   0.00000  Uiso   1.00
O135   O     0.38493   0.05916   0.00029   0.00000  Uiso   1.00
O136   O     0.62935   0.07916   0.48794   0.00000  Uiso   1.00
O137   O     0.60269   0.08703   0.41315   0.00000  Uiso   1.00
O138   O     0.65449   0.14547   0.43978   0.00000  Uiso   1.00
O139   O     0.56104   0.07458   0.17241   0.00000  Uiso   1.00
O140   O     0.55534   0.33080   0.14504   0.00000  Uiso   1.00
O141   O     0.50113   0.05734   0.12107   0.00000  Uiso   1.00
O142   O     0.44737   0.00204   0.35767   0.00000  Uiso   1.00
O143   O     0.43938   0.25966   0.32758   0.00000  Uiso   1.00
O144   O     0.56012   0.12709   0.25000   0.00000  Uiso   1.00
O145   O     0.50219   0.27300   0.37627   0.00000  Uiso   1.00
O146   O     0.50899   0.05763   0.37250   0.00000  Uiso   1.00
O147   O     0.56063   0.33289   0.34941   0.00000  Uiso   1.00
O148   O     0.56840   0.08134   0.32132   0.00000  Uiso   1.00
O149   O     0.43952   0.00064   0.15067   0.00000  Uiso   1.00
O150   O     0.49117   0.27568   0.12763   0.00000  Uiso   1.00
O151   O     0.43148   0.25323   0.17929   0.00000  Uiso   1.00
O152   O     0.56012   0.20625   0.25000   0.00000  Uiso   1.00
O153   O     0.43988   0.12709   0.24999   0.00000  Uiso   1.00
O154   O     0.49999   0.20627   0.18513   0.00000  Uiso   1.00
O155   O     0.50001   0.12707   0.31487   0.00000  Uiso   1.00
O156   O     0.50001   0.20627   0.31487   0.00000  Uiso   1.00
O157   O     0.49999   0.12707   0.18513   0.00000  Uiso   1.00
O158   O     0.41009   0.06866   0.08067   0.00000  Uiso   1.00
S159   S     0.39368   0.09573   0.04214   0.00000  Uiso   1.00
S160   S     0.61556   0.11299   0.45334   0.00000  Uiso   1.00
S161   S     0.53131   0.03901   0.16242   0.00000  Uiso   1.00
S162   S     0.47006   0.29403   0.33789   0.00000  Uiso   1.00
S163   S     0.53589   0.04083   0.33411   0.00000  Uiso   1.00
S164   S     0.46437   0.29287   0.16596   0.00000  Uiso   1.00
C165   C     0.75415   0.16761   0.25327   0.00000  Uiso   1.00
C166   C     0.70907   0.16880   0.25660   0.00000  Uiso   1.00
C167   C     0.83590   0.02342   0.21102   0.00000  Uiso   1.00
C168   C     0.83103   0.31001   0.28894   0.00000  Uiso   1.00
C169   C     0.83902   0.02385   0.28837   0.00000  Uiso   1.00
C170   C     0.82789   0.30958   0.21161   0.00000  Uiso   1.00
C171   C     0.83278   0.16634   0.16465   0.00000  Uiso   1.00
C172   C     0.83340   0.16675   0.33532   0.00000  Uiso   1.00
C173   C     0.87080   0.16497   0.40579   0.00000  Uiso   1.00
C174   C     0.79598   0.15556   0.09432   0.00000  Uiso   1.00
C175   C     0.83352   0.16610   0.38383   0.00000  Uiso   1.00
C176   C     0.91258   0.16580   0.24717   0.00000  Uiso   1.00
C177   C     0.83251   0.16423   0.11606   0.00000  Uiso   1.00
C178   C     0.79673   0.16141   0.40750   0.00000  Uiso   1.00
C179   C     0.86979   0.16363   0.09233   0.00000  Uiso   1.00
C180   C     0.79710   0.15478   0.45372   0.00000  Uiso   1.00
C181   C     0.87038   0.15851   0.04586   0.00000  Uiso   1.00
C182   C     0.83407   0.15516   0.47627   0.00000  Uiso   1.00
C183   C     0.83361   0.15421   0.02336   0.00000  Uiso   1.00
C184   C     0.87144   0.15624   0.45202   0.00000  Uiso   1.00
C185   C     0.79671   0.14819   0.04755   0.00000  Uiso   1.00
C186   C     0.76190   0.14371   0.47746   0.00000  Uiso   1.00
C187   C     0.76252   0.13544   0.02309   0.00000  Uiso   1.00
C188   C     0.90716   0.15381   0.02144   0.00000  Uiso   1.00
C189   C     0.90769   0.14768   0.47544   0.00000  Uiso   1.00
C190   C     0.68928   0.12738   0.26317   0.00000  Uiso   1.00
C191   C     0.97743   0.20668   0.23866   0.00000  Uiso   1.00
C192   C     0.98158   0.12466   0.25304   0.00000  Uiso   1.00
C193   C     0.68529   0.20928   0.24833   0.00000  Uiso   1.00
C194   C     0.95772   0.16502   0.24462   0.00000  Uiso   1.00
Cu195  Cu    0.83333   0.21355   0.25000   0.00000  Uiso   1.00
Cu196  Cu    0.83333   0.11978   0.25000   0.00000  Uiso   1.00
H197   H     0.73472   0.13622   0.46004   0.00000  Uiso   1.00
H198   H     0.93586   0.14997   0.03797   0.00000  Uiso   1.00
H199   H     0.70271   0.03465   0.01424   0.00000  Uiso   1.00
H200   H     0.67285   0.12486   0.42138   0.00000  Uiso   1.00
H201   H     0.80894   0.06930   0.13572   0.00000  Uiso   1.00
H202   H     0.81826   0.26835   0.40317   0.00000  Uiso   1.00
H203   H     0.92839   0.07017   0.33250   0.00000  Uiso   1.00
H204   H     0.74023   0.26105   0.16195   0.00000  Uiso   1.00
I205   I     0.92273   0.18906   0.37003   0.00000  Uiso   1.00
I206   I     0.74036   0.16178   0.13315   0.00000  Uiso   1.00
I207   I     0.74056   0.16988   0.37365   0.00000  Uiso   1.00
I208   I     0.92527   0.17007   0.12718   0.00000  Uiso   1.00
I209   I     0.71748   0.07021   0.29778   0.00000  Uiso   1.00
I210   I     0.94896   0.26493   0.20590   0.00000  Uiso   1.00
I211   I     0.96181   0.05747   0.23961   0.00000  Uiso   1.00
I212   I     0.70596   0.27659   0.26017   0.00000  Uiso   1.00
N213   N     0.83333   0.28402   0.25000   0.00000  Uiso   1.00
N214   N     0.83333   0.04931   0.25000   0.00000  Uiso   1.00
O215   O     0.77321   0.20625   0.24999   0.00000  Uiso   1.00
O216   O     0.68755   0.12054   0.05550   0.00000  Uiso   1.00
O217   O     0.71826   0.05916   0.00029   0.00000  Uiso   1.00
O218   O     0.96268   0.07916   0.48794   0.00000  Uiso   1.00
O219   O     0.93602   0.08703   0.41315   0.00000  Uiso   1.00
O220   O     0.98782   0.14547   0.43978   0.00000  Uiso   1.00
O221   O     0.89438   0.07458   0.17241   0.00000  Uiso   1.00
O222   O     0.88867   0.33080   0.14504   0.00000  Uiso   1.00
O223   O     0.83447   0.05734   0.12107   0.00000  Uiso   1.00
O224   O     0.78070   0.00204   0.35767   0.00000  Uiso   1.00
O225   O     0.77271   0.25966   0.32758   0.00000  Uiso   1.00
O226   O     0.89345   0.12709   0.25000   0.00000  Uiso   1.00
O227   O     0.83552   0.27300   0.37627   0.00000  Uiso   1.00
O228   O     0.84232   0.05763   0.37250   0.00000  Uiso   1.00
O229   O     0.89396   0.33289   0.34941   0.00000  Uiso   1.00
O230   O     0.90173   0.08134   0.32132   0.00000  Uiso   1.00
O231   O     0.77286   0.00064   0.15067   0.00000  Uiso   1.00
O232   O     0.82450   0.27568   0.12763   0.00000  Uiso   1.00
O233   O     0.76481   0.25323   0.17929   0.00000  Uiso   1.00
O234   O     0.89345   0.20625   0.25000   0.00000  Uiso   1.00
O235   O     0.77321   0.12709   0.24999   0.00000  Uiso   1.00
O236   O     0.83332   0.20627   0.18513   0.00000  Uiso   1.00
O237   O     0.83334   0.12707   0.31487   0.00000  Uiso   1.00
O238   O     0.83334   0.20627   0.31487   0.00000  Uiso   1.00
O239   O     0.83332   0.12707   0.18513   0.00000  Uiso   1.00
O240   O     0.74342   0.06866   0.08067   0.00000  Uiso   1.00
S241   S     0.72701   0.09573   0.04214   0.00000  Uiso   1.00
S242   S     0.94889   0.11299   0.45334   0.00000  Uiso   1.00
S243   S     0.86464   0.03901   0.16242   0.00000  Uiso   1.00
S244   S     0.80340   0.29403   0.33789   0.00000  Uiso   1.00
S245   S     0.86923   0.04083   0.33411   0.00000  Uiso   1.00
S246   S     0.79770   0.29287   0.16596   0.00000  Uiso   1.00
C247   C     0.08748   0.50094   0.25327   0.00000  Uiso   1.00
C248   C     0.04240   0.50213   0.25660   0.00000  Uiso   1.00
C249   C     0.16923   0.35675   0.21102   0.00000  Uiso   1.00
C250   C     0.16436   0.64334   0.28894   0.00000  Uiso   1.00
C251   C     0.17235   0.35719   0.28837   0.00000  Uiso   1.00
C252   C     0.16122   0.64292   0.21161   0.00000  Uiso   1.00
C253   C     0.16611   0.49967   0.16465   0.00000  Uiso   1.00
C254   C     0.16673   0.50008   0.33532   0.00000  Uiso   1.00
C255   C     0.20414   0.49830   0.40579   0.00000  Uiso   1.00
C256   C     0.12931   0.48890   0.09432   0.00000  Uiso   1.00
C257   C     0.16686   0.49943   0.38383   0.00000  Uiso   1.00
C258   C     0.24591   0.49914   0.24717   0.00000  Uiso   1.00
C259   C     0.16584   0.49756   0.11606   0.00000  Uiso   1.00
C260   C     0.13007   0.49474   0.40750   0.00000  Uiso   1.00
C261   C     0.20312   0.49696   0.09233   0.00000  Uiso   1.00
C262   C     0.13043   0.48812   0.45372   0.00000  Uiso   1.00
C263   C     0.20371   0.49184   0.04586   0.00000  Uiso   1.00
C264   C     0.16741   0.48849   0.47627   0.00000  Uiso   1.00
C265   C     0.16695   0.48755   0.02336   0.00000  Uiso   1.00
C266   C     0.20477   0.48957   0.45202   0.00000  Uiso   1.00
C267   C     0.13004   0.48153   0.04755   0.00000  Uiso   1.00
C268   C     0.09523   0.47705   0.47746   0.00000  Uiso   1.00
C269   C     0.09585   0.46877   0.02309   0.00000  Uiso   1.00
C270   C     0.24050   0.48715   0.02144   0.00000  Uiso   1.00
C271   C     0.24102   0.48101   0.47544   0.00000  Uiso   1.00
C272   C     0.02262   0.46072   0.26317   0.00000  Uiso   1.00
C273   C     0.31077   0.54002   0.23866   0.00000  Uiso   1.00
C274   C     0.31491   0.45799   0.25304   0.00000  Uiso   1.00
C275   C     0.01862   0.54262   0.24833   0.00000  Uiso   1.00
C276   C     0.29105   0.49835   0.24462   0.00000  Uiso   1.00
Cu277  Cu    0.16667   0.54689   0.25000   0.00000  Uiso   1.00
Cu278  Cu    0.16667   0.45311   0.25000   0.00000  Uiso   1.00
H279   H     0.06805   0.46956   0.46004   0.00000  Uiso   1.00
H280   H     0.26919   0.48331   0.03797   0.00000  Uiso   1.00
H281   H     0.03604   0.36799   0.01424   0.00000  Uiso   1.00
H282   H     0.00618   0.45820   0.42138   0.00000  Uiso   1.00
H283   H     0.14227   0.40263   0.13572   0.00000  Uiso   1.00
H284   H     0.15160   0.60168   0.40317   0.00000  Uiso   1.00
H285   H     0.26173   0.40351   0.33250   0.00000  Uiso   1.00
H286   H     0.07357   0.59438   0.16195   0.00000  Uiso   1.00
I287   I     0.25606   0.52240   0.37003   0.00000  Uiso   1.00
I288   I     0.07369   0.49511   0.13315   0.00000  Uiso   1.00
I289   I     0.07389   0.50321   0.37365   0.00000  Uiso   1.00
I290   I     0.25861   0.50340   0.12718   0.00000  Uiso   1.00
I291   I     0.05081   0.40354   0.29778   0.00000  Uiso   1.00
I292   I     0.28230   0.59826   0.20590   0.00000  Uiso   1.00
I293   I     0.29514   0.39080   0.23961   0.00000  Uiso   1.00
I294   I     0.03929   0.60992   0.26017   0.00000  Uiso   1.00
N295   N     0.16667   0.61736   0.25000   0.00000  Uiso   1.00
N296   N     0.16667   0.38264   0.25000   0.00000  Uiso   1.00
O297   O     0.10655   0.53958   0.24999   0.00000  Uiso   1.00
O298   O     0.02089   0.45388   0.05550   0.00000  Uiso   1.00
O299   O     0.05160   0.39249   0.00029   0.00000  Uiso   1.00
O300   O     0.29601   0.41249   0.48794   0.00000  Uiso   1.00
O301   O     0.26935   0.42037   0.41315   0.00000  Uiso   1.00
O302   O     0.32116   0.47880   0.43978   0.00000  Uiso   1.00
O303   O     0.22771   0.40791   0.17241   0.00000  Uiso   1.00
O304   O     0.22201   0.66414   0.14504   0.00000  Uiso   1.00
O305   O     0.16780   0.39067   0.12107   0.00000  Uiso   1.00
O306   O     0.11403   0.33538   0.35767   0.00000  Uiso   1.00
O307   O     0.10605   0.59299   0.32758   0.00000  Uiso   1.00
O308   O     0.22679   0.46042   0.25000   0.00000  Uiso   1.00
O309   O     0.16885   0.60634   0.37627   0.00000  Uiso   1.00
O310   O     0.17565   0.39096   0.37250   0.00000  Uiso   1.00
O311   O     0.22729   0.66622   0.34941   0.00000  Uiso   1.00
O312   O     0.23506   0.41468   0.32132   0.00000  Uiso   1.00
O313   O     0.10619   0.33397   0.15067   0.00000  Uiso   1.00
O314   O     0.15784   0.60902   0.12763   0.00000  Uiso   1.00
O315   O     0.09815   0.58656   0.17929   0.00000  Uiso   1.00
O316   O     0.22679   0.53958   0.25000   0.00000  Uiso   1.00
O317   O     0.10655   0.46042   0.24999   0.00000  Uiso   1.00
O318   O     0.16666   0.53960   0.18513   0.00000  Uiso   1.00
O319   O     0.16668   0.46040   0.31487   0.00000  Uiso   1.00
O320   O     0.16668   0.53960   0.31487   0.00000  Uiso   1.00
O321   O     0.16666   0.46040   0.18513   0.00000  Uiso   1.00
O322   O     0.07676   0.40199   0.08067   0.00000  Uiso   1.00
S323   S     0.06035   0.42906   0.04214   0.00000  Uiso   1.00
S324   S     0.28222   0.44632   0.45334   0.00000  Uiso   1.00
S325   S     0.19798   0.37234   0.16242   0.00000  Uiso   1.00
S326   S     0.13673   0.62736   0.33789   0.00000  Uiso   1.00
S327   S     0.20256   0.37417   0.33411   0.00000  Uiso   1.00
S328   S     0.13103   0.62621   0.16596   0.00000  Uiso   1.00
C329   C     0.42082   0.50094   0.25327   0.00000  Uiso   1.00
C330   C     0.37573   0.50213   0.25660   0.00000  Uiso   1.00
C331   C     0.50256   0.35675   0.21102   0.00000  Uiso   1.00
C332   C     0.49770   0.64334   0.28894   0.00000  Uiso   1.00
C333   C     0.50568   0.35719   0.28837   0.00000  Uiso   1.00
C334   C     0.49455   0.64292   0.21161   0.00000  Uiso   1.00
C335   C     0.49944   0.49967   0.16465   0.00000  Uiso   1.00
C336   C     0.50007   0.50008   0.33532   0.00000  Uiso   1.00
C337   C     0.53747   0.49830   0.40579   0.00000  Uiso   1.00
C338   C     0.46265   0.48890   0.09432   0.00000  Uiso   1.00
C339   C     0.50019   0.49943   0.38383   0.00000  Uiso   1.00
C340   C     0.57925   0.49914   0.24717   0.00000  Uiso   1.00
C341   C     0.49917   0.49756   0.11606   0.00000  Uiso   1.00
C342   C     0.46340   0.49474   0.40750   0.00000  Uiso   1.00
C343   C     0.53646   0.49696   0.09233   0.00000  Uiso   1.00
C344   C     0.46376   0.48812   0.45372   0.00000  Uiso   1.00
C345   C     0.53704   0.49184   0.04586   0.00000  Uiso   1.00
C346   C     0.50074   0.48849   0.47627   0.00000  Uiso   1.00
C347   C     0.50028   0.48755   0.02336   0.00000  Uiso   1.00
C348   C     0.53811   0.48957   0.45202   0.00000  Uiso   1.00
C349   C     0.46338   0.48153   0.04755   0.00000  Uiso   1.00
C350   C     0.42857   0.47705   0.47746   0.00000  Uiso   1.00
C351   C     0.42918   0.46877   0.02309   0.00000  Uiso   1.00
C352   C     0.57383   0.48715   0.02144   0.00000  Uiso   1.00
C353   C     0.57436   0.48101   0.47544   0.00000  Uiso   1.00
C354   C     0.35595   0.46072   0.26317   0.00000  Uiso   1.00
C355   C     0.64410   0.54002   0.23866   0.00000  Uiso   1.00
C356   C     0.64824   0.45799   0.25304   0.00000  Uiso   1.00
C357   C     0.35195   0.54262   0.24833   0.00000  Uiso   1.00
C358   C     0.62438   0.49835   0.24462   0.00000  Uiso   1.00
Cu359  Cu    0.50000   0.54689   0.25000   0.00000  Uiso   1.00
Cu360  Cu    0.50000   0.45311   0.25000   0.00000  Uiso   1.00
H361   H     0.40138   0.46956   0.46004   0.00000  Uiso   1.00
H362   H     0.60253   0.48331   0.03797   0.00000  Uiso   1.00
H363   H     0.36938   0.36799   0.01424   0.00000  Uiso   1.00
H364   H     0.33952   0.45820   0.42138   0.00000  Uiso   1.00
H365   H     0.47560   0.40263   0.13572   0.00000  Uiso   1.00
H366   H     0.48493   0.60168   0.40317   0.00000  Uiso   1.00
H367   H     0.59506   0.40351   0.33250   0.00000  Uiso   1.00
H368   H     0.40690   0.59438   0.16195   0.00000  Uiso   1.00
I369   I     0.58940   0.52240   0.37003   0.00000  Uiso   1.00
I370   I     0.40703   0.49511   0.13315   0.00000  Uiso   1.00
I371   I     0.40722   0.50321   0.37365   0.00000  Uiso   1.00
I372   I     0.59194   0.50340   0.12718   0.00000  Uiso   1.00
I373   I     0.38415   0.40354   0.29778   0.00000  Uiso   1.00
I374   I     0.61563   0.59826   0.20590   0.00000  Uiso   1.00
I375   I     0.62847   0.39080   0.23961   0.00000  Uiso   1.00
I376   I     0.37263   0.60992   0.26017   0.00000  Uiso   1.00
N377   N     0.50000   0.61736   0.25000   0.00000  Uiso   1.00
N378   N     0.50000   0.38264   0.25000   0.00000  Uiso   1.00
O379   O     0.43988   0.53958   0.24999   0.00000  Uiso   1.00
O380   O     0.35422   0.45388   0.05550   0.00000  Uiso   1.00
O381   O     0.38493   0.39249   0.00029   0.00000  Uiso   1.00
O382   O     0.62935   0.41249   0.48794   0.00000  Uiso   1.00
O383   O     0.60269   0.42037   0.41315   0.00000  Uiso   1.00
O384   O     0.65449   0.47880   0.43978   0.00000  Uiso   1.00
O385   O     0.56104   0.40791   0.17241   0.00000  Uiso   1.00
O386   O     0.55534   0.66414   0.14504   0.00000  Uiso   1.00
O387   O     0.50113   0.39067   0.12107   0.00000  Uiso   1.00
O388   O     0.44737   0.33538   0.35767   0.00000  Uiso   1.00
O389   O     0.43938   0.59299   0.32758   0.00000  Uiso   1.00
O390   O     0.56012   0.46042   0.25000   0.00000  Uiso   1.00
O391   O     0.50219   0.60634   0.37627   0.00000  Uiso   1.00
O392   O     0.50899   0.39096   0.37250   0.00000  Uiso   1.00
O393   O     0.56063   0.66622   0.34941   0.00000  Uiso   1.00
O394   O     0.56840   0.41468   0.32132   0.00000  Uiso   1.00
O395   O     0.43952   0.33397   0.15067   0.00000  Uiso   1.00
O396   O     0.49117   0.60902   0.12763   0.00000  Uiso   1.00
O397   O     0.43148   0.58656   0.17929   0.00000  Uiso   1.00
O398   O     0.56012   0.53958   0.25000   0.00000  Uiso   1.00
O399   O     0.43988   0.46042   0.24999   0.00000  Uiso   1.00
O400   O     0.49999   0.53960   0.18513   0.00000  Uiso   1.00
O401   O     0.50001   0.46040   0.31487   0.00000  Uiso   1.00
O402   O     0.50001   0.53960   0.31487   0.00000  Uiso   1.00
O403   O     0.49999   0.46040   0.18513   0.00000  Uiso   1.00
O404   O     0.41009   0.40199   0.08067   0.00000  Uiso   1.00
S405   S     0.39368   0.42906   0.04214   0.00000  Uiso   1.00
S406   S     0.61556   0.44632   0.45334   0.00000  Uiso   1.00
S407   S     0.53131   0.37234   0.16242   0.00000  Uiso   1.00
S408   S     0.47006   0.62736   0.33789   0.00000  Uiso   1.00
S409   S     0.53589   0.37417   0.33411   0.00000  Uiso   1.00
S410   S     0.46437   0.62621   0.16596   0.00000  Uiso   1.00
C411   C     0.75415   0.50094   0.25327   0.00000  Uiso   1.00
C412   C     0.70907   0.50213   0.25660   0.00000  Uiso   1.00
C413   C     0.83590   0.35675   0.21102   0.00000  Uiso   1.00
C414   C     0.83103   0.64334   0.28894   0.00000  Uiso   1.00
C415   C     0.83902   0.35719   0.28837   0.00000  Uiso   1.00
C416   C     0.82789   0.64292   0.21161   0.00000  Uiso   1.00
C417   C     0.83278   0.49967   0.16465   0.00000  Uiso   1.00
C418   C     0.83340   0.50008   0.33532   0.00000  Uiso   1.00
C419   C     0.87080   0.49830   0.40579   0.00000  Uiso   1.00
C420   C     0.79598   0.48890   0.09432   0.00000  Uiso   1.00
C421   C     0.83352   0.49943   0.38383   0.00000  Uiso   1.00
C422   C     0.91258   0.49914   0.24717   0.00000  Uiso   1.00
C423   C     0.83251   0.49756   0.11606   0.00000  Uiso   1.00
C424   C     0.79673   0.49474   0.40750   0.00000  Uiso   1.00
C425   C     0.86979   0.49696   0.09233   0.00000  Uiso   1.00
C426   C     0.79710   0.48812   0.45372   0.00000  Uiso   1.00
C427   C     0.87038   0.49184   0.04586   0.00000  Uiso   1.00
C428   C     0.83407   0.48849   0.47627   0.00000  Uiso   1.00
C429   C     0.83361   0.48755   0.02336   0.00000  Uiso   1.00
C430   C     0.87144   0.48957   0.45202   0.00000  Uiso   1.00
C431   C     0.79671   0.48153   0.04755   0.00000  Uiso   1.00
C432   C     0.76190   0.47705   0.47746   0.00000  Uiso   1.00
C433   C     0.76252   0.46877   0.02309   0.00000  Uiso   1.00
C434   C     0.90716   0.48715   0.02144   0.00000  Uiso   1.00
C435   C     0.90769   0.48101   0.47544   0.00000  Uiso   1.00
C436   C     0.68928   0.46072   0.26317   0.00000  Uiso   1.00
C437   C     0.97743   0.54002   0.23866   0.00000  Uiso   1.00
C438   C     0.98158   0.45799   0.25304   0.00000  Uiso   1.00
C439   C     0.68529   0.54262   0.24833   0.00000  Uiso   1.00
C440   C     0.95772   0.49835   0.24462   0.00000  Uiso   1.00
Cu441  Cu    0.83333   0.54689   0.25000   0.00000  Uiso   1.00
Cu442  Cu    0.83333   0.45311   0.25000   0.00000  Uiso   1.00
H443   H     0.73472   0.46956   0.46004   0.00000  Uiso   1.00
H444   H     0.93586   0.48331   0.03797   0.00000  Uiso   1.00
H445   H     0.70271   0.36799   0.01424   0.00000  Uiso   1.00
H446   H     0.67285   0.45820   0.42138   0.00000  Uiso   1.00
H447   H     0.80894   0.40263   0.13572   0.00000  Uiso   1.00
H448   H     0.81826   0.60168   0.40317   0.00000  Uiso   1.00
H449   H     0.92839   0.40351   0.33250   0.00000  Uiso   1.00
H450   H     0.74023   0.59438   0.16195   0.00000  Uiso   1.00
I451   I     0.92273   0.52240   0.37003   0.00000  Uiso   1.00
I452   I     0.74036   0.49511   0.13315   0.00000  Uiso   1.00
I453   I     0.74056   0.50321   0.37365   0.00000  Uiso   1.00
I454   I     0.92527   0.50340   0.12718   0.00000  Uiso   1.00
I455   I     0.71748   0.40354   0.29778   0.00000  Uiso   1.00
I456   I     0.94896   0.59826   0.20590   0.00000  Uiso   1.00
I457   I     0.96181   0.39080   0.23961   0.00000  Uiso   1.00
I458   I     0.70596   0.60992   0.26017   0.00000  Uiso   1.00
N459   N     0.83333   0.61736   0.25000   0.00000  Uiso   1.00
N460   N     0.83333   0.38264   0.25000   0.00000  Uiso   1.00
O461   O     0.77321   0.53958   0.24999   0.00000  Uiso   1.00
O462   O     0.68755   0.45388   0.05550   0.00000  Uiso   1.00
O463   O     0.71826   0.39249   0.00029   0.00000  Uiso   1.00
O464   O     0.96268   0.41249   0.48794   0.00000  Uiso   1.00
O465   O     0.93602   0.42037   0.41315   0.00000  Uiso   1.00
O466   O     0.98782   0.47880   0.43978   0.00000  Uiso   1.00
O467   O     0.89438   0.40791   0.17241   0.00000  Uiso   1.00
O468   O     0.88867   0.66414   0.14504   0.00000  Uiso   1.00
O469   O     0.83447   0.39067   0.12107   0.00000  Uiso   1.00
O470   O     0.78070   0.33538   0.35767   0.00000  Uiso   1.00
O471   O     0.77271   0.59299   0.32758   0.00000  Uiso   1.00
O472   O     0.89345   0.46042   0.25000   0.00000  Uiso   1.00
O473   O     0.83552   0.60634   0.37627   0.00000  Uiso   1.00
O474   O     0.84232   0.39096   0.37250   0.00000  Uiso   1.00
O475   O     0.89396   0.66622   0.34941   0.00000  Uiso   1.00
O476   O     0.90173   0.41468   0.32132   0.00000  Uiso   1.00
O477   O     0.77286   0.33397   0.15067   0.00000  Uiso   1.00
O478   O     0.82450   0.60902   0.12763   0.00000  Uiso   1.00
O479   O     0.76481   0.58656   0.17929   0.00000  Uiso   1.00
O480   O     0.89345   0.53958   0.25000   0.00000  Uiso   1.00
O481   O     0.77321   0.46042   0.24999   0.00000  Uiso   1.00
O482   O     0.83332   0.53960   0.18513   0.00000  Uiso   1.00
O483   O     0.83334   0.46040   0.31487   0.00000  Uiso   1.00
O484   O     0.83334   0.53960   0.31487   0.00000  Uiso   1.00
O485   O     0.83332   0.46040   0.18513   0.00000  Uiso   1.00
O486   O     0.74342   0.40199   0.08067   0.00000  Uiso   1.00
S487   S     0.72701   0.42906   0.04214   0.00000  Uiso   1.00
S488   S     0.94889   0.44632   0.45334   0.00000  Uiso   1.00
S489   S     0.86464   0.37234   0.16242   0.00000  Uiso   1.00
S490   S     0.80340   0.62736   0.33789   0.00000  Uiso   1.00
S491   S     0.86923   0.37417   0.33411   0.00000  Uiso   1.00
S492   S     0.79770   0.62621   0.16596   0.00000  Uiso   1.00
C493   C     0.08748   0.83427   0.25327   0.00000  Uiso   1.00
C494   C     0.04240   0.83547   0.25660   0.00000  Uiso   1.00
C495   C     0.16923   0.69009   0.21102   0.00000  Uiso   1.00
C496   C     0.16436   0.97667   0.28894   0.00000  Uiso   1.00
C497   C     0.17235   0.69052   0.28837   0.00000  Uiso   1.00
C498   C     0.16122   0.97625   0.21161   0.00000  Uiso   1.00
C499   C     0.16611   0.83301   0.16465   0.00000  Uiso   1.00
C500   C     0.16673   0.83342   0.33532   0.00000  Uiso   1.00
C501   C     0.20414   0.83164   0.40579   0.00000  Uiso   1.00
C502   C     0.12931   0.82223   0.09432   0.00000  Uiso   1.00
C503   C     0.16686   0.83277   0.38383   0.00000  Uiso   1.00
C504   C     0.24591   0.83247   0.24717   0.00000  Uiso   1.00
C505   C     0.16584   0.83089   0.11606   0.00000  Uiso   1.00
C506   C     0.13007   0.82807   0.40750   0.00000  Uiso   1.00
C507   C     0.20312   0.83030   0.09233   0.00000  Uiso   1.00
C508   C     0.13043   0.82145   0.45372   0.00000  Uiso   1.00
C509   C     0.20371   0.82517   0.04586   0.00000  Uiso   1.00
C510   C     0.16741   0.82182   0.47627   0.00000  Uiso   1.00
C511   C     0.16695   0.82088   0.02336   0.00000  Uiso   1.00
C512   C     0.20477   0.82290   0.45202   0.00000  Uiso   1.00
C513   C     0.13004   0.81486   0.04755   0.00000  Uiso   1.00
C514   C     0.09523   0.81038   0.47746   0.00000  Uiso   1.00
C515   C     0.09585   0.80210   0.02309   0.00000  Uiso   1.00
C516   C     0.24050   0.82048   0.02144   0.00000  Uiso   1.00
C517   C     0.24102   0.81434   0.47544   0.00000  Uiso   1.00
C518   C     0.02262   0.79405   0.26317   0.00000  Uiso   1.00
C519   C     0.31077   0.87335   0.23866   0.00000  Uiso   1.00
C520   C     0.31491   0.79132   0.25304   0.00000  Uiso   1.00
C521   C     0.01862   0.87595   0.24833   0.00000  Uiso   1.00
C522   C     0.29105   0.83168   0.24462   0.00000  Uiso   1.00
Cu523  Cu    0.16667   0.88022   0.25000   0.00000  Uiso   1.00
Cu524  Cu    0.16667   0.78645   0.25000   0.00000  Uiso   1.00
H525   H     0.06805   0.80289   0.46004   0.00000  Uiso   1.00
H526   H     0.26919   0.81664   0.03797   0.00000  Uiso   1.00
H527   H     0.03604   0.70132   0.01424   0.00000  Uiso   1.00
H528   H     0.00618   0.79153   0.42138   0.00000  Uiso   1.00
H529   H     0.14227   0.73597   0.13572   0.00000  Uiso   1.00
H530   H     0.15160   0.93501   0.40317   0.00000  Uiso   1.00
H531   H     0.26173   0.73684   0.33250   0.00000  Uiso   1.00
H532   H     0.07357   0.92771   0.16195   0.00000  Uiso   1.00
I533   I     0.25606   0.85573   0.37003   0.00000  Uiso   1.00
I534   I     0.07369   0.82844   0.13315   0.00000  Uiso   1.00
I535   I     0.07389   0.83655   0.37365   0.00000  Uiso   1.00
I536   I     0.25861   0.83673   0.12718   0.00000  Uiso   1.00
I537   I     0.05081   0.73688   0.29778   0.00000  Uiso   1.00
I538   I     0.28230   0.93160   0.20590   0.00000  Uiso   1.00
I539   I     0.29514   0.72413   0.23961   0.00000  Uiso   1.00
I540   I     0.03929   0.94325   0.26017   0.00000  Uiso   1.00
N541   N     0.16667   0.95069   0.25000   0.00000  Uiso   1.00
N542   N     0.16667   0.71598   0.25000   0.00000  Uiso   1.00
O543   O     0.10655   0.87291   0.24999   0.00000  Uiso   1.00
O544   O     0.02089   0.78721   0.05550   0.00000  Uiso   1.00
O545   O     0.05160   0.72582   0.00029   0.00000  Uiso   1.00
O546   O     0.29601   0.74583   0.48794   0.00000  Uiso   1.00
O547   O     0.26935   0.75370   0.41315   0.00000  Uiso   1.00
O548   O     0.32116   0.81213   0.43978   0.00000  Uiso   1.00
O549   O     0.22771   0.74125   0.17241   0.00000  Uiso   1.00
O550   O     0.22201   0.99747   0.14504   0.00000  Uiso   1.00
O551   O     0.16780   0.72401   0.12107   0.00000  Uiso   1.00
O552   O     0.11403   0.66871   0.35767   0.00000  Uiso   1.00
O553   O     0.10605   0.92632   0.32758   0.00000  Uiso   1.00
O554   O     0.22679   0.79375   0.25000   0.00000  Uiso   1.00
O555   O     0.16885   0.93967   0.37627   0.00000  Uiso   1.00
O556   O     0.17565   0.72429   0.37250   0.00000  Uiso   1.00
O557   O     0.22729   0.99956   0.34941   0.00000  Uiso   1.00
O558   O     0.23506   0.74801   0.32132   0.00000  Uiso   1.00
O559   O     0.10619   0.66731   0.15067   0.00000  Uiso   1.00
O560   O     0.15784   0.94235   0.12763   0.00000  Uiso   1.00
O561   O     0.09815   0.91990   0.17929   0.00000  Uiso   1.00
O562   O     0.22679   0.87291   0.25000   0.00000  Uiso   1.00
O563   O     0.10655   0.79375   0.24999   0.00000  Uiso   1.00
O564   O     0.16666   0.87293   0.18513   0.00000  Uiso   1.00
O565   O     0.16668   0.79373   0.31487   0.00000  Uiso   1.00
O566   O     0.16668   0.87293   0.31487   0.00000  Uiso   1.00
O567   O     0.16666   0.79373   0.18513   0.00000  Uiso   1.00
O568   O     0.07676   0.73532   0.08067   0.00000  Uiso   1.00
S569   S     0.06035   0.76240   0.04214   0.00000  Uiso   1.00
S570   S     0.28222   0.77965   0.45334   0.00000  Uiso   1.00
S571   S     0.19798   0.70567   0.16242   0.00000  Uiso   1.00
S572   S     0.13673   0.96069   0.33789   0.00000  Uiso   1.00
S573   S     0.20256   0.70750   0.33411   0.00000  Uiso   1.00
S574   S     0.13103   0.95954   0.16596   0.00000  Uiso   1.00
C575   C     0.42082   0.83427   0.25327   0.00000  Uiso   1.00
C576   C     0.37573   0.83547   0.25660   0.00000  Uiso   1.00
C577   C     0.50256   0.69009   0.21102   0.00000  Uiso   1.00
C578   C     0.49770   0.97667   0.28894   0.00000  Uiso   1.00
C579   C     0.50568   0.69052   0.28837   0.00000  Uiso   1.00
C580   C     0.49455   0.97625   0.21161   0.00000  Uiso   1.00
C581   C     0.49944   0.83301   0.16465   0.00000  Uiso   1.00
C582   C     0.50007   0.83342   0.33532   0.00000  Uiso   1.00
C583   C     0.53747   0.83164   0.40579   0.00000  Uiso   1.00
C584   C     0.46265   0.82223   0.09432   0.00000  Uiso   1.00
C585   C     0.50019   0.83277   0.38383   0.00000  Uiso   1.00
C586   C     0.57925   0.83247   0.24717   0.00000  Uiso   1.00
C587   C     0.49917   0.83089   0.11606   0.00000  Uiso   1.00
C588   C     0.46340   0.82807   0.40750   0.00000  Uiso   1.00
C589   C     0.53646   0.83030   0.09233   0.00000  Uiso   1.00
C590   C     0.46376   0.82145   0.45372   0.00000  Uiso   1.00
C591   C     0.53704   0.82517   0.04586   0.00000  Uiso   1.00
C592   C     0.50074   0.82182   0.47627   0.00000  Uiso   1.00
C593   C     0.50028   0.82088   0.02336   0.00000  Uiso   1.00
C594   C     0.53811   0.82290   0.45202   0.00000  Uiso   1.00
C595   C     0.46338   0.81486   0.04755   0.00000  Uiso   1.00
C596   C     0.42857   0.81038   0.47746   0.00000  Uiso   1.00
C597   C     0.42918   0.80210   0.02309   0.00000  Uiso   1.00
C598   C     0.57383   0.82048   0.02144   0.00000  Uiso   1.00
C599   C     0.57436   0.81434   0.47544   0.00000  Uiso   1.00
C600   C     0.35595   0.79405   0.26317   0.00000  Uiso   1.00
C601   C     0.64410   0.87335   0.23866   0.00000  Uiso   1.00
C602   C     0.64824   0.79132   0.25304   0.00000  Uiso   1.00
C603   C     0.35195   0.87595   0.24833   0.00000  Uiso   1.00
C604   C     0.62438   0.83168   0.24462   0.00000  Uiso   1.00
Cu605  Cu    0.50000   0.88022   0.25000   0.00000  Uiso   1.00
Cu606  Cu    0.50000   0.78645   0.25000   0.00000  Uiso   1.00
H607   H     0.40138   0.80289   0.46004   0.00000  Uiso   1.00
H608   H     0.60253   0.81664   0.03797   0.00000  Uiso   1.00
H609   H     0.36938   0.70132   0.01424   0.00000  Uiso   1.00
H610   H     0.33952   0.79153   0.42138   0.00000  Uiso   1.00
H611   H     0.47560   0.73597   0.13572   0.00000  Uiso   1.00
H612   H     0.48493   0.93501   0.40317   0.00000  Uiso   1.00
H613   H     0.59506   0.73684   0.33250   0.00000  Uiso   1.00
H614   H     0.40690   0.92771   0.16195   0.00000  Uiso   1.00
I615   I     0.58940   0.85573   0.37003   0.00000  Uiso   1.00
I616   I     0.40703   0.82844   0.13315   0.00000  Uiso   1.00
I617   I     0.40722   0.83655   0.37365   0.00000  Uiso   1.00
I618   I     0.59194   0.83673   0.12718   0.00000  Uiso   1.00
I619   I     0.38415   0.73688   0.29778   0.00000  Uiso   1.00
I620   I     0.61563   0.93160   0.20590   0.00000  Uiso   1.00
I621   I     0.62847   0.72413   0.23961   0.00000  Uiso   1.00
I622   I     0.37263   0.94325   0.26017   0.00000  Uiso   1.00
N623   N     0.50000   0.95069   0.25000   0.00000  Uiso   1.00
N624   N     0.50000   0.71598   0.25000   0.00000  Uiso   1.00
O625   O     0.43988   0.87291   0.24999   0.00000  Uiso   1.00
O626   O     0.35422   0.78721   0.05550   0.00000  Uiso   1.00
O627   O     0.38493   0.72582   0.00029   0.00000  Uiso   1.00
O628   O     0.62935   0.74583   0.48794   0.00000  Uiso   1.00
O629   O     0.60269   0.75370   0.41315   0.00000  Uiso   1.00
O630   O     0.65449   0.81213   0.43978   0.00000  Uiso   1.00
O631   O     0.56104   0.74125   0.17241   0.00000  Uiso   1.00
O632   O     0.55534   0.99747   0.14504   0.00000  Uiso   1.00
O633   O     0.50113   0.72401   0.12107   0.00000  Uiso   1.00
O634   O     0.44737   0.66871   0.35767   0.00000  Uiso   1.00
O635   O     0.43938   0.92632   0.32758   0.00000  Uiso   1.00
O636   O     0.56012   0.79375   0.25000   0.00000  Uiso   1.00
O637   O     0.50219   0.93967   0.37627   0.00000  Uiso   1.00
O638   O     0.50899   0.72429   0.37250   0.00000  Uiso   1.00
O639   O     0.56063   0.99956   0.34941   0.00000  Uiso   1.00
O640   O     0.56840   0.74801   0.32132   0.00000  Uiso   1.00
O641   O     0.43952   0.66731   0.15067   0.00000  Uiso   1.00
O642   O     0.49117   0.94235   0.12763   0.00000  Uiso   1.00
O643   O     0.43148   0.91990   0.17929   0.00000  Uiso   1.00
O644   O     0.56012   0.87291   0.25000   0.00000  Uiso   1.00
O645   O     0.43988   0.79375   0.24999   0.00000  Uiso   1.00
O646   O     0.49999   0.87293   0.18513   0.00000  Uiso   1.00
O647   O     0.50001   0.79373   0.31487   0.00000  Uiso   1.00
O648   O     0.50001   0.87293   0.31487   0.00000  Uiso   1.00
O649   O     0.49999   0.79373   0.18513   0.00000  Uiso   1.00
O650   O     0.41009   0.73532   0.08067   0.00000  Uiso   1.00
S651   S     0.39368   0.76240   0.04214   0.00000  Uiso   1.00
S652   S     0.61556   0.77965   0.45334   0.00000  Uiso   1.00
S653   S     0.53131   0.70567   0.16242   0.00000  Uiso   1.00
S654   S     0.47006   0.96069   0.33789   0.00000  Uiso   1.00
S655   S     0.53589   0.70750   0.33411   0.00000  Uiso   1.00
S656   S     0.46437   0.95954   0.16596   0.00000  Uiso   1.00
C657   C     0.75415   0.83427   0.25327   0.00000  Uiso   1.00
C658   C     0.70907   0.83547   0.25660   0.00000  Uiso   1.00
C659   C     0.83590   0.69009   0.21102   0.00000  Uiso   1.00
C660   C     0.83103   0.97667   0.28894   0.00000  Uiso   1.00
C661   C     0.83902   0.69052   0.28837   0.00000  Uiso   1.00
C662   C     0.82789   0.97625   0.21161   0.00000  Uiso   1.00
C663   C     0.83278   0.83301   0.16465   0.00000  Uiso   1.00
C664   C     0.83340   0.83342   0.33532   0.00000  Uiso   1.00
C665   C     0.87080   0.83164   0.40579   0.00000  Uiso   1.00
C666   C     0.79598   0.82223   0.09432   0.00000  Uiso   1.00
C667   C     0.83352   0.83277   0.38383   0.00000  Uiso   1.00
C668   C     0.91258   0.83247   0.24717   0.00000  Uiso   1.00
C669   C     0.83251   0.83089   0.11606   0.00000  Uiso   1.00
C670   C     0.79673   0.82807   0.40750   0.00000  Uiso   1.00
C671   C     0.86979   0.83030   0.09233   0.00000  Uiso   1.00
C672   C     0.79710   0.82145   0.45372   0.00000  Uiso   1.00
C673   C     0.87038   0.82517   0.04586   0.00000  Uiso   1.00
C674   C     0.83407   0.82182   0.47627   0.00000  Uiso   1.00
C675   C     0.83361   0.82088   0.02336   0.00000  Uiso   1.00
C676   C     0.87144   0.82290   0.45202   0.00000  Uiso   1.00
C677   C     0.79671   0.81486   0.04755   0.00000  Uiso   1.00
C678   C     0.76190   0.81038   0.47746   0.00000  Uiso   1.00
C679   C     0.76252   0.80210   0.02309   0.00000  Uiso   1.00
C680   C     0.90716   0.82048   0.02144   0.00000  Uiso   1.00
C681   C     0.90769   0.81434   0.47544   0.00000  Uiso   1.00
C682   C     0.68928   0.79405   0.26317   0.00000  Uiso   1.00
C683   C     0.97743   0.87335   0.23866   0.00000  Uiso   1.00
C684   C     0.98158   0.79132   0.25304   0.00000  Uiso   1.00
C685   C     0.68529   0.87595   0.24833   0.00000  Uiso   1.00
C686   C     0.95772   0.83168   0.24462   0.00000  Uiso   1.00
Cu687  Cu    0.83333   0.88022   0.25000   0.00000  Uiso   1.00
Cu688  Cu    0.83333   0.78645   0.25000   0.00000  Uiso   1.00
H689   H     0.73472   0.80289   0.46004   0.00000  Uiso   1.00
H690   H     0.93586   0.81664   0.03797   0.00000  Uiso   1.00
H691   H     0.70271   0.70132   0.01424   0.00000  Uiso   1.00
H692   H     0.67285   0.79153   0.42138   0.00000  Uiso   1.00
H693   H     0.80894   0.73597   0.13572   0.00000  Uiso   1.00
H694   H     0.81826   0.93501   0.40317   0.00000  Uiso   1.00
H695   H     0.92839   0.73684   0.33250   0.00000  Uiso   1.00
H696   H     0.74023   0.92771   0.16195   0.00000  Uiso   1.00
I697   I     0.92273   0.85573   0.37003   0.00000  Uiso   1.00
I698   I     0.74036   0.82844   0.13315   0.00000  Uiso   1.00
I699   I     0.74056   0.83655   0.37365   0.00000  Uiso   1.00
I700   I     0.92527   0.83673   0.12718   0.00000  Uiso   1.00
I701   I     0.71748   0.73688   0.29778   0.00000  Uiso   1.00
I702   I     0.94896   0.93160   0.20590   0.00000  Uiso   1.00
I703   I     0.96181   0.72413   0.23961   0.00000  Uiso   1.00
I704   I     0.70596   0.94325   0.26017   0.00000  Uiso   1.00
N705   N     0.83333   0.95069   0.25000   0.00000  Uiso   1.00
N706   N     0.83333   0.71598   0.25000   0.00000  Uiso   1.00
O707   O     0.77321   0.87291   0.24999   0.00000  Uiso   1.00
O708   O     0.68755   0.78721   0.05550   0.00000  Uiso   1.00
O709   O     0.71826   0.72582   0.00029   0.00000  Uiso   1.00
O710   O     0.96268   0.74583   0.48794   0.00000  Uiso   1.00
O711   O     0.93602   0.75370   0.41315   0.00000  Uiso   1.00
O712   O     0.98782   0.81213   0.43978   0.00000  Uiso   1.00
O713   O     0.89438   0.74125   0.17241   0.00000  Uiso   1.00
O714   O     0.88867   0.99747   0.14504   0.00000  Uiso   1.00
O715   O     0.83447   0.72401   0.12107   0.00000  Uiso   1.00
O716   O     0.78070   0.66871   0.35767   0.00000  Uiso   1.00
O717   O     0.77271   0.92632   0.32758   0.00000  Uiso   1.00
O718   O     0.89345   0.79375   0.25000   0.00000  Uiso   1.00
O719   O     0.83552   0.93967   0.37627   0.00000  Uiso   1.00
O720   O     0.84232   0.72429   0.37250   0.00000  Uiso   1.00
O721   O     0.89396   0.99956   0.34941   0.00000  Uiso   1.00
O722   O     0.90173   0.74801   0.32132   0.00000  Uiso   1.00
O723   O     0.77286   0.66731   0.15067   0.00000  Uiso   1.00
O724   O     0.82450   0.94235   0.12763   0.00000  Uiso   1.00
O725   O     0.76481   0.91990   0.17929   0.00000  Uiso   1.00
O726   O     0.89345   0.87291   0.25000   0.00000  Uiso   1.00
O727   O     0.77321   0.79375   0.24999   0.00000  Uiso   1.00
O728   O     0.83332   0.87293   0.18513   0.00000  Uiso   1.00
O729   O     0.83334   0.79373   0.31487   0.00000  Uiso   1.00
O730   O     0.83334   0.87293   0.31487   0.00000  Uiso   1.00
O731   O     0.83332   0.79373   0.18513   0.00000  Uiso   1.00
O732   O     0.74342   0.73532   0.08067   0.00000  Uiso   1.00
S733   S     0.72701   0.76240   0.04214   0.00000  Uiso   1.00
S734   S     0.94889   0.77965   0.45334   0.00000  Uiso   1.00
S735   S     0.86464   0.70567   0.16242   0.00000  Uiso   1.00
S736   S     0.80340   0.96069   0.33789   0.00000  Uiso   1.00
S737   S     0.86923   0.70750   0.33411   0.00000  Uiso   1.00
S738   S     0.79770   0.95954   0.16596   0.00000  Uiso   1.00
C739   C     0.08748   0.16761   0.75327   0.00000  Uiso   1.00
C740   C     0.04240   0.16880   0.75660   0.00000  Uiso   1.00
C741   C     0.16923   0.02342   0.71102   0.00000  Uiso   1.00
C742   C     0.16436   0.31001   0.78894   0.00000  Uiso   1.00
C743   C     0.17235   0.02385   0.78837   0.00000  Uiso   1.00
C744   C     0.16122   0.30958   0.71161   0.00000  Uiso   1.00
C745   C     0.16611   0.16634   0.66465   0.00000  Uiso   1.00
C746   C     0.16673   0.16675   0.83532   0.00000  Uiso   1.00
C747   C     0.20414   0.16497   0.90579   0.00000  Uiso   1.00
C748   C     0.12931   0.15556   0.59432   0.00000  Uiso   1.00
C749   C     0.16686   0.16610   0.88383   0.00000  Uiso   1.00
C750   C     0.24591   0.16580   0.74717   0.00000  Uiso   1.00
C751   C     0.16584   0.16423   0.61606   0.00000  Uiso   1.00
C752   C     0.13007   0.16141   0.90750   0.00000  Uiso   1.00
C753   C     0.20312   0.16363   0.59233   0.00000  Uiso   1.00
C754   C     0.13043   0.15478   0.95372   0.00000  Uiso   1.00
C755   C     0.20371   0.15851   0.54586   0.00000  Uiso   1.00
C756   C     0.16741   0.15516   0.97627   0.00000  Uiso   1.00
C757   C     0.16695   0.15421   0.52336   0.00000  Uiso   1.00
C758   C     0.20477   0.15624   0.95202   0.00000  Uiso   1.00
C759   C     0.13004   0.14819   0.54755   0.00000  Uiso   1.00
C760   C     0.09523   0.14371   0.97746   0.00000  Uiso   1.00
C761   C     0.09585   0.13544   0.52309   0.00000  Uiso   1.00
C762   C     0.24050   0.15381   0.52144   0.00000  Uiso   1.00
C763   C     0.24102   0.14768   0.97544   0.00000  Uiso   1.00
C764   C     0.02262   0.12738   0.76317   0.00000  Uiso   1.00
C765   C     0.31077   0.20668   0.73866   0.00000  Uiso   1.00
C766   C     0.31491   0.12466   0.75304   0.00000  Uiso   1.00
C767   C     0.01862   0.20928   0.74833   0.00000  Uiso   1.00
C768   C     0.29105   0.16502   0.74462   0.00000  Uiso   1.00
Cu769  Cu    0.16667   0.21355   0.75000   0.00000  Uiso   1.00
Cu770  Cu    0.16667   0.11978   0.75000   0.00000  Uiso   1.00
H771   H     0.06805   0.13622   0.96004   0.00000  Uiso   1.00
H772   H     0.26919   0.14997   0.53797   0.00000  Uiso   1.00
H773   H     0.03604   0.03465   0.51424   0.00000  Uiso   1.00
H774   H     0.00618   0.12486   0.92138   0.00000  Uiso   1.00
H775   H     0.14227   0.06930   0.63572   0.00000  Uiso   1.00
H776   H     0.15160   0.26835   0.90317   0.00000  Uiso   1.00
H777   H     0.26173   0.07017   0.83250   0.00000  Uiso   1.00
H778   H     0.07357   0.26105   0.66195   0.00000  Uiso   1.00
I779   I     0.25606   0.18906   0.87003   0.00000  Uiso   1.00
I780   I     0.07369   0.16178   0.63315   0.00000  Uiso   1.00
I781   I     0.07389   0.16988   0.87365   0.00000  Uiso   1.00
I782   I     0.25861   0.17007   0.62718   0.00000  Uiso   1.00
I783   I     0.05081   0.07021   0.79778   0.00000  Uiso   1.00
I784   I     0.28230   0.26493   0.70590   0.00000  Uiso   1.00
I785   I     0.29514   0.05747   0.73961   0.00000  Uiso   1.00
I786   I     0.03929   0.27659   0.76017   0.00000  Uiso   1.00
N787   N     0.16667   0.28402   0.75000   0.00000  Uiso   1.00
N788   N     0.16667   0.04931   0.75000   0.00000  Uiso   1.00
O789   O     0.10655   0.20625   0.74999   0.00000  Uiso   1.00
O790   O     0.02089   0.12054   0.55550   0.00000  Uiso   1.00
O791   O     0.05160   0.05916   0.50029   0.00000  Uiso   1.00
O792   O     0.29601   0.07916   0.98794   0.00000  Uiso   1.00
O793   O     0.26935   0.08703   0.91315   0.00000  Uiso   1.00
O794   O     0.32116   0.14547   0.93978   0.00000  Uiso   1.00
O795   O     0.22771   0.07458   0.67241   0.00000  Uiso   1.00
O796   O     0.22201   0.33080   0.64504   0.00000  Uiso   1.00
O797   O     0.16780   0.05734   0.62107   0.00000  Uiso   1.00
O798   O     0.11403   0.00204   0.85767   0.00000  Uiso   1.00
O799   O     0.10605   0.25966   0.82758   0.00000  Uiso   1.00
O800   O     0.22679   0.12709   0.75000   0.00000  Uiso   1.00
O801   O     0.16885   0.27300   0.87627   0.00000  Uiso   1.00
O802   O     0.17565   0.05763   0.87250   0.00000  Uiso   1.00
O803   O     0.22729   0.33289   0.84941   0.00000  Uiso   1.00
O804   O     0.23506   0.08134   0.82132   0.00000  Uiso   1.00
O805   O     0.10619   0.00064   0.65067   0.00000  Uiso   1.00
O806   O     0.15784   0.27568   0.62763   0.00000  Uiso   1.00
O807   O     0.09815   0.25323   0.67929   0.00000  Uiso   1.00
O808   O     0.22679   0.20625   0.75000   0.00000  Uiso   1.00
O809   O     0.10655   0.12709   0.74999   0.00000  Uiso   1.00
O810   O     0.16666   0.20627   0.68513   0.00000  Uiso   1.00
O811   O     0.16668   0.12707   0.81487   0.00000  Uiso   1.00
O812   O     0.16668   0.20627   0.81487   0.00000  Uiso   1.00
O813   O     0.16666   0.12707   0.68513   0.00000  Uiso   1.00
O814   O     0.07676   0.06866   0.58067   0.00000  Uiso   1.00
S815   S     0.06035   0.09573   0.54214   0.00000  Uiso   1.00
S816   S     0.28222   0.11299   0.95334   0.00000  Uiso   1.00
S817   S     0.19798   0.03901   0.66242   0.00000  Uiso   1.00
S818   S     0.13673   0.29403   0.83789   0.00000  Uiso   1.00
S819   S     0.20256   0.04083   0.83411   0.00000  Uiso   1.00
S820   S     0.13103   0.29287   0.66596   0.00000  Uiso   1.00
C821   C     0.42082   0.16761   0.75327   0.00000  Uiso   1.00
C822   C     0.37573   0.16880   0.75660   0.00000  Uiso   1.00
C823   C     0.50256   0.02342   0.71102   0.00000  Uiso   1.00
C824   C     0.49770   0.31001   0.78894   0.00000  Uiso   1.00
C825   C     0.50568   0.02385   0.78837   0.00000  Uiso   1.00
C826   C     0.49455   0.30958   0.71161   0.00000  Uiso   1.00
C827   C     0.49944   0.16634   0.66465   0.00000  Uiso   1.00
C828   C     0.50007   0.16675   0.83532   0.00000  Uiso   1.00
C829   C     0.53747   0.16497   0.90579   0.00000  Uiso   1.00
C830   C     0.46265   0.15556   0.59432   0.00000  Uiso   1.00
C831   C     0.50019   0.16610   0.88383   0.00000  Uiso   1.00
C832   C     0.57925   0.16580   0.74717   0.00000  Uiso   1.00
C833   C     0.49917   0.16423   0.61606   0.00000  Uiso   1.00
C834   C     0.46340   0.16141   0.90750   0.00000  Uiso   1.00
C835   C     0.53646   0.16363   0.59233   0.00000  Uiso   1.00
C836   C     0.46376   0.15478   0.95372   0.00000  Uiso   1.00
C837   C     0.53704   0.15851   0.54586   0.00000  Uiso   1.00
C838   C     0.50074   0.15516   0.97627   0.00000  Uiso   1.00
C839   C     0.50028   0.15421   0.52336   0.00000  Uiso   1.00
C840   C     0.53811   0.15624   0.95202   0.00000  Uiso   1.00
C841   C     0.46338   0.14819   0.54755   0.00000  Uiso   1.00
C842   C     0.42857   0.14371   0.97746   0.00000  Uiso   1.00
C843   C     0.42918   0.13544   0.52309   0.00000  Uiso   1.00
C844   C     0.57383   0.15381   0.52144   0.00000  Uiso   1.00
C845   C     0.57436   0.14768   0.97544   0.00000  Uiso   1.00
C846   C     0.35595   0.12738   0.76317   0.00000  Uiso   1.00
C847   C     0.64410   0.20668   0.73866   0.00000  Uiso   1.00
C848   C     0.64824   0.12466   0.75304   0.00000  Uiso   1.00
C849   C     0.35195   0.20928   0.74833   0.00000  Uiso   1.00
C850   C     0.62438   0.16502   0.74462   0.00000  Uiso   1.00
Cu851  Cu    0.50000   0.21355   0.75000   0.00000  Uiso   1.00
Cu852  Cu    0.50000   0.11978   0.75000   0.00000  Uiso   1.00
H853   H     0.40138   0.13622   0.96004   0.00000  Uiso   1.00
H854   H     0.60253   0.14997   0.53797   0.00000  Uiso   1.00
H855   H     0.36938   0.03465   0.51424   0.00000  Uiso   1.00
H856   H     0.33952   0.12486   0.92138   0.00000  Uiso   1.00
H857   H     0.47560   0.06930   0.63572   0.00000  Uiso   1.00
H858   H     0.48493   0.26835   0.90317   0.00000  Uiso   1.00
H859   H     0.59506   0.07017   0.83250   0.00000  Uiso   1.00
H860   H     0.40690   0.26105   0.66195   0.00000  Uiso   1.00
I861   I     0.58940   0.18906   0.87003   0.00000  Uiso   1.00
I862   I     0.40703   0.16178   0.63315   0.00000  Uiso   1.00
I863   I     0.40722   0.16988   0.87365   0.00000  Uiso   1.00
I864   I     0.59194   0.17007   0.62718   0.00000  Uiso   1.00
I865   I     0.38415   0.07021   0.79778   0.00000  Uiso   1.00
I866   I     0.61563   0.26493   0.70590   0.00000  Uiso   1.00
I867   I     0.62847   0.05747   0.73961   0.00000  Uiso   1.00
I868   I     0.37263   0.27659   0.76017   0.00000  Uiso   1.00
N869   N     0.50000   0.28402   0.75000   0.00000  Uiso   1.00
N870   N     0.50000   0.04931   0.75000   0.00000  Uiso   1.00
O871   O     0.43988   0.20625   0.74999   0.00000  Uiso   1.00
O872   O     0.35422   0.12054   0.55550   0.00000  Uiso   1.00
O873   O     0.38493   0.05916   0.50029   0.00000  Uiso   1.00
O874   O     0.62935   0.07916   0.98794   0.00000  Uiso   1.00
O875   O     0.60269   0.08703   0.91315   0.00000  Uiso   1.00
O876   O     0.65449   0.14547   0.93978   0.00000  Uiso   1.00
O877   O     0.56104   0.07458   0.67241   0.00000  Uiso   1.00
O878   O     0.55534   0.33080   0.64504   0.00000  Uiso   1.00
O879   O     0.50113   0.05734   0.62107   0.00000  Uiso   1.00
O880   O     0.44737   0.00204   0.85767   0.00000  Uiso   1.00
O881   O     0.43938   0.25966   0.82758   0.00000  Uiso   1.00
O882   O     0.56012   0.12709   0.75000   0.00000  Uiso   1.00
O883   O     0.50219   0.27300   0.87627   0.00000  Uiso   1.00
O884   O     0.50899   0.05763   0.87250   0.00000  Uiso   1.00
O885   O     0.56063   0.33289   0.84941   0.00000  Uiso   1.00
O886   O     0.56840   0.08134   0.82132   0.00000  Uiso   1.00
O887   O     0.43952   0.00064   0.65067   0.00000  Uiso   1.00
O888   O     0.49117   0.27568   0.62763   0.00000  Uiso   1.00
O889   O     0.43148   0.25323   0.67929   0.00000  Uiso   1.00
O890   O     0.56012   0.20625   0.75000   0.00000  Uiso   1.00
O891   O     0.43988   0.12709   0.74999   0.00000  Uiso   1.00
O892   O     0.49999   0.20627   0.68513   0.00000  Uiso   1.00
O893   O     0.50001   0.12707   0.81487   0.00000  Uiso   1.00
O894   O     0.50001   0.20627   0.81487   0.00000  Uiso   1.00
O895   O     0.49999   0.12707   0.68513   0.00000  Uiso   1.00
O896   O     0.41009   0.06866   0.58067   0.00000  Uiso   1.00
S897   S     0.39368   0.09573   0.54214   0.00000  Uiso   1.00
S898   S     0.61556   0.11299   0.95334   0.00000  Uiso   1.00
S899   S     0.53131   0.03901   0.66242   0.00000  Uiso   1.00
S900   S     0.47006   0.29403   0.83789   0.00000  Uiso   1.00
S901   S     0.53589   0.04083   0.83411   0.00000  Uiso   1.00
S902   S     0.46437   0.29287   0.66596   0.00000  Uiso   1.00
C903   C     0.75415   0.16761   0.75327   0.00000  Uiso   1.00
C904   C     0.70907   0.16880   0.75660   0.00000  Uiso   1.00
C905   C     0.83590   0.02342   0.71102   0.00000  Uiso   1.00
C906   C     0.83103   0.31001   0.78894   0.00000  Uiso   1.00
C907   C     0.83902   0.02385   0.78837   0.00000  Uiso   1.00
C908   C     0.82789   0.30958   0.71161   0.00000  Uiso   1.00
C909   C     0.83278   0.16634   0.66465   0.00000  Uiso   1.00
C910   C     0.83340   0.16675   0.83532   0.00000  Uiso   1.00
C911   C     0.87080   0.16497   0.90579   0.00000  Uiso   1.00
C912   C     0.79598   0.15556   0.59432   0.00000  Uiso   1.00
C913   C     0.83352   0.16610   0.88383   0.00000  Uiso   1.00
C914   C     0.91258   0.16580   0.74717   0.00000  Uiso   1.00
C915   C     0.83251   0.16423   0.61606   0.00000  Uiso   1.00
C916   C     0.79673   0.16141   0.90750   0.00000  Uiso   1.00
C917   C     0.86979   0.16363   0.59233   0.00000  Uiso   1.00
C918   C     0.79710   0.15478   0.95372   0.00000  Uiso   1.00
C919   C     0.87038   0.15851   0.54586   0.00000  Uiso   1.00
C920   C     0.83407   0.15516   0.97627   0.00000  Uiso   1.00
C921   C     0.83361   0.15421   0.52336   0.00000  Uiso   1.00
C922   C     0.87144   0.15624   0.95202   0.00000  Uiso   1.00
C923   C     0.79671   0.14819   0.54755   0.00000  Uiso   1.00
C924   C     0.76190   0.14371   0.97746   0.00000  Uiso   1.00
C925   C     0.76252   0.13544   0.52309   0.00000  Uiso   1.00
C926   C     0.90716   0.15381   0.52144   0.00000  Uiso   1.00
C927   C     0.90769   0.14768   0.97544   0.00000  Uiso   1.00
C928   C     0.68928   0.12738   0.76317   0.00000  Uiso   1.00
C929   C     0.97743   0.20668   0.73866   0.00000  Uiso   1.00
C930   C     0.98158   0.12466   0.75304   0.00000  Uiso   1.00
C931   C     0.68529   0.20928   0.74833   0.00000  Uiso   1.00
C932   C     0.95772   0.16502   0.74462   0.00000  Uiso   1.00
Cu933  Cu    0.83333   0.21355   0.75000   0.00000  Uiso   1.00
Cu934  Cu    0.83333   0.11978   0.75000   0.00000  Uiso   1.00
H935   H     0.73472   0.13622   0.96004   0.00000  Uiso   1.00
H936   H     0.93586   0.14997   0.53797   0.00000  Uiso   1.00
H937   H     0.70271   0.03465   0.51424   0.00000  Uiso   1.00
H938   H     0.67285   0.12486   0.92138   0.00000  Uiso   1.00
H939   H     0.80894   0.06930   0.63572   0.00000  Uiso   1.00
H940   H     0.81826   0.26835   0.90317   0.00000  Uiso   1.00
H941   H     0.92839   0.07017   0.83250   0.00000  Uiso   1.00
H942   H     0.74023   0.26105   0.66195   0.00000  Uiso   1.00
I943   I     0.92273   0.18906   0.87003   0.00000  Uiso   1.00
I944   I     0.74036   0.16178   0.63315   0.00000  Uiso   1.00
I945   I     0.74056   0.16988   0.87365   0.00000  Uiso   1.00
I946   I     0.92527   0.17007   0.62718   0.00000  Uiso   1.00
I947   I     0.71748   0.07021   0.79778   0.00000  Uiso   1.00
I948   I     0.94896   0.26493   0.70590   0.00000  Uiso   1.00
I949   I     0.96181   0.05747   0.73961   0.00000  Uiso   1.00
I950   I     0.70596   0.27659   0.76017   0.00000  Uiso   1.00
N951   N     0.83333   0.28402   0.75000   0.00000  Uiso   1.00
N952   N     0.83333   0.04931   0.75000   0.00000  Uiso   1.00
O953   O     0.77321   0.20625   0.74999   0.00000  Uiso   1.00
O954   O     0.68755   0.12054   0.55550   0.00000  Uiso   1.00
O955   O     0.71826   0.05916   0.50029   0.00000  Uiso   1.00
O956   O     0.96268   0.07916   0.98794   0.00000  Uiso   1.00
O957   O     0.93602   0.08703   0.91315   0.00000  Uiso   1.00
O958   O     0.98782   0.14547   0.93978   0.00000  Uiso   1.00
O959   O     0.89438   0.07458   0.67241   0.00000  Uiso   1.00
O960   O     0.88867   0.33080   0.64504   0.00000  Uiso   1.00
O961   O     0.83447   0.05734   0.62107   0.00000  Uiso   1.00
O962   O     0.78070   0.00204   0.85767   0.00000  Uiso   1.00
O963   O     0.77271   0.25966   0.82758   0.00000  Uiso   1.00
O964   O     0.89345   0.12709   0.75000   0.00000  Uiso   1.00
O965   O     0.83552   0.27300   0.87627   0.00000  Uiso   1.00
O966   O     0.84232   0.05763   0.87250   0.00000  Uiso   1.00
O967   O     0.89396   0.33289   0.84941   0.00000  Uiso   1.00
O968   O     0.90173   0.08134   0.82132   0.00000  Uiso   1.00
O969   O     0.77286   0.00064   0.65067   0.00000  Uiso   1.00
O970   O     0.82450   0.27568   0.62763   0.00000  Uiso   1.00
O971   O     0.76481   0.25323   0.67929   0.00000  Uiso   1.00
O972   O     0.89345   0.20625   0.75000   0.00000  Uiso   1.00
O973   O     0.77321   0.12709   0.74999   0.00000  Uiso   1.00
O974   O     0.83332   0.20627   0.68513   0.00000  Uiso   1.00
O975   O     0.83334   0.12707   0.81487   0.00000  Uiso   1.00
O976   O     0.83334   0.20627   0.81487   0.00000  Uiso   1.00
O977   O     0.83332   0.12707   0.68513   0.00000  Uiso   1.00
O978   O     0.74342   0.06866   0.58067   0.00000  Uiso   1.00
S979   S     0.72701   0.09573   0.54214   0.00000  Uiso   1.00
S980   S     0.94889   0.11299   0.95334   0.00000  Uiso   1.00
S981   S     0.86464   0.03901   0.66242   0.00000  Uiso   1.00
S982   S     0.80340   0.29403   0.83789   0.00000  Uiso   1.00
S983   S     0.86923   0.04083   0.83411   0.00000  Uiso   1.00
S984   S     0.79770   0.29287   0.66596   0.00000  Uiso   1.00
C985   C     0.08748   0.50094   0.75327   0.00000  Uiso   1.00
C986   C     0.04240   0.50213   0.75660   0.00000  Uiso   1.00
C987   C     0.16923   0.35675   0.71102   0.00000  Uiso   1.00
C988   C     0.16436   0.64334   0.78894   0.00000  Uiso   1.00
C989   C     0.17235   0.35719   0.78837   0.00000  Uiso   1.00
C990   C     0.16122   0.64292   0.71161   0.00000  Uiso   1.00
C991   C     0.16611   0.49967   0.66465   0.00000  Uiso   1.00
C992   C     0.16673   0.50008   0.83532   0.00000  Uiso   1.00
C993   C     0.20414   0.49830   0.90579   0.00000  Uiso   1.00
C994   C     0.12931   0.48890   0.59432   0.00000  Uiso   1.00
C995   C     0.16686   0.49943   0.88383   0.00000  Uiso   1.00
C996   C     0.24591   0.49914   0.74717   0.00000  Uiso   1.00
C997   C     0.16584   0.49756   0.61606   0.00000  Uiso   1.00
C998   C     0.13007   0.49474   0.90750   0.00000  Uiso   1.00
C999   C     0.20312   0.49696   0.59233   0.00000  Uiso   1.00
C1000  C     0.13043   0.48812   0.95372   0.00000  Uiso   1.00
C1001  C     0.20371   0.49184   0.54586   0.00000  Uiso   1.00
C1002  C     0.16741   0.48849   0.97627   0.00000  Uiso   1.00
C1003  C     0.16695   0.48755   0.52336   0.00000  Uiso   1.00
C1004  C     0.20477   0.48957   0.95202   0.00000  Uiso   1.00
C1005  C     0.13004   0.48153   0.54755   0.00000  Uiso   1.00
C1006  C     0.09523   0.47705   0.97746   0.00000  Uiso   1.00
C1007  C     0.09585   0.46877   0.52309   0.00000  Uiso   1.00
C1008  C     0.24050   0.48715   0.52144   0.00000  Uiso   1.00
C1009  C     0.24102   0.48101   0.97544   0.00000  Uiso   1.00
C1010  C     0.02262   0.46072   0.76317   0.00000  Uiso   1.00
C1011  C     0.31077   0.54002   0.73866   0.00000  Uiso   1.00
C1012  C     0.31491   0.45799   0.75304   0.00000  Uiso   1.00
C1013  C     0.01862   0.54262   0.74833   0.00000  Uiso   1.00
C1014  C     0.29105   0.49835   0.74462   0.00000  Uiso   1.00
Cu1015 Cu    0.16667   0.54689   0.75000   0.00000  Uiso   1.00
Cu1016 Cu    0.16667   0.45311   0.75000   0.00000  Uiso   1.00
H1017  H     0.06805   0.46956   0.96004   0.00000  Uiso   1.00
H1018  H     0.26919   0.48331   0.53797   0.00000  Uiso   1.00
H1019  H     0.03604   0.36799   0.51424   0.00000  Uiso   1.00
H1020  H     0.00618   0.45820   0.92138   0.00000  Uiso   1.00
H1021  H     0.14227   0.40263   0.63572   0.00000  Uiso   1.00
H1022  H     0.15160   0.60168   0.90317   0.00000  Uiso   1.00
H1023  H     0.26173   0.40351   0.83250   0.00000  Uiso   1.00
H1024  H     0.07357   0.59438   0.66195   0.00000  Uiso   1.00
I1025  I     0.25606   0.52240   0.87003   0.00000  Uiso   1.00
I1026  I     0.07369   0.49511   0.63315   0.00000  Uiso   1.00
I1027  I     0.07389   0.50321   0.87365   0.00000  Uiso   1.00
I1028  I     0.25861   0.50340   0.62718   0.00000  Uiso   1.00
I1029  I     0.05081   0.40354   0.79778   0.00000  Uiso   1.00
I1030  I     0.28230   0.59826   0.70590   0.00000  Uiso   1.00
I1031  I     0.29514   0.39080   0.73961   0.00000  Uiso   1.00
I1032  I     0.03929   0.60992   0.76017   0.00000  Uiso   1.00
N1033  N     0.16667   0.61736   0.75000   0.00000  Uiso   1.00
N1034  N     0.16667   0.38264   0.75000   0.00000  Uiso   1.00
O1035  O     0.10655   0.53958   0.74999   0.00000  Uiso   1.00
O1036  O     0.02089   0.45388   0.55550   0.00000  Uiso   1.00
O1037  O     0.05160   0.39249   0.50029   0.00000  Uiso   1.00
O1038  O     0.29601   0.41249   0.98794   0.00000  Uiso   1.00
O1039  O     0.26935   0.42037   0.91315   0.00000  Uiso   1.00
O1040  O     0.32116   0.47880   0.93978   0.00000  Uiso   1.00
O1041  O     0.22771   0.40791   0.67241   0.00000  Uiso   1.00
O1042  O     0.22201   0.66414   0.64504   0.00000  Uiso   1.00
O1043  O     0.16780   0.39067   0.62107   0.00000  Uiso   1.00
O1044  O     0.11403   0.33538   0.85767   0.00000  Uiso   1.00
O1045  O     0.10605   0.59299   0.82758   0.00000  Uiso   1.00
O1046  O     0.22679   0.46042   0.75000   0.00000  Uiso   1.00
O1047  O     0.16885   0.60634   0.87627   0.00000  Uiso   1.00
O1048  O     0.17565   0.39096   0.87250   0.00000  Uiso   1.00
O1049  O     0.22729   0.66622   0.84941   0.00000  Uiso   1.00
O1050  O     0.23506   0.41468   0.82132   0.00000  Uiso   1.00
O1051  O     0.10619   0.33397   0.65067   0.00000  Uiso   1.00
O1052  O     0.15784   0.60902   0.62763   0.00000  Uiso   1.00
O1053  O     0.09815   0.58656   0.67929   0.00000  Uiso   1.00
O1054  O     0.22679   0.53958   0.75000   0.00000  Uiso   1.00
O1055  O     0.10655   0.46042   0.74999   0.00000  Uiso   1.00
O1056  O     0.16666   0.53960   0.68513   0.00000  Uiso   1.00
O1057  O     0.16668   0.46040   0.81487   0.00000  Uiso   1.00
O1058  O     0.16668   0.53960   0.81487   0.00000  Uiso   1.00
O1059  O     0.16666   0.46040   0.68513   0.00000  Uiso   1.00
O1060  O     0.07676   0.40199   0.58067   0.00000  Uiso   1.00
S1061  S     0.06035   0.42906   0.54214   0.00000  Uiso   1.00
S1062  S     0.28222   0.44632   0.95334   0.00000  Uiso   1.00
S1063  S     0.19798   0.37234   0.66242   0.00000  Uiso   1.00
S1064  S     0.13673   0.62736   0.83789   0.00000  Uiso   1.00
S1065  S     0.20256   0.37417   0.83411   0.00000  Uiso   1.00
S1066  S     0.13103   0.62621   0.66596   0.00000  Uiso   1.00
C1067  C     0.42082   0.50094   0.75327   0.00000  Uiso   1.00
C1068  C     0.37573   0.50213   0.75660   0.00000  Uiso   1.00
C1069  C     0.50256   0.35675   0.71102   0.00000  Uiso   1.00
C1070  C     0.49770   0.64334   0.78894   0.00000  Uiso   1.00
C1071  C     0.50568   0.35719   0.78837   0.00000  Uiso   1.00
C1072  C     0.49455   0.64292   0.71161   0.00000  Uiso   1.00
C1073  C     0.49944   0.49967   0.66465   0.00000  Uiso   1.00
C1074  C     0.50007   0.50008   0.83532   0.00000  Uiso   1.00
C1075  C     0.53747   0.49830   0.90579   0.00000  Uiso   1.00
C1076  C     0.46265   0.48890   0.59432   0.00000  Uiso   1.00
C1077  C     0.50019   0.49943   0.88383   0.00000  Uiso   1.00
C1078  C     0.57925   0.49914   0.74717   0.00000  Uiso   1.00
C1079  C     0.49917   0.49756   0.61606   0.00000  Uiso   1.00
C1080  C     0.46340   0.49474   0.90750   0.00000  Uiso   1.00
C1081  C     0.53646   0.49696   0.59233   0.00000  Uiso   1.00
C1082  C     0.46376   0.48812   0.95372   0.00000  Uiso   1.00
C1083  C     0.53704   0.49184   0.54586   0.00000  Uiso   1.00
C1084  C     0.50074   0.48849   0.97627   0.00000  Uiso   1.00
C1085  C     0.50028   0.48755   0.52336   0.00000  Uiso   1.00
C1086  C     0.53811   0.48957   0.95202   0.00000  Uiso   1.00
C1087  C     0.46338   0.48153   0.54755   0.00000  Uiso   1.00
C1088  C     0.42857   0.47705   0.97746   0.00000  Uiso   1.00
C1089  C     0.42918   0.46877   0.52309   0.00000  Uiso   1.00
C1090  C     0.57383   0.48715   0.52144   0.00000  Uiso   1.00
C1091  C     0.57436   0.48101   0.97544   0.00000  Uiso   1.00
C1092  C     0.35595   0.46072   0.76317   0.00000  Uiso   1.00
C1093  C     0.64410   0.54002   0.73866   0.00000  Uiso   1.00
C1094  C     0.64824   0.45799   0.75304   0.00000  Uiso   1.00
C1095  C     0.35195   0.54262   0.74833   0.00000  Uiso   1.00
C1096  C     0.62438   0.49835   0.74462   0.00000  Uiso   1.00
Cu1097 Cu    0.50000   0.54689   0.75000   0.00000  Uiso   1.00
Cu1098 Cu    0.50000   0.45311   0.75000   0.00000  Uiso   1.00
H1099  H     0.40138   0.46956   0.96004   0.00000  Uiso   1.00
H1100  H     0.60253   0.48331   0.53797   0.00000  Uiso   1.00
H1101  H     0.36938   0.36799   0.51424   0.00000  Uiso   1.00
H1102  H     0.33952   0.45820   0.92138   0.00000  Uiso   1.00
H1103  H     0.47560   0.40263   0.63572   0.00000  Uiso   1.00
H1104  H     0.48493   0.60168   0.90317   0.00000  Uiso   1.00
H1105  H     0.59506   0.40351   0.83250   0.00000  Uiso   1.00
H1106  H     0.40690   0.59438   0.66195   0.00000  Uiso   1.00
I1107  I     0.58940   0.52240   0.87003   0.00000  Uiso   1.00
I1108  I     0.40703   0.49511   0.63315   0.00000  Uiso   1.00
I1109  I     0.40722   0.50321   0.87365   0.00000  Uiso   1.00
I1110  I     0.59194   0.50340   0.62718   0.00000  Uiso   1.00
I1111  I     0.38415   0.40354   0.79778   0.00000  Uiso   1.00
I1112  I     0.61563   0.59826   0.70590   0.00000  Uiso   1.00
I1113  I     0.62847   0.39080   0.73961   0.00000  Uiso   1.00
I1114  I     0.37263   0.60992   0.76017   0.00000  Uiso   1.00
N1115  N     0.50000   0.61736   0.75000   0.00000  Uiso   1.00
N1116  N     0.50000   0.38264   0.75000   0.00000  Uiso   1.00
O1117  O     0.43988   0.53958   0.74999   0.00000  Uiso   1.00
O1118  O     0.35422   0.45388   0.55550   0.00000  Uiso   1.00
O1119  O     0.38493   0.39249   0.50029   0.00000  Uiso   1.00
O1120  O     0.62935   0.41249   0.98794   0.00000  Uiso   1.00
O1121  O     0.60269   0.42037   0.91315   0.00000  Uiso   1.00
O1122  O     0.65449   0.47880   0.93978   0.00000  Uiso   1.00
O1123  O     0.56104   0.40791   0.67241   0.00000  Uiso   1.00
O1124  O     0.55534   0.66414   0.64504   0.00000  Uiso   1.00
O1125  O     0.50113   0.39067   0.62107   0.00000  Uiso   1.00
O1126  O     0.44737   0.33538   0.85767   0.00000  Uiso   1.00
O1127  O     0.43938   0.59299   0.82758   0.00000  Uiso   1.00
O1128  O     0.56012   0.46042   0.75000   0.00000  Uiso   1.00
O1129  O     0.50219   0.60634   0.87627   0.00000  Uiso   1.00
O1130  O     0.50899   0.39096   0.87250   0.00000  Uiso   1.00
O1131  O     0.56063   0.66622   0.84941   0.00000  Uiso   1.00
O1132  O     0.56840   0.41468   0.82132   0.00000  Uiso   1.00
O1133  O     0.43952   0.33397   0.65067   0.00000  Uiso   1.00
O1134  O     0.49117   0.60902   0.62763   0.00000  Uiso   1.00
O1135  O     0.43148   0.58656   0.67929   0.00000  Uiso   1.00
O1136  O     0.56012   0.53958   0.75000   0.00000  Uiso   1.00
O1137  O     0.43988   0.46042   0.74999   0.00000  Uiso   1.00
O1138  O     0.49999   0.53960   0.68513   0.00000  Uiso   1.00
O1139  O     0.50001   0.46040   0.81487   0.00000  Uiso   1.00
O1140  O     0.50001   0.53960   0.81487   0.00000  Uiso   1.00
O1141  O     0.49999   0.46040   0.68513   0.00000  Uiso   1.00
O1142  O     0.41009   0.40199   0.58067   0.00000  Uiso   1.00
S1143  S     0.39368   0.42906   0.54214   0.00000  Uiso   1.00
S1144  S     0.61556   0.44632   0.95334   0.00000  Uiso   1.00
S1145  S     0.53131   0.37234   0.66242   0.00000  Uiso   1.00
S1146  S     0.47006   0.62736   0.83789   0.00000  Uiso   1.00
S1147  S     0.53589   0.37417   0.83411   0.00000  Uiso   1.00
S1148  S     0.46437   0.62621   0.66596   0.00000  Uiso   1.00
C1149  C     0.75415   0.50094   0.75327   0.00000  Uiso   1.00
C1150  C     0.70907   0.50213   0.75660   0.00000  Uiso   1.00
C1151  C     0.83590   0.35675   0.71102   0.00000  Uiso   1.00
C1152  C     0.83103   0.64334   0.78894   0.00000  Uiso   1.00
C1153  C     0.83902   0.35719   0.78837   0.00000  Uiso   1.00
C1154  C     0.82789   0.64292   0.71161   0.00000  Uiso   1.00
C1155  C     0.83278   0.49967   0.66465   0.00000  Uiso   1.00
C1156  C     0.83340   0.50008   0.83532   0.00000  Uiso   1.00
C1157  C     0.87080   0.49830   0.90579   0.00000  Uiso   1.00
C1158  C     0.79598   0.48890   0.59432   0.00000  Uiso   1.00
C1159  C     0.83352   0.49943   0.88383   0.00000  Uiso   1.00
C1160  C     0.91258   0.49914   0.74717   0.00000  Uiso   1.00
C1161  C     0.83251   0.49756   0.61606   0.00000  Uiso   1.00
C1162  C     0.79673   0.49474   0.90750   0.00000  Uiso   1.00
C1163  C     0.86979   0.49696   0.59233   0.00000  Uiso   1.00
C1164  C     0.79710   0.48812   0.95372   0.00000  Uiso   1.00
C1165  C     0.87038   0.49184   0.54586   0.00000  Uiso   1.00
C1166  C     0.83407   0.48849   0.97627   0.00000  Uiso   1.00
C1167  C     0.83361   0.48755   0.52336   0.00000  Uiso   1.00
C1168  C     0.87144   0.48957   0.95202   0.00000  Uiso   1.00
C1169  C     0.79671   0.48153   0.54755   0.00000  Uiso   1.00
C1170  C     0.76190   0.47705   0.97746   0.00000  Uiso   1.00
C1171  C     0.76252   0.46877   0.52309   0.00000  Uiso   1.00
C1172  C     0.90716   0.48715   0.52144   0.00000  Uiso   1.00
C1173  C     0.90769   0.48101   0.97544   0.00000  Uiso   1.00
C1174  C     0.68928   0.46072   0.76317   0.00000  Uiso   1.00
C1175  C     0.97743   0.54002   0.73866   0.00000  Uiso   1.00
C1176  C     0.98158   0.45799   0.75304   0.00000  Uiso   1.00
C1177  C     0.68529   0.54262   0.74833   0.00000  Uiso   1.00
C1178  C     0.95772   0.49835   0.74462   0.00000  Uiso   1.00
Cu1179 Cu    0.83333   0.54689   0.75000   0.00000  Uiso   1.00
Cu1180 Cu    0.83333   0.45311   0.75000   0.00000  Uiso   1.00
H1181  H     0.73472   0.46956   0.96004   0.00000  Uiso   1.00
H1182  H     0.93586   0.48331   0.53797   0.00000  Uiso   1.00
H1183  H     0.70271   0.36799   0.51424   0.00000  Uiso   1.00
H1184  H     0.67285   0.45820   0.92138   0.00000  Uiso   1.00
H1185  H     0.80894   0.40263   0.63572   0.00000  Uiso   1.00
H1186  H     0.81826   0.60168   0.90317   0.00000  Uiso   1.00
H1187  H     0.92839   0.40351   0.83250   0.00000  Uiso   1.00
H1188  H     0.74023   0.59438   0.66195   0.00000  Uiso   1.00
I1189  I     0.92273   0.52240   0.87003   0.00000  Uiso   1.00
I1190  I     0.74036   0.49511   0.63315   0.00000  Uiso   1.00
I1191  I     0.74056   0.50321   0.87365   0.00000  Uiso   1.00
I1192  I     0.92527   0.50340   0.62718   0.00000  Uiso   1.00
I1193  I     0.71748   0.40354   0.79778   0.00000  Uiso   1.00
I1194  I     0.94896   0.59826   0.70590   0.00000  Uiso   1.00
I1195  I     0.96181   0.39080   0.73961   0.00000  Uiso   1.00
I1196  I     0.70596   0.60992   0.76017   0.00000  Uiso   1.00
N1197  N     0.83333   0.61736   0.75000   0.00000  Uiso   1.00
N1198  N     0.83333   0.38264   0.75000   0.00000  Uiso   1.00
O1199  O     0.77321   0.53958   0.74999   0.00000  Uiso   1.00
O1200  O     0.68755   0.45388   0.55550   0.00000  Uiso   1.00
O1201  O     0.71826   0.39249   0.50029   0.00000  Uiso   1.00
O1202  O     0.96268   0.41249   0.98794   0.00000  Uiso   1.00
O1203  O     0.93602   0.42037   0.91315   0.00000  Uiso   1.00
O1204  O     0.98782   0.47880   0.93978   0.00000  Uiso   1.00
O1205  O     0.89438   0.40791   0.67241   0.00000  Uiso   1.00
O1206  O     0.88867   0.66414   0.64504   0.00000  Uiso   1.00
O1207  O     0.83447   0.39067   0.62107   0.00000  Uiso   1.00
O1208  O     0.78070   0.33538   0.85767   0.00000  Uiso   1.00
O1209  O     0.77271   0.59299   0.82758   0.00000  Uiso   1.00
O1210  O     0.89345   0.46042   0.75000   0.00000  Uiso   1.00
O1211  O     0.83552   0.60634   0.87627   0.00000  Uiso   1.00
O1212  O     0.84232   0.39096   0.87250   0.00000  Uiso   1.00
O1213  O     0.89396   0.66622   0.84941   0.00000  Uiso   1.00
O1214  O     0.90173   0.41468   0.82132   0.00000  Uiso   1.00
O1215  O     0.77286   0.33397   0.65067   0.00000  Uiso   1.00
O1216  O     0.82450   0.60902   0.62763   0.00000  Uiso   1.00
O1217  O     0.76481   0.58656   0.67929   0.00000  Uiso   1.00
O1218  O     0.89345   0.53958   0.75000   0.00000  Uiso   1.00
O1219  O     0.77321   0.46042   0.74999   0.00000  Uiso   1.00
O1220  O     0.83332   0.53960   0.68513   0.00000  Uiso   1.00
O1221  O     0.83334   0.46040   0.81487   0.00000  Uiso   1.00
O1222  O     0.83334   0.53960   0.81487   0.00000  Uiso   1.00
O1223  O     0.83332   0.46040   0.68513   0.00000  Uiso   1.00
O1224  O     0.74342   0.40199   0.58067   0.00000  Uiso   1.00
S1225  S     0.72701   0.42906   0.54214   0.00000  Uiso   1.00
S1226  S     0.94889   0.44632   0.95334   0.00000  Uiso   1.00
S1227  S     0.86464   0.37234   0.66242   0.00000  Uiso   1.00
S1228  S     0.80340   0.62736   0.83789   0.00000  Uiso   1.00
S1229  S     0.86923   0.37417   0.83411   0.00000  Uiso   1.00
S1230  S     0.79770   0.62621   0.66596   0.00000  Uiso   1.00
C1231  C     0.08748   0.83427   0.75327   0.00000  Uiso   1.00
C1232  C     0.04240   0.83547   0.75660   0.00000  Uiso   1.00
C1233  C     0.16923   0.69009   0.71102   0.00000  Uiso   1.00
C1234  C     0.16436   0.97667   0.78894   0.00000  Uiso   1.00
C1235  C     0.17235   0.69052   0.78837   0.00000  Uiso   1.00
C1236  C     0.16122   0.97625   0.71161   0.00000  Uiso   1.00
C1237  C     0.16611   0.83301   0.66465   0.00000  Uiso   1.00
C1238  C     0.16673   0.83342   0.83532   0.00000  Uiso   1.00
C1239  C     0.20414   0.83164   0.90579   0.00000  Uiso   1.00
C1240  C     0.12931   0.82223   0.59432   0.00000  Uiso   1.00
C1241  C     0.16686   0.83277   0.88383   0.00000  Uiso   1.00
C1242  C     0.24591   0.83247   0.74717   0.00000  Uiso   1.00
C1243  C     0.16584   0.83089   0.61606   0.00000  Uiso   1.00
C1244  C     0.13007   0.82807   0.90750   0.00000  Uiso   1.00
C1245  C     0.20312   0.83030   0.59233   0.00000  Uiso   1.00
C1246  C     0.13043   0.82145   0.95372   0.00000  Uiso   1.00
C1247  C     0.20371   0.82517   0.54586   0.00000  Uiso   1.00
C1248  C     0.16741   0.82182   0.97627   0.00000  Uiso   1.00
C1249  C     0.16695   0.82088   0.52336   0.00000  Uiso   1.00
C1250  C     0.20477   0.82290   0.95202   0.00000  Uiso   1.00
C1251  C     0.13004   0.81486   0.54755   0.00000  Uiso   1.00
C1252  C     0.09523   0.81038   0.97746   0.00000  Uiso   1.00
C1253  C     0.09585   0.80210   0.52309   0.00000  Uiso   1.00
C1254  C     0.24050   0.82048   0.52144   0.00000  Uiso   1.00
C1255  C     0.24102   0.81434   0.97544   0.00000  Uiso   1.00
C1256  C     0.02262   0.79405   0.76317   0.00000  Uiso   1.00
C1257  C     0.31077   0.87335   0.73866   0.00000  Uiso   1.00
C1258  C     0.31491   0.79132   0.75304   0.00000  Uiso   1.00
C1259  C     0.01862   0.87595   0.74833   0.00000  Uiso   1.00
C1260  C     0.29105   0.83168   0.74462   0.00000  Uiso   1.00
Cu1261 Cu    0.16667   0.88022   0.75000   0.00000  Uiso   1.00
Cu1262 Cu    0.16667   0.78645   0.75000   0.00000  Uiso   1.00
H1263  H     0.06805   0.80289   0.96004   0.00000  Uiso   1.00
H1264  H     0.26919   0.81664   0.53797   0.00000  Uiso   1.00
H1265  H     0.03604   0.70132   0.51424   0.00000  Uiso   1.00
H1266  H     0.00618   0.79153   0.92138   0.00000  Uiso   1.00
H1267  H     0.14227   0.73597   0.63572   0.00000  Uiso   1.00
H1268  H     0.15160   0.93501   0.90317   0.00000  Uiso   1.00
H1269  H     0.26173   0.73684   0.83250   0.00000  Uiso   1.00
H1270  H     0.07357   0.92771   0.66195   0.00000  Uiso   1.00
I1271  I     0.25606   0.85573   0.87003   0.00000  Uiso   1.00
I1272  I     0.07369   0.82844   0.63315   0.00000  Uiso   1.00
I1273  I     0.07389   0.83655   0.87365   0.00000  Uiso   1.00
I1274  I     0.25861   0.83673   0.62718   0.00000  Uiso   1.00
I1275  I     0.05081   0.73688   0.79778   0.00000  Uiso   1.00
I1276  I     0.28230   0.93160   0.70590   0.00000  Uiso   1.00
I1277  I     0.29514   0.72413   0.73961   0.00000  Uiso   1.00
I1278  I     0.03929   0.94325   0.76017   0.00000  Uiso   1.00
N1279  N     0.16667   0.95069   0.75000   0.00000  Uiso   1.00
N1280  N     0.16667   0.71598   0.75000   0.00000  Uiso   1.00
O1281  O     0.10655   0.87291   0.74999   0.00000  Uiso   1.00
O1282  O     0.02089   0.78721   0.55550   0.00000  Uiso   1.00
O1283  O     0.05160   0.72582   0.50029   0.00000  Uiso   1.00
O1284  O     0.29601   0.74583   0.98794   0.00000  Uiso   1.00
O1285  O     0.26935   0.75370   0.91315   0.00000  Uiso   1.00
O1286  O     0.32116   0.81213   0.93978   0.00000  Uiso   1.00
O1287  O     0.22771   0.74125   0.67241   0.00000  Uiso   1.00
O1288  O     0.22201   0.99747   0.64504   0.00000  Uiso   1.00
O1289  O     0.16780   0.72401   0.62107   0.00000  Uiso   1.00
O1290  O     0.11403   0.66871   0.85767   0.00000  Uiso   1.00
O1291  O     0.10605   0.92632   0.82758   0.00000  Uiso   1.00
O1292  O     0.22679   0.79375   0.75000   0.00000  Uiso   1.00
O1293  O     0.16885   0.93967   0.87627   0.00000  Uiso   1.00
O1294  O     0.17565   0.72429   0.87250   0.00000  Uiso   1.00
O1295  O     0.22729   0.99956   0.84941   0.00000  Uiso   1.00
O1296  O     0.23506   0.74801   0.82132   0.00000  Uiso   1.00
O1297  O     0.10619   0.66731   0.65067   0.00000  Uiso   1.00
O1298  O     0.15784   0.94235   0.62763   0.00000  Uiso   1.00
O1299  O     0.09815   0.91990   0.67929   0.00000  Uiso   1.00
O1300  O     0.22679   0.87291   0.75000   0.00000  Uiso   1.00
O1301  O     0.10655   0.79375   0.74999   0.00000  Uiso   1.00
O1302  O     0.16666   0.87293   0.68513   0.00000  Uiso   1.00
O1303  O     0.16668   0.79373   0.81487   0.00000  Uiso   1.00
O1304  O     0.16668   0.87293   0.81487   0.00000  Uiso   1.00
O1305  O     0.16666   0.79373   0.68513   0.00000  Uiso   1.00
O1306  O     0.07676   0.73532   0.58067   0.00000  Uiso   1.00
S1307  S     0.06035   0.76240   0.54214   0.00000  Uiso   1.00
S1308  S     0.28222   0.77965   0.95334   0.00000  Uiso   1.00
S1309  S     0.19798   0.70567   0.66242   0.00000  Uiso   1.00
S1310  S     0.13673   0.96069   0.83789   0.00000  Uiso   1.00
S1311  S     0.20256   0.70750   0.83411   0.00000  Uiso   1.00
S1312  S     0.13103   0.95954   0.66596   0.00000  Uiso   1.00
C1313  C     0.42082   0.83427   0.75327   0.00000  Uiso   1.00
C1314  C     0.37573   0.83547   0.75660   0.00000  Uiso   1.00
C1315  C     0.50256   0.69009   0.71102   0.00000  Uiso   1.00
C1316  C     0.49770   0.97667   0.78894   0.00000  Uiso   1.00
C1317  C     0.50568   0.69052   0.78837   0.00000  Uiso   1.00
C1318  C     0.49455   0.97625   0.71161   0.00000  Uiso   1.00
C1319  C     0.49944   0.83301   0.66465   0.00000  Uiso   1.00
C1320  C     0.50007   0.83342   0.83532   0.00000  Uiso   1.00
C1321  C     0.53747   0.83164   0.90579   0.00000  Uiso   1.00
C1322  C     0.46265   0.82223   0.59432   0.00000  Uiso   1.00
C1323  C     0.50019   0.83277   0.88383   0.00000  Uiso   1.00
C1324  C     0.57925   0.83247   0.74717   0.00000  Uiso   1.00
C1325  C     0.49917   0.83089   0.61606   0.00000  Uiso   1.00
C1326  C     0.46340   0.82807   0.90750   0.00000  Uiso   1.00
C1327  C     0.53646   0.83030   0.59233   0.00000  Uiso   1.00
C1328  C     0.46376   0.82145   0.95372   0.00000  Uiso   1.00
C1329  C     0.53704   0.82517   0.54586   0.00000  Uiso   1.00
C1330  C     0.50074   0.82182   0.97627   0.00000  Uiso   1.00
C1331  C     0.50028   0.82088   0.52336   0.00000  Uiso   1.00
C1332  C     0.53811   0.82290   0.95202   0.00000  Uiso   1.00
C1333  C     0.46338   0.81486   0.54755   0.00000  Uiso   1.00
C1334  C     0.42857   0.81038   0.97746   0.00000  Uiso   1.00
C1335  C     0.42918   0.80210   0.52309   0.00000  Uiso   1.00
C1336  C     0.57383   0.82048   0.52144   0.00000  Uiso   1.00
C1337  C     0.57436   0.81434   0.97544   0.00000  Uiso   1.00
C1338  C     0.35595   0.79405   0.76317   0.00000  Uiso   1.00
C1339  C     0.64410   0.87335   0.73866   0.00000  Uiso   1.00
C1340  C     0.64824   0.79132   0.75304   0.00000  Uiso   1.00
C1341  C     0.35195   0.87595   0.74833   0.00000  Uiso   1.00
C1342  C     0.62438   0.83168   0.74462   0.00000  Uiso   1.00
Cu1343 Cu    0.50000   0.88022   0.75000   0.00000  Uiso   1.00
Cu1344 Cu    0.50000   0.78645   0.75000   0.00000  Uiso   1.00
H1345  H     0.40138   0.80289   0.96004   0.00000  Uiso   1.00
H1346  H     0.60253   0.81664   0.53797   0.00000  Uiso   1.00
H1347  H     0.36938   0.70132   0.51424   0.00000  Uiso   1.00
H1348  H     0.33952   0.79153   0.92138   0.00000  Uiso   1.00
H1349  H     0.47560   0.73597   0.63572   0.00000  Uiso   1.00
H1350  H     0.48493   0.93501   0.90317   0.00000  Uiso   1.00
H1351  H     0.59506   0.73684   0.83250   0.00000  Uiso   1.00
H1352  H     0.40690   0.92771   0.66195   0.00000  Uiso   1.00
I1353  I     0.58940   0.85573   0.87003   0.00000  Uiso   1.00
I1354  I     0.40703   0.82844   0.63315   0.00000  Uiso   1.00
I1355  I     0.40722   0.83655   0.87365   0.00000  Uiso   1.00
I1356  I     0.59194   0.83673   0.62718   0.00000  Uiso   1.00
I1357  I     0.38415   0.73688   0.79778   0.00000  Uiso   1.00
I1358  I     0.61563   0.93160   0.70590   0.00000  Uiso   1.00
I1359  I     0.62847   0.72413   0.73961   0.00000  Uiso   1.00
I1360  I     0.37263   0.94325   0.76017   0.00000  Uiso   1.00
N1361  N     0.50000   0.95069   0.75000   0.00000  Uiso   1.00
N1362  N     0.50000   0.71598   0.75000   0.00000  Uiso   1.00
O1363  O     0.43988   0.87291   0.74999   0.00000  Uiso   1.00
O1364  O     0.35422   0.78721   0.55550   0.00000  Uiso   1.00
O1365  O     0.38493   0.72582   0.50029   0.00000  Uiso   1.00
O1366  O     0.62935   0.74583   0.98794   0.00000  Uiso   1.00
O1367  O     0.60269   0.75370   0.91315   0.00000  Uiso   1.00
O1368  O     0.65449   0.81213   0.93978   0.00000  Uiso   1.00
O1369  O     0.56104   0.74125   0.67241   0.00000  Uiso   1.00
O1370  O     0.55534   0.99747   0.64504   0.00000  Uiso   1.00
O1371  O     0.50113   0.72401   0.62107   0.00000  Uiso   1.00
O1372  O     0.44737   0.66871   0.85767   0.00000  Uiso   1.00
O1373  O     0.43938   0.92632   0.82758   0.00000  Uiso   1.00
O1374  O     0.56012   0.79375   0.75000   0.00000  Uiso   1.00
O1375  O     0.50219   0.93967   0.87627   0.00000  Uiso   1.00
O1376  O     0.50899   0.72429   0.87250   0.00000  Uiso   1.00
O1377  O     0.56063   0.99956   0.84941   0.00000  Uiso   1.00
O1378  O     0.56840   0.74801   0.82132   0.00000  Uiso   1.00
O1379  O     0.43952   0.66731   0.65067   0.00000  Uiso   1.00
O1380  O     0.49117   0.94235   0.62763   0.00000  Uiso   1.00
O1381  O     0.43148   0.91990   0.67929   0.00000  Uiso   1.00
O1382  O     0.56012   0.87291   0.75000   0.00000  Uiso   1.00
O1383  O     0.43988   0.79375   0.74999   0.00000  Uiso   1.00
O1384  O     0.49999   0.87293   0.68513   0.00000  Uiso   1.00
O1385  O     0.50001   0.79373   0.81487   0.00000  Uiso   1.00
O1386  O     0.50001   0.87293   0.81487   0.00000  Uiso   1.00
O1387  O     0.49999   0.79373   0.68513   0.00000  Uiso   1.00
O1388  O     0.41009   0.73532   0.58067   0.00000  Uiso   1.00
S1389  S     0.39368   0.76240   0.54214   0.00000  Uiso   1.00
S1390  S     0.61556   0.77965   0.95334   0.00000  Uiso   1.00
S1391  S     0.53131   0.70567   0.66242   0.00000  Uiso   1.00
S1392  S     0.47006   0.96069   0.83789   0.00000  Uiso   1.00
S1393  S     0.53589   0.70750   0.83411   0.00000  Uiso   1.00
S1394  S     0.46437   0.95954   0.66596   0.00000  Uiso   1.00
C1395  C     0.75415   0.83427   0.75327   0.00000  Uiso   1.00
C1396  C     0.70907   0.83547   0.75660   0.00000  Uiso   1.00
C1397  C     0.83590   0.69009   0.71102   0.00000  Uiso   1.00
C1398  C     0.83103   0.97667   0.78894   0.00000  Uiso   1.00
C1399  C     0.83902   0.69052   0.78837   0.00000  Uiso   1.00
C1400  C     0.82789   0.97625   0.71161   0.00000  Uiso   1.00
C1401  C     0.83278   0.83301   0.66465   0.00000  Uiso   1.00
C1402  C     0.83340   0.83342   0.83532   0.00000  Uiso   1.00
C1403  C     0.87080   0.83164   0.90579   0.00000  Uiso   1.00
C1404  C     0.79598   0.82223   0.59432   0.00000  Uiso   1.00
C1405  C     0.83352   0.83277   0.88383   0.00000  Uiso   1.00
C1406  C     0.91258   0.83247   0.74717   0.00000  Uiso   1.00
C1407  C     0.83251   0.83089   0.61606   0.00000  Uiso   1.00
C1408  C     0.79673   0.82807   0.90750   0.00000  Uiso   1.00
C1409  C     0.86979   0.83030   0.59233   0.00000  Uiso   1.00
C1410  C     0.79710   0.82145   0.95372   0.00000  Uiso   1.00
C1411  C     0.87038   0.82517   0.54586   0.00000  Uiso   1.00
C1412  C     0.83407   0.82182   0.97627   0.00000  Uiso   1.00
C1413  C     0.83361   0.82088   0.52336   0.00000  Uiso   1.00
C1414  C     0.87144   0.82290   0.95202   0.00000  Uiso   1.00
C1415  C     0.79671   0.81486   0.54755   0.00000  Uiso   1.00
C1416  C     0.76190   0.81038   0.97746   0.00000  Uiso   1.00
C1417  C     0.76252   0.80210   0.52309   0.00000  Uiso   1.00
C1418  C     0.90716   0.82048   0.52144   0.00000  Uiso   1.00
C1419  C     0.90769   0.81434   0.97544   0.00000  Uiso   1.00
C1420  C     0.68928   0.79405   0.76317   0.00000  Uiso   1.00
C1421  C     0.97743   0.87335   0.73866   0.00000  Uiso   1.00
C1422  C     0.98158   0.79132   0.75304   0.00000  Uiso   1.00
C1423  C     0.68529   0.87595   0.74833   0.00000  Uiso   1.00
C1424  C     0.95772   0.83168   0.74462   0.00000  Uiso   1.00
Cu1425 Cu    0.83333   0.88022   0.75000   0.00000  Uiso   1.00
Cu1426 Cu    0.83333   0.78645   0.75000   0.00000  Uiso   1.00
H1427  H     0.73472   0.80289   0.96004   0.00000  Uiso   1.00
H1428  H     0.93586   0.81664   0.53797   0.00000  Uiso   1.00
H1429  H     0.70271   0.70132   0.51424   0.00000  Uiso   1.00
H1430  H     0.67285   0.79153   0.92138   0.00000  Uiso   1.00
H1431  H     0.80894   0.73597   0.63572   0.00000  Uiso   1.00
H1432  H     0.81826   0.93501   0.90317   0.00000  Uiso   1.00
H1433  H     0.92839   0.73684   0.83250   0.00000  Uiso   1.00
H1434  H     0.74023   0.92771   0.66195   0.00000  Uiso   1.00
I1435  I     0.92273   0.85573   0.87003   0.00000  Uiso   1.00
I1436  I     0.74036   0.82844   0.63315   0.00000  Uiso   1.00
I1437  I     0.74056   0.83655   0.87365   0.00000  Uiso   1.00
I1438  I     0.92527   0.83673   0.62718   0.00000  Uiso   1.00
I1439  I     0.71748   0.73688   0.79778   0.00000  Uiso   1.00
I1440  I     0.94896   0.93160   0.70590   0.00000  Uiso   1.00
I1441  I     0.96181   0.72413   0.73961   0.00000  Uiso   1.00
I1442  I     0.70596   0.94325   0.76017   0.00000  Uiso   1.00
N1443  N     0.83333   0.95069   0.75000   0.00000  Uiso   1.00
N1444  N     0.83333   0.71598   0.75000   0.00000  Uiso   1.00
O1445  O     0.77321   0.87291   0.74999   0.00000  Uiso   1.00
O1446  O     0.68755   0.78721   0.55550   0.00000  Uiso   1.00
O1447  O     0.71826   0.72582   0.50029   0.00000  Uiso   1.00
O1448  O     0.96268   0.74583   0.98794   0.00000  Uiso   1.00
O1449  O     0.93602   0.75370   0.91315   0.00000  Uiso   1.00
O1450  O     0.98782   0.81213   0.93978   0.00000  Uiso   1.00
O1451  O     0.89438   0.74125   0.67241   0.00000  Uiso   1.00
O1452  O     0.88867   0.99747   0.64504   0.00000  Uiso   1.00
O1453  O     0.83447   0.72401   0.62107   0.00000  Uiso   1.00
O1454  O     0.78070   0.66871   0.85767   0.00000  Uiso   1.00
O1455  O     0.77271   0.92632   0.82758   0.00000  Uiso   1.00
O1456  O     0.89345   0.79375   0.75000   0.00000  Uiso   1.00
O1457  O     0.83552   0.93967   0.87627   0.00000  Uiso   1.00
O1458  O     0.84232   0.72429   0.87250   0.00000  Uiso   1.00
O1459  O     0.89396   0.99956   0.84941   0.00000  Uiso   1.00
O1460  O     0.90173   0.74801   0.82132   0.00000  Uiso   1.00
O1461  O     0.77286   0.66731   0.65067   0.00000  Uiso   1.00
O1462  O     0.82450   0.94235   0.62763   0.00000  Uiso   1.00
O1463  O     0.76481   0.91990   0.67929   0.00000  Uiso   1.00
O1464  O     0.89345   0.87291   0.75000   0.00000  Uiso   1.00
O1465  O     0.77321   0.79375   0.74999   0.00000  Uiso   1.00
O1466  O     0.83332   0.87293   0.68513   0.00000  Uiso   1.00
O1467  O     0.83334   0.79373   0.81487   0.00000  Uiso   1.00
O1468  O     0.83334   0.87293   0.81487   0.00000  Uiso   1.00
O1469  O     0.83332   0.79373   0.68513   0.00000  Uiso   1.00
O1470  O     0.74342   0.73532   0.58067   0.00000  Uiso   1.00
S1471  S     0.72701   0.76240   0.54214   0.00000  Uiso   1.00
S1472  S     0.94889   0.77965   0.95334   0.00000  Uiso   1.00
S1473  S     0.86464   0.70567   0.66242   0.00000  Uiso   1.00
S1474  S     0.80340   0.96069   0.83789   0.00000  Uiso   1.00
S1475  S     0.86923   0.70750   0.83411   0.00000  Uiso   1.00
S1476  S     0.79770   0.95954   0.66596   0.00000  Uiso   1.00
loop_
_geom_bond_atom_site_label_1
_geom_bond_atom_site_label_2
_geom_bond_distance
_geom_bond_site_symmetry_2
_ccdc_geom_bond_type
C1     O71     1.317   .     A
C1     C2      1.484   .     S
C1     O51     1.322   .     A
C2     C29     1.415   .     A
C2     C26     1.416   .     A
C3     S79     1.794   .     S
C3     N50     1.388   .     A
C3     C498    1.418   1_545 S
C4     S80     1.787   .     S
C4     N49     1.388   .     A
C4     C251    1.418   .     S
C5     S81     1.794   .     S
C5     N50     1.388   .     A
C5     C496    1.418   1_545 S
C6     S82     1.790   .     S
C6     N49     1.389   .     A
C6     C249    1.418   .     S
C7     O75     1.307   .     A
C7     O72     1.317   .     A
C7     C13     1.460   .     S
C8     O74     1.313   .     A
C8     C11     1.456   .     S
C8     O73     1.309   .     A
C9     C11     1.406   .     A
C9     C20     1.413   .     A
C9     I41     2.148   .     S
C10    I42     2.148   .     S
C10    C21     1.418   .     A
C10    C13     1.414   .     A
C11    C14     1.403   .     A
C12    O62     1.324   .     A
C12    O70     1.315   .     A
C12    C30     1.486   .     S
C13    C15     1.405   .     A
C14    C16     1.402   .     A
C14    I43     2.136   .     S
C15    I44     2.141   .     S
C15    C17     1.401   .     A
C16    C22     1.399   .     A
C16    C18     1.407   .     A
C17    C24     1.402   .     A
C17    C19     1.410   .     A
C18    C20     1.417   .     A
C18    C757    1.413   .     S
C19    C21     1.420   .     A
C19    C756    1.413   1_554 S
C20    C25     1.412   .     A
C21    C23     1.421   .     A
C22    H33     1.077   .     S
C22    C761    1.393   .     S
C23    S77     1.775   .     S
C23    C760    1.393   1_554 S
C24    H34     1.079   .     S
C24    C763    1.391   1_554 S
C25    S78     1.769   .     S
C25    C762    1.391   .     S
C26    I45     2.159   .     S
C26    C192    1.398   1_455 S
C27    C30     1.419   .     A
C27    I46     2.160   .     S
C27    C111    1.399   .     S
C28    I47     2.138   .     S
C28    C30     1.415   .     A
C28    C108    1.398   .     S
C29    I48     2.144   .     S
C29    C191    1.399   1_455 S
Cu31   O70     1.981   .     S
Cu31   N49     2.062   .     S
Cu31   O74     1.960   .     S
Cu31   Cu32    2.744   .     S
Cu31   O72     1.957   .     S
Cu31   O51     2.001   .     S
Cu32   O75     1.960   .     S
Cu32   O71     1.981   .     S
Cu32   O73     1.957   .     S
Cu32   N50     2.062   .     S
Cu32   O62     2.001   .     S
H35    O53     0.991   .     S
H36    O220    0.990   1_455 S
H37    O59     0.988   .     S
H38    O63     0.991   .     S
H39    O66     0.989   .     S
H40    O69     0.991   .     S
O52    S77     1.503   .     D
O53    S77     1.683   .     S
O54    S78     1.503   .     D
O55    S78     1.501   .     D
O56    S78     1.676   .     S
O56    H118    0.990   .     S
O57    S79     1.496   .     D
O58    S325    1.502   .     S
O59    S79     1.683   .     S
O60    S572    1.503   1_545 S
O61    S80     1.495   .     D
O63    S80     1.682   .     S
O64    S81     1.503   .     D
O65    S327    1.505   .     S
O66    S81     1.675   .     S
O67    S574    1.503   1_545 S
O68    S82     1.503   .     D
O69    S82     1.669   .     S
O76    S77     1.503   .     D
S79    O550    1.502   1_545 S
S80    O306    1.503   .     S
S81    O557    1.505   1_545 S
S82    O313    1.503   .     S
C83    O153    1.317   .     A
C83    C84     1.484   .     S
C83    O133    1.322   .     A
C84    C111    1.415   .     A
C84    C108    1.416   .     A
C85    S161    1.794   .     S
C85    N132    1.388   .     A
C85    C580    1.418   1_545 S
C86    S162    1.787   .     S
C86    N131    1.388   .     A
C86    C333    1.418   .     S
C87    S163    1.794   .     S
C87    N132    1.388   .     A
C87    C578    1.418   1_545 S
C88    S164    1.790   .     S
C88    N131    1.389   .     A
C88    C331    1.418   .     S
C89    O157    1.307   .     A
C89    O154    1.317   .     A
C89    C95     1.460   .     S
C90    O156    1.313   .     A
C90    C93     1.456   .     S
C90    O155    1.309   .     A
C91    C93     1.406   .     A
C91    C102    1.413   .     A
C91    I123    2.148   .     S
C92    I124    2.148   .     S
C92    C103    1.418   .     A
C92    C95     1.414   .     A
C93    C96     1.403   .     A
C94    O144    1.324   .     A
C94    O152    1.315   .     A
C94    C112    1.486   .     S
C95    C97     1.405   .     A
C96    C98     1.402   .     A
C96    I125    2.136   .     S
C97    I126    2.141   .     S
C97    C99     1.401   .     A
C98    C104    1.399   .     A
C98    C100    1.407   .     A
C99    C106    1.402   .     A
C99    C101    1.410   .     A
C100   C102    1.417   .     A
C100   C839    1.413   .     S
C101   C103    1.420   .     A
C101   C838    1.413   1_554 S
C102   C107    1.412   .     A
C103   C105    1.421   .     A
C104   H115    1.077   .     S
C104   C843    1.393   .     S
C105   S159    1.775   .     S
C105   C842    1.393   1_554 S
C106   H116    1.079   .     S
C106   C845    1.391   1_554 S
C107   S160    1.769   .     S
C107   C844    1.391   .     S
C108   I127    2.159   .     S
C109   C112    1.419   .     A
C109   I128    2.160   .     S
C109   C193    1.399   .     S
C110   I129    2.138   .     S
C110   C112    1.415   .     A
C110   C190    1.398   .     S
C111   I130    2.144   .     S
Cu113  O152    1.981   .     S
Cu113  N131    2.062   .     S
Cu113  O156    1.960   .     S
Cu113  Cu114   2.744   .     S
Cu113  O154    1.957   .     S
Cu113  O133    2.001   .     S
Cu114  O157    1.960   .     S
Cu114  O153    1.981   .     S
Cu114  O155    1.957   .     S
Cu114  N132    2.062   .     S
Cu114  O144    2.001   .     S
H117   O135    0.991   .     S
H119   O141    0.988   .     S
H120   O145    0.991   .     S
H121   O148    0.989   .     S
H122   O151    0.991   .     S
O134   S159    1.503   .     D
O135   S159    1.683   .     S
O136   S160    1.503   .     D
O137   S160    1.501   .     D
O138   S160    1.676   .     S
O138   H200    0.990   .     S
O139   S161    1.496   .     D
O140   S407    1.502   .     S
O141   S161    1.683   .     S
O142   S654    1.503   1_545 S
O143   S162    1.495   .     D
O145   S162    1.682   .     S
O146   S163    1.503   .     D
O147   S409    1.505   .     S
O148   S163    1.675   .     S
O149   S656    1.503   1_545 S
O150   S164    1.503   .     D
O151   S164    1.669   .     S
O158   S159    1.503   .     D
S161   O632    1.502   1_545 S
S162   O388    1.503   .     S
S163   O639    1.505   1_545 S
S164   O395    1.503   .     S
C165   O235    1.317   .     A
C165   C166    1.484   .     S
C165   O215    1.322   .     A
C166   C193    1.415   .     A
C166   C190    1.416   .     A
C167   S243    1.794   .     S
C167   N214    1.388   .     A
C167   C662    1.418   1_545 S
C168   S244    1.787   .     S
C168   N213    1.388   .     A
C168   C415    1.418   .     S
C169   S245    1.794   .     S
C169   N214    1.388   .     A
C169   C660    1.418   1_545 S
C170   S246    1.790   .     S
C170   N213    1.389   .     A
C170   C413    1.418   .     S
C171   O239    1.307   .     A
C171   O236    1.317   .     A
C171   C177    1.460   .     S
C172   O238    1.313   .     A
C172   C175    1.456   .     S
C172   O237    1.309   .     A
C173   C175    1.406   .     A
C173   C184    1.413   .     A
C173   I205    2.148   .     S
C174   I206    2.148   .     S
C174   C185    1.418   .     A
C174   C177    1.414   .     A
C175   C178    1.403   .     A
C176   O226    1.324   .     A
C176   O234    1.315   .     A
C176   C194    1.486   .     S
C177   C179    1.405   .     A
C178   C180    1.402   .     A
C178   I207    2.136   .     S
C179   I208    2.141   .     S
C179   C181    1.401   .     A
C180   C186    1.399   .     A
C180   C182    1.407   .     A
C181   C188    1.402   .     A
C181   C183    1.410   .     A
C182   C184    1.417   .     A
C182   C921    1.413   .     S
C183   C185    1.420   .     A
C183   C920    1.413   1_554 S
C184   C189    1.412   .     A
C185   C187    1.421   .     A
C186   H197    1.077   .     S
C186   C925    1.393   .     S
C187   S241    1.775   .     S
C187   C924    1.393   1_554 S
C188   H198    1.079   .     S
C188   C927    1.391   1_554 S
C189   S242    1.769   .     S
C189   C926    1.391   .     S
C190   I209    2.159   .     S
C191   C194    1.419   .     A
C191   I210    2.160   .     S
C191   C29     1.399   1_655 S
C192   I211    2.138   .     S
C192   C194    1.415   .     A
C192   C26     1.398   1_655 S
C193   I212    2.144   .     S
Cu195  O234    1.981   .     S
Cu195  N213    2.062   .     S
Cu195  O238    1.960   .     S
Cu195  Cu196   2.744   .     S
Cu195  O236    1.957   .     S
Cu195  O215    2.001   .     S
Cu196  O239    1.960   .     S
Cu196  O235    1.981   .     S
Cu196  O237    1.957   .     S
Cu196  N214    2.062   .     S
Cu196  O226    2.001   .     S
H199   O217    0.991   .     S
H201   O223    0.988   .     S
H202   O227    0.991   .     S
H203   O230    0.989   .     S
H204   O233    0.991   .     S
O216   S241    1.503   .     D
O217   S241    1.683   .     S
O218   S242    1.503   .     D
O219   S242    1.501   .     D
O220   S242    1.676   .     S
O220   H36     0.990   1_655 S
O221   S243    1.496   .     D
O222   S489    1.502   .     S
O223   S243    1.683   .     S
O224   S736    1.503   1_545 S
O225   S244    1.495   .     D
O227   S244    1.682   .     S
O228   S245    1.503   .     D
O229   S491    1.505   .     S
O230   S245    1.675   .     S
O231   S738    1.503   1_545 S
O232   S246    1.503   .     D
O233   S246    1.669   .     S
O240   S241    1.503   .     D
S243   O714    1.502   1_545 S
S244   O470    1.503   .     S
S245   O721    1.505   1_545 S
S246   O477    1.503   .     S
C247   O317    1.317   .     A
C247   C248    1.484   .     S
C247   O297    1.322   .     A
C248   C275    1.415   .     A
C248   C272    1.416   .     A
C249   S325    1.794   .     S
C249   N296    1.388   .     A
C250   S326    1.787   .     S
C250   N295    1.388   .     A
C250   C497    1.418   .     S
C251   S327    1.794   .     S
C251   N296    1.388   .     A
C252   S328    1.790   .     S
C252   N295    1.389   .     A
C252   C495    1.418   .     S
C253   O321    1.307   .     A
C253   O318    1.317   .     A
C253   C259    1.460   .     S
C254   O320    1.313   .     A
C254   C257    1.456   .     S
C254   O319    1.309   .     A
C255   C257    1.406   .     A
C255   C266    1.413   .     A
C255   I287    2.148   .     S
C256   I288    2.148   .     S
C256   C267    1.418   .     A
C256   C259    1.414   .     A
C257   C260    1.403   .     A
C258   O308    1.324   .     A
C258   O316    1.315   .     A
C258   C276    1.486   .     S
C259   C261    1.405   .     A
C260   C262    1.402   .     A
C260   I289    2.136   .     S
C261   I290    2.141   .     S
C261   C263    1.401   .     A
C262   C268    1.399   .     A
C262   C264    1.407   .     A
C263   C270    1.402   .     A
C263   C265    1.410   .     A
C264   C266    1.417   .     A
C264   C1003   1.413   .     S
C265   C267    1.420   .     A
C265   C1002   1.413   1_554 S
C266   C271    1.412   .     A
C267   C269    1.421   .     A
C268   H279    1.077   .     S
C268   C1007   1.393   .     S
C269   S323    1.775   .     S
C269   C1006   1.393   1_554 S
C270   H280    1.079   .     S
C270   C1009   1.391   1_554 S
C271   S324    1.769   .     S
C271   C1008   1.391   .     S
C272   I291    2.159   .     S
C272   C438    1.398   1_455 S
C273   C276    1.419   .     A
C273   I292    2.160   .     S
C273   C357    1.399   .     S
C274   I293    2.138   .     S
C274   C276    1.415   .     A
C274   C354    1.398   .     S
C275   I294    2.144   .     S
C275   C437    1.399   1_455 S
Cu277  O316    1.981   .     S
Cu277  N295    2.062   .     S
Cu277  O320    1.960   .     S
Cu277  Cu278   2.744   .     S
Cu277  O318    1.957   .     S
Cu277  O297    2.001   .     S
Cu278  O321    1.960   .     S
Cu278  O317    1.981   .     S
Cu278  O319    1.957   .     S
Cu278  N296    2.062   .     S
Cu278  O308    2.001   .     S
H281   O299    0.991   .     S
H282   O466    0.990   1_455 S
H283   O305    0.988   .     S
H284   O309    0.991   .     S
H285   O312    0.989   .     S
H286   O315    0.991   .     S
O298   S323    1.503   .     D
O299   S323    1.683   .     S
O300   S324    1.503   .     D
O301   S324    1.501   .     D
O302   S324    1.676   .     S
O302   H364    0.990   .     S
O303   S325    1.496   .     D
O304   S571    1.502   .     S
O305   S325    1.683   .     S
O307   S326    1.495   .     D
O309   S326    1.682   .     S
O310   S327    1.503   .     D
O311   S573    1.505   .     S
O312   S327    1.675   .     S
O314   S328    1.503   .     D
O315   S328    1.669   .     S
O322   S323    1.503   .     D
S326   O552    1.503   .     S
S328   O559    1.503   .     S
C329   O399    1.317   .     A
C329   C330    1.484   .     S
C329   O379    1.322   .     A
C330   C357    1.415   .     A
C330   C354    1.416   .     A
C331   S407    1.794   .     S
C331   N378    1.388   .     A
C332   S408    1.787   .     S
C332   N377    1.388   .     A
C332   C579    1.418   .     S
C333   S409    1.794   .     S
C333   N378    1.388   .     A
C334   S410    1.790   .     S
C334   N377    1.389   .     A
C334   C577    1.418   .     S
C335   O403    1.307   .     A
C335   O400    1.317   .     A
C335   C341    1.460   .     S
C336   O402    1.313   .     A
C336   C339    1.456   .     S
C336   O401    1.309   .     A
C337   C339    1.406   .     A
C337   C348    1.413   .     A
C337   I369    2.148   .     S
C338   I370    2.148   .     S
C338   C349    1.418   .     A
C338   C341    1.414   .     A
C339   C342    1.403   .     A
C340   O390    1.324   .     A
C340   O398    1.315   .     A
C340   C358    1.486   .     S
C341   C343    1.405   .     A
C342   C344    1.402   .     A
C342   I371    2.136   .     S
C343   I372    2.141   .     S
C343   C345    1.401   .     A
C344   C350    1.399   .     A
C344   C346    1.407   .     A
C345   C352    1.402   .     A
C345   C347    1.410   .     A
C346   C348    1.417   .     A
C346   C1085   1.413   .     S
C347   C349    1.420   .     A
C347   C1084   1.413   1_554 S
C348   C353    1.412   .     A
C349   C351    1.421   .     A
C350   H361    1.077   .     S
C350   C1089   1.393   .     S
C351   S405    1.775   .     S
C351   C1088   1.393   1_554 S
C352   H362    1.079   .     S
C352   C1091   1.391   1_554 S
C353   S406    1.769   .     S
C353   C1090   1.391   .     S
C354   I373    2.159   .     S
C355   C358    1.419   .     A
C355   I374    2.160   .     S
C355   C439    1.399   .     S
C356   I375    2.138   .     S
C356   C358    1.415   .     A
C356   C436    1.398   .     S
C357   I376    2.144   .     S
Cu359  O398    1.981   .     S
Cu359  N377    2.062   .     S
Cu359  O402    1.960   .     S
Cu359  Cu360   2.744   .     S
Cu359  O400    1.957   .     S
Cu359  O379    2.001   .     S
Cu360  O403    1.960   .     S
Cu360  O399    1.981   .     S
Cu360  O401    1.957   .     S
Cu360  N378    2.062   .     S
Cu360  O390    2.001   .     S
H363   O381    0.991   .     S
H365   O387    0.988   .     S
H366   O391    0.991   .     S
H367   O394    0.989   .     S
H368   O397    0.991   .     S
O380   S405    1.503   .     D
O381   S405    1.683   .     S
O382   S406    1.503   .     D
O383   S406    1.501   .     D
O384   S406    1.676   .     S
O384   H446    0.990   .     S
O385   S407    1.496   .     D
O386   S653    1.502   .     S
O387   S407    1.683   .     S
O389   S408    1.495   .     D
O391   S408    1.682   .     S
O392   S409    1.503   .     D
O393   S655    1.505   .     S
O394   S409    1.675   .     S
O396   S410    1.503   .     D
O397   S410    1.669   .     S
O404   S405    1.503   .     D
S408   O634    1.503   .     S
S410   O641    1.503   .     S
C411   O481    1.317   .     A
C411   C412    1.484   .     S
C411   O461    1.322   .     A
C412   C439    1.415   .     A
C412   C436    1.416   .     A
C413   S489    1.794   .     S
C413   N460    1.388   .     A
C414   S490    1.787   .     S
C414   N459    1.388   .     A
C414   C661    1.418   .     S
C415   S491    1.794   .     S
C415   N460    1.388   .     A
C416   S492    1.790   .     S
C416   N459    1.389   .     A
C416   C659    1.418   .     S
C417   O485    1.307   .     A
C417   O482    1.317   .     A
C417   C423    1.460   .     S
C418   O484    1.313   .     A
C418   C421    1.456   .     S
C418   O483    1.309   .     A
C419   C421    1.406   .     A
C419   C430    1.413   .     A
C419   I451    2.148   .     S
C420   I452    2.148   .     S
C420   C431    1.418   .     A
C420   C423    1.414   .     A
C421   C424    1.403   .     A
C422   O472    1.324   .     A
C422   O480    1.315   .     A
C422   C440    1.486   .     S
C423   C425    1.405   .     A
C424   C426    1.402   .     A
C424   I453    2.136   .     S
C425   I454    2.141   .     S
C425   C427    1.401   .     A
C426   C432    1.399   .     A
C426   C428    1.407   .     A
C427   C434    1.402   .     A
C427   C429    1.410   .     A
C428   C430    1.417   .     A
C428   C1167   1.413   .     S
C429   C431    1.420   .     A
C429   C1166   1.413   1_554 S
C430   C435    1.412   .     A
C431   C433    1.421   .     A
C432   H443    1.077   .     S
C432   C1171   1.393   .     S
C433   S487    1.775   .     S
C433   C1170   1.393   1_554 S
C434   H444    1.079   .     S
C434   C1173   1.391   1_554 S
C435   S488    1.769   .     S
C435   C1172   1.391   .     S
C436   I455    2.159   .     S
C437   C440    1.419   .     A
C437   I456    2.160   .     S
C437   C275    1.399   1_655 S
C438   I457    2.138   .     S
C438   C440    1.415   .     A
C438   C272    1.398   1_655 S
C439   I458    2.144   .     S
Cu441  O480    1.981   .     S
Cu441  N459    2.062   .     S
Cu441  O484    1.960   .     S
Cu441  Cu442   2.744   .     S
Cu441  O482    1.957   .     S
Cu441  O461    2.001   .     S
Cu442  O485    1.960   .     S
Cu442  O481    1.981   .     S
Cu442  O483    1.957   .     S
Cu442  N460    2.062   .     S
Cu442  O472    2.001   .     S
H445   O463    0.991   .     S
H447   O469    0.988   .     S
H448   O473    0.991   .     S
H449   O476    0.989   .     S
H450   O479    0.991   .     S
O462   S487    1.503   .     D
O463   S487    1.683   .     S
O464   S488    1.503   .     D
O465   S488    1.501   .     D
O466   S488    1.676   .     S
O466   H282    0.990   1_655 S
O467   S489    1.496   .     D
O468   S735    1.502   .     S
O469   S489    1.683   .     S
O471   S490    1.495   .     D
O473   S490    1.682   .     S
O474   S491    1.503   .     D
O475   S737    1.505   .     S
O476   S491    1.675   .     S
O478   S492    1.503   .     D
O479   S492    1.669   .     S
O486   S487    1.503   .     D
S490   O716    1.503   .     S
S492   O723    1.503   .     S
C493   O563    1.317   .     A
C493   C494    1.484   .     S
C493   O543    1.322   .     A
C494   C521    1.415   .     A
C494   C518    1.416   .     A
C495   S571    1.794   .     S
C495   N542    1.388   .     A
C496   S572    1.787   .     S
C496   N541    1.388   .     A
C496   C5      1.418   1_565 S
C497   S573    1.794   .     S
C497   N542    1.388   .     A
C498   S574    1.790   .     S
C498   N541    1.389   .     A
C498   C3      1.418   1_565 S
C499   O567    1.307   .     A
C499   O564    1.317   .     A
C499   C505    1.460   .     S
C500   O566    1.313   .     A
C500   C503    1.456   .     S
C500   O565    1.309   .     A
C501   C503    1.406   .     A
C501   C512    1.413   .     A
C501   I533    2.148   .     S
C502   I534    2.148   .     S
C502   C513    1.418   .     A
C502   C505    1.414   .     A
C503   C506    1.403   .     A
C504   O554    1.324   .     A
C504   O562    1.315   .     A
C504   C522    1.486   .     S
C505   C507    1.405   .     A
C506   C508    1.402   .     A
C506   I535    2.136   .     S
C507   I536    2.141   .     S
C507   C509    1.401   .     A
C508   C514    1.399   .     A
C508   C510    1.407   .     A
C509   C516    1.402   .     A
C509   C511    1.410   .     A
C510   C512    1.417   .     A
C510   C1249   1.413   .     S
C511   C513    1.420   .     A
C511   C1248   1.413   1_554 S
C512   C517    1.412   .     A
C513   C515    1.421   .     A
C514   H525    1.077   .     S
C514   C1253   1.393   .     S
C515   S569    1.775   .     S
C515   C1252   1.393   1_554 S
C516   H526    1.079   .     S
C516   C1255   1.391   1_554 S
C517   S570    1.769   .     S
C517   C1254   1.391   .     S
C518   I537    2.159   .     S
C518   C684    1.398   1_455 S
C519   C522    1.419   .     A
C519   I538    2.160   .     S
C519   C603    1.399   .     S
C520   I539    2.138   .     S
C520   C522    1.415   .     A
C520   C600    1.398   .     S
C521   I540    2.144   .     S
C521   C683    1.399   1_455 S
Cu523  O562    1.981   .     S
Cu523  N541    2.062   .     S
Cu523  O566    1.960   .     S
Cu523  Cu524   2.744   .     S
Cu523  O564    1.957   .     S
Cu523  O543    2.001   .     S
Cu524  O567    1.960   .     S
Cu524  O563    1.981   .     S
Cu524  O565    1.957   .     S
Cu524  N542    2.062   .     S
Cu524  O554    2.001   .     S
H527   O545    0.991   .     S
H528   O712    0.990   1_455 S
H529   O551    0.988   .     S
H530   O555    0.991   .     S
H531   O558    0.989   .     S
H532   O561    0.991   .     S
O544   S569    1.503   .     D
O545   S569    1.683   .     S
O546   S570    1.503   .     D
O547   S570    1.501   .     D
O548   S570    1.676   .     S
O548   H610    0.990   .     S
O549   S571    1.496   .     D
O550   S79     1.502   1_565 S
O551   S571    1.683   .     S
O553   S572    1.495   .     D
O555   S572    1.682   .     S
O556   S573    1.503   .     D
O557   S81     1.505   1_565 S
O558   S573    1.675   .     S
O560   S574    1.503   .     D
O561   S574    1.669   .     S
O568   S569    1.503   .     D
S572   O60     1.503   1_565 S
S574   O67     1.503   1_565 S
C575   O645    1.317   .     A
C575   C576    1.484   .     S
C575   O625    1.322   .     A
C576   C603    1.415   .     A
C576   C600    1.416   .     A
C577   S653    1.794   .     S
C577   N624    1.388   .     A
C578   S654    1.787   .     S
C578   N623    1.388   .     A
C578   C87     1.418   1_565 S
C579   S655    1.794   .     S
C579   N624    1.388   .     A
C580   S656    1.790   .     S
C580   N623    1.389   .     A
C580   C85     1.418   1_565 S
C581   O649    1.307   .     A
C581   O646    1.317   .     A
C581   C587    1.460   .     S
C582   O648    1.313   .     A
C582   C585    1.456   .     S
C582   O647    1.309   .     A
C583   C585    1.406   .     A
C583   C594    1.413   .     A
C583   I615    2.148   .     S
C584   I616    2.148   .     S
C584   C595    1.418   .     A
C584   C587    1.414   .     A
C585   C588    1.403   .     A
C586   O636    1.324   .     A
C586   O644    1.315   .     A
C586   C604    1.486   .     S
C587   C589    1.405   .     A
C588   C590    1.402   .     A
C588   I617    2.136   .     S
C589   I618    2.141   .     S
C589   C591    1.401   .     A
C590   C596    1.399   .     A
C590   C592    1.407   .     A
C591   C598    1.402   .     A
C591   C593    1.410   .     A
C592   C594    1.417   .     A
C592   C1331   1.413   .     S
C593   C595    1.420   .     A
C593   C1330   1.413   1_554 S
C594   C599    1.412   .     A
C595   C597    1.421   .     A
C596   H607    1.077   .     S
C596   C1335   1.393   .     S
C597   S651    1.775   .     S
C597   C1334   1.393   1_554 S
C598   H608    1.079   .     S
C598   C1337   1.391   1_554 S
C599   S652    1.769   .     S
C599   C1336   1.391   .     S
C600   I619    2.159   .     S
C601   C604    1.419   .     A
C601   I620    2.160   .     S
C601   C685    1.399   .     S
C602   I621    2.138   .     S
C602   C604    1.415   .     A
C602   C682    1.398   .     S
C603   I622    2.144   .     S
Cu605  O644    1.981   .     S
Cu605  N623    2.062   .     S
Cu605  O648    1.960   .     S
Cu605  Cu606   2.744   .     S
Cu605  O646    1.957   .     S
Cu605  O625    2.001   .     S
Cu606  O649    1.960   .     S
Cu606  O645    1.981   .     S
Cu606  O647    1.957   .     S
Cu606  N624    2.062   .     S
Cu606  O636    2.001   .     S
H609   O627    0.991   .     S
H611   O633    0.988   .     S
H612   O637    0.991   .     S
H613   O640    0.989   .     S
H614   O643    0.991   .     S
O626   S651    1.503   .     D
O627   S651    1.683   .     S
O628   S652    1.503   .     D
O629   S652    1.501   .     D
O630   S652    1.676   .     S
O630   H692    0.990   .     S
O631   S653    1.496   .     D
O632   S161    1.502   1_565 S
O633   S653    1.683   .     S
O635   S654    1.495   .     D
O637   S654    1.682   .     S
O638   S655    1.503   .     D
O639   S163    1.505   1_565 S
O640   S655    1.675   .     S
O642   S656    1.503   .     D
O643   S656    1.669   .     S
O650   S651    1.503   .     D
S654   O142    1.503   1_565 S
S656   O149    1.503   1_565 S
C657   O727    1.317   .     A
C657   C658    1.484   .     S
C657   O707    1.322   .     A
C658   C685    1.415   .     A
C658   C682    1.416   .     A
C659   S735    1.794   .     S
C659   N706    1.388   .     A
C660   S736    1.787   .     S
C660   N705    1.388   .     A
C660   C169    1.418   1_565 S
C661   S737    1.794   .     S
C661   N706    1.388   .     A
C662   S738    1.790   .     S
C662   N705    1.389   .     A
C662   C167    1.418   1_565 S
C663   O731    1.307   .     A
C663   O728    1.317   .     A
C663   C669    1.460   .     S
C664   O730    1.313   .     A
C664   C667    1.456   .     S
C664   O729    1.309   .     A
C665   C667    1.406   .     A
C665   C676    1.413   .     A
C665   I697    2.148   .     S
C666   I698    2.148   .     S
C666   C677    1.418   .     A
C666   C669    1.414   .     A
C667   C670    1.403   .     A
C668   O718    1.324   .     A
C668   O726    1.315   .     A
C668   C686    1.486   .     S
C669   C671    1.405   .     A
C670   C672    1.402   .     A
C670   I699    2.136   .     S
C671   I700    2.141   .     S
C671   C673    1.401   .     A
C672   C678    1.399   .     A
C672   C674    1.407   .     A
C673   C680    1.402   .     A
C673   C675    1.410   .     A
C674   C676    1.417   .     A
C674   C1413   1.413   .     S
C675   C677    1.420   .     A
C675   C1412   1.413   1_554 S
C676   C681    1.412   .     A
C677   C679    1.421   .     A
C678   H689    1.077   .     S
C678   C1417   1.393   .     S
C679   S733    1.775   .     S
C679   C1416   1.393   1_554 S
C680   H690    1.079   .     S
C680   C1419   1.391   1_554 S
C681   S734    1.769   .     S
C681   C1418   1.391   .     S
C682   I701    2.159   .     S
C683   C686    1.419   .     A
C683   I702    2.160   .     S
C683   C521    1.399   1_655 S
C684   I703    2.138   .     S
C684   C686    1.415   .     A
C684   C518    1.398   1_655 S
C685   I704    2.144   .     S
Cu687  O726    1.981   .     S
Cu687  N705    2.062   .     S
Cu687  O730    1.960   .     S
Cu687  Cu688   2.744   .     S
Cu687  O728    1.957   .     S
Cu687  O707    2.001   .     S
Cu688  O731    1.960   .     S
Cu688  O727    1.981   .     S
Cu688  O729    1.957   .     S
Cu688  N706    2.062   .     S
Cu688  O718    2.001   .     S
H691   O709    0.991   .     S
H693   O715    0.988   .     S
H694   O719    0.991   .     S
H695   O722    0.989   .     S
H696   O725    0.991   .     S
O708   S733    1.503   .     D
O709   S733    1.683   .     S
O710   S734    1.503   .     D
O711   S734    1.501   .     D
O712   S734    1.676   .     S
O712   H528    0.990   1_655 S
O713   S735    1.496   .     D
O714   S243    1.502   1_565 S
O715   S735    1.683   .     S
O717   S736    1.495   .     D
O719   S736    1.682   .     S
O720   S737    1.503   .     D
O721   S245    1.505   1_565 S
O722   S737    1.675   .     S
O724   S738    1.503   .     D
O725   S738    1.669   .     S
O732   S733    1.503   .     D
S736   O224    1.503   1_565 S
S738   O231    1.503   1_565 S
C739   O809    1.317   .     A
C739   C740    1.484   .     S
C739   O789    1.322   .     A
C740   C767    1.415   .     A
C740   C764    1.416   .     A
C741   S817    1.794   .     S
C741   N788    1.388   .     A
C741   C1236   1.418   1_545 S
C742   S818    1.787   .     S
C742   N787    1.388   .     A
C742   C989    1.418   .     S
C743   S819    1.794   .     S
C743   N788    1.388   .     A
C743   C1234   1.418   1_545 S
C744   S820    1.790   .     S
C744   N787    1.389   .     A
C744   C987    1.418   .     S
C745   O813    1.307   .     A
C745   O810    1.317   .     A
C745   C751    1.460   .     S
C746   O812    1.313   .     A
C746   C749    1.456   .     S
C746   O811    1.309   .     A
C747   C749    1.406   .     A
C747   C758    1.413   .     A
C747   I779    2.148   .     S
C748   I780    2.148   .     S
C748   C759    1.418   .     A
C748   C751    1.414   .     A
C749   C752    1.403   .     A
C750   O800    1.324   .     A
C750   O808    1.315   .     A
C750   C768    1.486   .     S
C751   C753    1.405   .     A
C752   C754    1.402   .     A
C752   I781    2.136   .     S
C753   I782    2.141   .     S
C753   C755    1.401   .     A
C754   C760    1.399   .     A
C754   C756    1.407   .     A
C755   C762    1.402   .     A
C755   C757    1.410   .     A
C756   C758    1.417   .     A
C756   C19     1.413   1_556 S
C757   C759    1.420   .     A
C758   C763    1.412   .     A
C759   C761    1.421   .     A
C760   H771    1.077   .     S
C760   C23     1.393   1_556 S
C761   S815    1.775   .     S
C762   H772    1.079   .     S
C763   S816    1.769   .     S
C763   C24     1.391   1_556 S
C764   I783    2.159   .     S
C764   C930    1.398   1_455 S
C765   C768    1.419   .     A
C765   I784    2.160   .     S
C765   C849    1.399   .     S
C766   I785    2.138   .     S
C766   C768    1.415   .     A
C766   C846    1.398   .     S
C767   I786    2.144   .     S
C767   C929    1.399   1_455 S
Cu769  O808    1.981   .     S
Cu769  N787    2.062   .     S
Cu769  O812    1.960   .     S
Cu769  Cu770   2.744   .     S
Cu769  O810    1.957   .     S
Cu769  O789    2.001   .     S
Cu770  O813    1.960   .     S
Cu770  O809    1.981   .     S
Cu770  O811    1.957   .     S
Cu770  N788    2.062   .     S
Cu770  O800    2.001   .     S
H773   O791    0.991   .     S
H774   O958    0.990   1_455 S
H775   O797    0.988   .     S
H776   O801    0.991   .     S
H777   O804    0.989   .     S
H778   O807    0.991   .     S
O790   S815    1.503   .     D
O791   S815    1.683   .     S
O792   S816    1.503   .     D
O793   S816    1.501   .     D
O794   S816    1.676   .     S
O794   H856    0.990   .     S
O795   S817    1.496   .     D
O796   S1063   1.502   .     S
O797   S817    1.683   .     S
O798   S1310   1.503   1_545 S
O799   S818    1.495   .     D
O801   S818    1.682   .     S
O802   S819    1.503   .     D
O803   S1065   1.505   .     S
O804   S819    1.675   .     S
O805   S1312   1.503   1_545 S
O806   S820    1.503   .     D
O807   S820    1.669   .     S
O814   S815    1.503   .     D
S817   O1288   1.502   1_545 S
S818   O1044   1.503   .     S
S819   O1295   1.505   1_545 S
S820   O1051   1.503   .     S
C821   O891    1.317   .     A
C821   C822    1.484   .     S
C821   O871    1.322   .     A
C822   C849    1.415   .     A
C822   C846    1.416   .     A
C823   S899    1.794   .     S
C823   N870    1.388   .     A
C823   C1318   1.418   1_545 S
C824   S900    1.787   .     S
C824   N869    1.388   .     A
C824   C1071   1.418   .     S
C825   S901    1.794   .     S
C825   N870    1.388   .     A
C825   C1316   1.418   1_545 S
C826   S902    1.790   .     S
C826   N869    1.389   .     A
C826   C1069   1.418   .     S
C827   O895    1.307   .     A
C827   O892    1.317   .     A
C827   C833    1.460   .     S
C828   O894    1.313   .     A
C828   C831    1.456   .     S
C828   O893    1.309   .     A
C829   C831    1.406   .     A
C829   C840    1.413   .     A
C829   I861    2.148   .     S
C830   I862    2.148   .     S
C830   C841    1.418   .     A
C830   C833    1.414   .     A
C831   C834    1.403   .     A
C832   O882    1.324   .     A
C832   O890    1.315   .     A
C832   C850    1.486   .     S
C833   C835    1.405   .     A
C834   C836    1.402   .     A
C834   I863    2.136   .     S
C835   I864    2.141   .     S
C835   C837    1.401   .     A
C836   C842    1.399   .     A
C836   C838    1.407   .     A
C837   C844    1.402   .     A
C837   C839    1.410   .     A
C838   C840    1.417   .     A
C838   C101    1.413   1_556 S
C839   C841    1.420   .     A
C840   C845    1.412   .     A
C841   C843    1.421   .     A
C842   H853    1.077   .     S
C842   C105    1.393   1_556 S
C843   S897    1.775   .     S
C844   H854    1.079   .     S
C845   S898    1.769   .     S
C845   C106    1.391   1_556 S
C846   I865    2.159   .     S
C847   C850    1.419   .     A
C847   I866    2.160   .     S
C847   C931    1.399   .     S
C848   I867    2.138   .     S
C848   C850    1.415   .     A
C848   C928    1.398   .     S
C849   I868    2.144   .     S
Cu851  O890    1.981   .     S
Cu851  N869    2.062   .     S
Cu851  O894    1.960   .     S
Cu851  Cu852   2.744   .     S
Cu851  O892    1.957   .     S
Cu851  O871    2.001   .     S
Cu852  O895    1.960   .     S
Cu852  O891    1.981   .     S
Cu852  O893    1.957   .     S
Cu852  N870    2.062   .     S
Cu852  O882    2.001   .     S
H855   O873    0.991   .     S
H857   O879    0.988   .     S
H858   O883    0.991   .     S
H859   O886    0.989   .     S
H860   O889    0.991   .     S
O872   S897    1.503   .     D
O873   S897    1.683   .     S
O874   S898    1.503   .     D
O875   S898    1.501   .     D
O876   S898    1.676   .     S
O876   H938    0.990   .     S
O877   S899    1.496   .     D
O878   S1145   1.502   .     S
O879   S899    1.683   .     S
O880   S1392   1.503   1_545 S
O881   S900    1.495   .     D
O883   S900    1.682   .     S
O884   S901    1.503   .     D
O885   S1147   1.505   .     S
O886   S901    1.675   .     S
O887   S1394   1.503   1_545 S
O888   S902    1.503   .     D
O889   S902    1.669   .     S
O896   S897    1.503   .     D
S899   O1370   1.502   1_545 S
S900   O1126   1.503   .     S
S901   O1377   1.505   1_545 S
S902   O1133   1.503   .     S
C903   O973    1.317   .     A
C903   C904    1.484   .     S
C903   O953    1.322   .     A
C904   C931    1.415   .     A
C904   C928    1.416   .     A
C905   S981    1.794   .     S
C905   N952    1.388   .     A
C905   C1400   1.418   1_545 S
C906   S982    1.787   .     S
C906   N951    1.388   .     A
C906   C1153   1.418   .     S
C907   S983    1.794   .     S
C907   N952    1.388   .     A
C907   C1398   1.418   1_545 S
C908   S984    1.790   .     S
C908   N951    1.389   .     A
C908   C1151   1.418   .     S
C909   O977    1.307   .     A
C909   O974    1.317   .     A
C909   C915    1.460   .     S
C910   O976    1.313   .     A
C910   C913    1.456   .     S
C910   O975    1.309   .     A
C911   C913    1.406   .     A
C911   C922    1.413   .     A
C911   I943    2.148   .     S
C912   I944    2.148   .     S
C912   C923    1.418   .     A
C912   C915    1.414   .     A
C913   C916    1.403   .     A
C914   O964    1.324   .     A
C914   O972    1.315   .     A
C914   C932    1.486   .     S
C915   C917    1.405   .     A
C916   C918    1.402   .     A
C916   I945    2.136   .     S
C917   I946    2.141   .     S
C917   C919    1.401   .     A
C918   C924    1.399   .     A
C918   C920    1.407   .     A
C919   C926    1.402   .     A
C919   C921    1.410   .     A
C920   C922    1.417   .     A
C920   C183    1.413   1_556 S
C921   C923    1.420   .     A
C922   C927    1.412   .     A
C923   C925    1.421   .     A
C924   H935    1.077   .     S
C924   C187    1.393   1_556 S
C925   S979    1.775   .     S
C926   H936    1.079   .     S
C927   S980    1.769   .     S
C927   C188    1.391   1_556 S
C928   I947    2.159   .     S
C929   C932    1.419   .     A
C929   I948    2.160   .     S
C929   C767    1.399   1_655 S
C930   I949    2.138   .     S
C930   C932    1.415   .     A
C930   C764    1.398   1_655 S
C931   I950    2.144   .     S
Cu933  O972    1.981   .     S
Cu933  N951    2.062   .     S
Cu933  O976    1.960   .     S
Cu933  Cu934   2.744   .     S
Cu933  O974    1.957   .     S
Cu933  O953    2.001   .     S
Cu934  O977    1.960   .     S
Cu934  O973    1.981   .     S
Cu934  O975    1.957   .     S
Cu934  N952    2.062   .     S
Cu934  O964    2.001   .     S
H937   O955    0.991   .     S
H939   O961    0.988   .     S
H940   O965    0.991   .     S
H941   O968    0.989   .     S
H942   O971    0.991   .     S
O954   S979    1.503   .     D
O955   S979    1.683   .     S
O956   S980    1.503   .     D
O957   S980    1.501   .     D
O958   S980    1.676   .     S
O958   H774    0.990   1_655 S
O959   S981    1.496   .     D
O960   S1227   1.502   .     S
O961   S981    1.683   .     S
O962   S1474   1.503   1_545 S
O963   S982    1.495   .     D
O965   S982    1.682   .     S
O966   S983    1.503   .     D
O967   S1229   1.505   .     S
O968   S983    1.675   .     S
O969   S1476   1.503   1_545 S
O970   S984    1.503   .     D
O971   S984    1.669   .     S
O978   S979    1.503   .     D
S981   O1452   1.502   1_545 S
S982   O1208   1.503   .     S
S983   O1459   1.505   1_545 S
S984   O1215   1.503   .     S
C985   O1055   1.317   .     A
C985   C986    1.484   .     S
C985   O1035   1.322   .     A
C986   C1013   1.415   .     A
C986   C1010   1.416   .     A
C987   S1063   1.794   .     S
C987   N1034   1.388   .     A
C988   S1064   1.787   .     S
C988   N1033   1.388   .     A
C988   C1235   1.418   .     S
C989   S1065   1.794   .     S
C989   N1034   1.388   .     A
C990   S1066   1.790   .     S
C990   N1033   1.389   .     A
C990   C1233   1.418   .     S
C991   O1059   1.307   .     A
C991   O1056   1.317   .     A
C991   C997    1.460   .     S
C992   O1058   1.313   .     A
C992   C995    1.456   .     S
C992   O1057   1.309   .     A
C993   C995    1.406   .     A
C993   C1004   1.413   .     A
C993   I1025   2.148   .     S
C994   I1026   2.148   .     S
C994   C1005   1.418   .     A
C994   C997    1.414   .     A
C995   C998    1.403   .     A
C996   O1046   1.324   .     A
C996   O1054   1.315   .     A
C996   C1014   1.486   .     S
C997   C999    1.405   .     A
C998   C1000   1.402   .     A
C998   I1027   2.136   .     S
C999   I1028   2.141   .     S
C999   C1001   1.401   .     A
C1000  C1006   1.399   .     A
C1000  C1002   1.407   .     A
C1001  C1008   1.402   .     A
C1001  C1003   1.410   .     A
C1002  C1004   1.417   .     A
C1002  C265    1.413   1_556 S
C1003  C1005   1.420   .     A
C1004  C1009   1.412   .     A
C1005  C1007   1.421   .     A
C1006  H1017   1.077   .     S
C1006  C269    1.393   1_556 S
C1007  S1061   1.775   .     S
C1008  H1018   1.079   .     S
C1009  S1062   1.769   .     S
C1009  C270    1.391   1_556 S
C1010  I1029   2.159   .     S
C1010  C1176   1.398   1_455 S
C1011  C1014   1.419   .     A
C1011  I1030   2.160   .     S
C1011  C1095   1.399   .     S
C1012  I1031   2.138   .     S
C1012  C1014   1.415   .     A
C1012  C1092   1.398   .     S
C1013  I1032   2.144   .     S
C1013  C1175   1.399   1_455 S
Cu1015 O1054   1.981   .     S
Cu1015 N1033   2.062   .     S
Cu1015 O1058   1.960   .     S
Cu1015 Cu1016  2.744   .     S
Cu1015 O1056   1.957   .     S
Cu1015 O1035   2.001   .     S
Cu1016 O1059   1.960   .     S
Cu1016 O1055   1.981   .     S
Cu1016 O1057   1.957   .     S
Cu1016 N1034   2.062   .     S
Cu1016 O1046   2.001   .     S
H1019  O1037   0.991   .     S
H1020  O1204   0.990   1_455 S
H1021  O1043   0.988   .     S
H1022  O1047   0.991   .     S
H1023  O1050   0.989   .     S
H1024  O1053   0.991   .     S
O1036  S1061   1.503   .     D
O1037  S1061   1.683   .     S
O1038  S1062   1.503   .     D
O1039  S1062   1.501   .     D
O1040  S1062   1.676   .     S
O1040  H1102   0.990   .     S
O1041  S1063   1.496   .     D
O1042  S1309   1.502   .     S
O1043  S1063   1.683   .     S
O1045  S1064   1.495   .     D
O1047  S1064   1.682   .     S
O1048  S1065   1.503   .     D
O1049  S1311   1.505   .     S
O1050  S1065   1.675   .     S
O1052  S1066   1.503   .     D
O1053  S1066   1.669   .     S
O1060  S1061   1.503   .     D
S1064  O1290   1.503   .     S
S1066  O1297   1.503   .     S
C1067  O1137   1.317   .     A
C1067  C1068   1.484   .     S
C1067  O1117   1.322   .     A
C1068  C1095   1.415   .     A
C1068  C1092   1.416   .     A
C1069  S1145   1.794   .     S
C1069  N1116   1.388   .     A
C1070  S1146   1.787   .     S
C1070  N1115   1.388   .     A
C1070  C1317   1.418   .     S
C1071  S1147   1.794   .     S
C1071  N1116   1.388   .     A
C1072  S1148   1.790   .     S
C1072  N1115   1.389   .     A
C1072  C1315   1.418   .     S
C1073  O1141   1.307   .     A
C1073  O1138   1.317   .     A
C1073  C1079   1.460   .     S
C1074  O1140   1.313   .     A
C1074  C1077   1.456   .     S
C1074  O1139   1.309   .     A
C1075  C1077   1.406   .     A
C1075  C1086   1.413   .     A
C1075  I1107   2.148   .     S
C1076  I1108   2.148   .     S
C1076  C1087   1.418   .     A
C1076  C1079   1.414   .     A
C1077  C1080   1.403   .     A
C1078  O1128   1.324   .     A
C1078  O1136   1.315   .     A
C1078  C1096   1.486   .     S
C1079  C1081   1.405   .     A
C1080  C1082   1.402   .     A
C1080  I1109   2.136   .     S
C1081  I1110   2.141   .     S
C1081  C1083   1.401   .     A
C1082  C1088   1.399   .     A
C1082  C1084   1.407   .     A
C1083  C1090   1.402   .     A
C1083  C1085   1.410   .     A
C1084  C1086   1.417   .     A
C1084  C347    1.413   1_556 S
C1085  C1087   1.420   .     A
C1086  C1091   1.412   .     A
C1087  C1089   1.421   .     A
C1088  H1099   1.077   .     S
C1088  C351    1.393   1_556 S
C1089  S1143   1.775   .     S
C1090  H1100   1.079   .     S
C1091  S1144   1.769   .     S
C1091  C352    1.391   1_556 S
C1092  I1111   2.159   .     S
C1093  C1096   1.419   .     A
C1093  I1112   2.160   .     S
C1093  C1177   1.399   .     S
C1094  I1113   2.138   .     S
C1094  C1096   1.415   .     A
C1094  C1174   1.398   .     S
C1095  I1114   2.144   .     S
Cu1097 O1136   1.981   .     S
Cu1097 N1115   2.062   .     S
Cu1097 O1140   1.960   .     S
Cu1097 Cu1098  2.744   .     S
Cu1097 O1138   1.957   .     S
Cu1097 O1117   2.001   .     S
Cu1098 O1141   1.960   .     S
Cu1098 O1137   1.981   .     S
Cu1098 O1139   1.957   .     S
Cu1098 N1116   2.062   .     S
Cu1098 O1128   2.001   .     S
H1101  O1119   0.991   .     S
H1103  O1125   0.988   .     S
H1104  O1129   0.991   .     S
H1105  O1132   0.989   .     S
H1106  O1135   0.991   .     S
O1118  S1143   1.503   .     D
O1119  S1143   1.683   .     S
O1120  S1144   1.503   .     D
O1121  S1144   1.501   .     D
O1122  S1144   1.676   .     S
O1122  H1184   0.990   .     S
O1123  S1145   1.496   .     D
O1124  S1391   1.502   .     S
O1125  S1145   1.683   .     S
O1127  S1146   1.495   .     D
O1129  S1146   1.682   .     S
O1130  S1147   1.503   .     D
O1131  S1393   1.505   .     S
O1132  S1147   1.675   .     S
O1134  S1148   1.503   .     D
O1135  S1148   1.669   .     S
O1142  S1143   1.503   .     D
S1146  O1372   1.503   .     S
S1148  O1379   1.503   .     S
C1149  O1219   1.317   .     A
C1149  C1150   1.484   .     S
C1149  O1199   1.322   .     A
C1150  C1177   1.415   .     A
C1150  C1174   1.416   .     A
C1151  S1227   1.794   .     S
C1151  N1198   1.388   .     A
C1152  S1228   1.787   .     S
C1152  N1197   1.388   .     A
C1152  C1399   1.418   .     S
C1153  S1229   1.794   .     S
C1153  N1198   1.388   .     A
C1154  S1230   1.790   .     S
C1154  N1197   1.389   .     A
C1154  C1397   1.418   .     S
C1155  O1223   1.307   .     A
C1155  O1220   1.317   .     A
C1155  C1161   1.460   .     S
C1156  O1222   1.313   .     A
C1156  C1159   1.456   .     S
C1156  O1221   1.309   .     A
C1157  C1159   1.406   .     A
C1157  C1168   1.413   .     A
C1157  I1189   2.148   .     S
C1158  I1190   2.148   .     S
C1158  C1169   1.418   .     A
C1158  C1161   1.414   .     A
C1159  C1162   1.403   .     A
C1160  O1210   1.324   .     A
C1160  O1218   1.315   .     A
C1160  C1178   1.486   .     S
C1161  C1163   1.405   .     A
C1162  C1164   1.402   .     A
C1162  I1191   2.136   .     S
C1163  I1192   2.141   .     S
C1163  C1165   1.401   .     A
C1164  C1170   1.399   .     A
C1164  C1166   1.407   .     A
C1165  C1172   1.402   .     A
C1165  C1167   1.410   .     A
C1166  C1168   1.417   .     A
C1166  C429    1.413   1_556 S
C1167  C1169   1.420   .     A
C1168  C1173   1.412   .     A
C1169  C1171   1.421   .     A
C1170  H1181   1.077   .     S
C1170  C433    1.393   1_556 S
C1171  S1225   1.775   .     S
C1172  H1182   1.079   .     S
C1173  S1226   1.769   .     S
C1173  C434    1.391   1_556 S
C1174  I1193   2.159   .     S
C1175  C1178   1.419   .     A
C1175  I1194   2.160   .     S
C1175  C1013   1.399   1_655 S
C1176  I1195   2.138   .     S
C1176  C1178   1.415   .     A
C1176  C1010   1.398   1_655 S
C1177  I1196   2.144   .     S
Cu1179 O1218   1.981   .     S
Cu1179 N1197   2.062   .     S
Cu1179 O1222   1.960   .     S
Cu1179 Cu1180  2.744   .     S
Cu1179 O1220   1.957   .     S
Cu1179 O1199   2.001   .     S
Cu1180 O1223   1.960   .     S
Cu1180 O1219   1.981   .     S
Cu1180 O1221   1.957   .     S
Cu1180 N1198   2.062   .     S
Cu1180 O1210   2.001   .     S
H1183  O1201   0.991   .     S
H1185  O1207   0.988   .     S
H1186  O1211   0.991   .     S
H1187  O1214   0.989   .     S
H1188  O1217   0.991   .     S
O1200  S1225   1.503   .     D
O1201  S1225   1.683   .     S
O1202  S1226   1.503   .     D
O1203  S1226   1.501   .     D
O1204  S1226   1.676   .     S
O1204  H1020   0.990   1_655 S
O1205  S1227   1.496   .     D
O1206  S1473   1.502   .     S
O1207  S1227   1.683   .     S
O1209  S1228   1.495   .     D
O1211  S1228   1.682   .     S
O1212  S1229   1.503   .     D
O1213  S1475   1.505   .     S
O1214  S1229   1.675   .     S
O1216  S1230   1.503   .     D
O1217  S1230   1.669   .     S
O1224  S1225   1.503   .     D
S1228  O1454   1.503   .     S
S1230  O1461   1.503   .     S
C1231  O1301   1.317   .     A
C1231  C1232   1.484   .     S
C1231  O1281   1.322   .     A
C1232  C1259   1.415   .     A
C1232  C1256   1.416   .     A
C1233  S1309   1.794   .     S
C1233  N1280   1.388   .     A
C1234  S1310   1.787   .     S
C1234  N1279   1.388   .     A
C1234  C743    1.418   1_565 S
C1235  S1311   1.794   .     S
C1235  N1280   1.388   .     A
C1236  S1312   1.790   .     S
C1236  N1279   1.389   .     A
C1236  C741    1.418   1_565 S
C1237  O1305   1.307   .     A
C1237  O1302   1.317   .     A
C1237  C1243   1.460   .     S
C1238  O1304   1.313   .     A
C1238  C1241   1.456   .     S
C1238  O1303   1.309   .     A
C1239  C1241   1.406   .     A
C1239  C1250   1.413   .     A
C1239  I1271   2.148   .     S
C1240  I1272   2.148   .     S
C1240  C1251   1.418   .     A
C1240  C1243   1.414   .     A
C1241  C1244   1.403   .     A
C1242  O1292   1.324   .     A
C1242  O1300   1.315   .     A
C1242  C1260   1.486   .     S
C1243  C1245   1.405   .     A
C1244  C1246   1.402   .     A
C1244  I1273   2.136   .     S
C1245  I1274   2.141   .     S
C1245  C1247   1.401   .     A
C1246  C1252   1.399   .     A
C1246  C1248   1.407   .     A
C1247  C1254   1.402   .     A
C1247  C1249   1.410   .     A
C1248  C1250   1.417   .     A
C1248  C511    1.413   1_556 S
C1249  C1251   1.420   .     A
C1250  C1255   1.412   .     A
C1251  C1253   1.421   .     A
C1252  H1263   1.077   .     S
C1252  C515    1.393   1_556 S
C1253  S1307   1.775   .     S
C1254  H1264   1.079   .     S
C1255  S1308   1.769   .     S
C1255  C516    1.391   1_556 S
C1256  I1275   2.159   .     S
C1256  C1422   1.398   1_455 S
C1257  C1260   1.419   .     A
C1257  I1276   2.160   .     S
C1257  C1341   1.399   .     S
C1258  I1277   2.138   .     S
C1258  C1260   1.415   .     A
C1258  C1338   1.398   .     S
C1259  I1278   2.144   .     S
C1259  C1421   1.399   1_455 S
Cu1261 O1300   1.981   .     S
Cu1261 N1279   2.062   .     S
Cu1261 O1304   1.960   .     S
Cu1261 Cu1262  2.744   .     S
Cu1261 O1302   1.957   .     S
Cu1261 O1281   2.001   .     S
Cu1262 O1305   1.960   .     S
Cu1262 O1301   1.981   .     S
Cu1262 O1303   1.957   .     S
Cu1262 N1280   2.062   .     S
Cu1262 O1292   2.001   .     S
H1265  O1283   0.991   .     S
H1266  O1450   0.990   1_455 S
H1267  O1289   0.988   .     S
H1268  O1293   0.991   .     S
H1269  O1296   0.989   .     S
H1270  O1299   0.991   .     S
O1282  S1307   1.503   .     D
O1283  S1307   1.683   .     S
O1284  S1308   1.503   .     D
O1285  S1308   1.501   .     D
O1286  S1308   1.676   .     S
O1286  H1348   0.990   .     S
O1287  S1309   1.496   .     D
O1288  S817    1.502   1_565 S
O1289  S1309   1.683   .     S
O1291  S1310   1.495   .     D
O1293  S1310   1.682   .     S
O1294  S1311   1.503   .     D
O1295  S819    1.505   1_565 S
O1296  S1311   1.675   .     S
O1298  S1312   1.503   .     D
O1299  S1312   1.669   .     S
O1306  S1307   1.503   .     D
S1310  O798    1.503   1_565 S
S1312  O805    1.503   1_565 S
C1313  O1383   1.317   .     A
C1313  C1314   1.484   .     S
C1313  O1363   1.322   .     A
C1314  C1341   1.415   .     A
C1314  C1338   1.416   .     A
C1315  S1391   1.794   .     S
C1315  N1362   1.388   .     A
C1316  S1392   1.787   .     S
C1316  N1361   1.388   .     A
C1316  C825    1.418   1_565 S
C1317  S1393   1.794   .     S
C1317  N1362   1.388   .     A
C1318  S1394   1.790   .     S
C1318  N1361   1.389   .     A
C1318  C823    1.418   1_565 S
C1319  O1387   1.307   .     A
C1319  O1384   1.317   .     A
C1319  C1325   1.460   .     S
C1320  O1386   1.313   .     A
C1320  C1323   1.456   .     S
C1320  O1385   1.309   .     A
C1321  C1323   1.406   .     A
C1321  C1332   1.413   .     A
C1321  I1353   2.148   .     S
C1322  I1354   2.148   .     S
C1322  C1333   1.418   .     A
C1322  C1325   1.414   .     A
C1323  C1326   1.403   .     A
C1324  O1374   1.324   .     A
C1324  O1382   1.315   .     A
C1324  C1342   1.486   .     S
C1325  C1327   1.405   .     A
C1326  C1328   1.402   .     A
C1326  I1355   2.136   .     S
C1327  I1356   2.141   .     S
C1327  C1329   1.401   .     A
C1328  C1334   1.399   .     A
C1328  C1330   1.407   .     A
C1329  C1336   1.402   .     A
C1329  C1331   1.410   .     A
C1330  C1332   1.417   .     A
C1330  C593    1.413   1_556 S
C1331  C1333   1.420   .     A
C1332  C1337   1.412   .     A
C1333  C1335   1.421   .     A
C1334  H1345   1.077   .     S
C1334  C597    1.393   1_556 S
C1335  S1389   1.775   .     S
C1336  H1346   1.079   .     S
C1337  S1390   1.769   .     S
C1337  C598    1.391   1_556 S
C1338  I1357   2.159   .     S
C1339  C1342   1.419   .     A
C1339  I1358   2.160   .     S
C1339  C1423   1.399   .     S
C1340  I1359   2.138   .     S
C1340  C1342   1.415   .     A
C1340  C1420   1.398   .     S
C1341  I1360   2.144   .     S
Cu1343 O1382   1.981   .     S
Cu1343 N1361   2.062   .     S
Cu1343 O1386   1.960   .     S
Cu1343 Cu1344  2.744   .     S
Cu1343 O1384   1.957   .     S
Cu1343 O1363   2.001   .     S
Cu1344 O1387   1.960   .     S
Cu1344 O1383   1.981   .     S
Cu1344 O1385   1.957   .     S
Cu1344 N1362   2.062   .     S
Cu1344 O1374   2.001   .     S
H1347  O1365   0.991   .     S
H1349  O1371   0.988   .     S
H1350  O1375   0.991   .     S
H1351  O1378   0.989   .     S
H1352  O1381   0.991   .     S
O1364  S1389   1.503   .     D
O1365  S1389   1.683   .     S
O1366  S1390   1.503   .     D
O1367  S1390   1.501   .     D
O1368  S1390   1.676   .     S
O1368  H1430   0.990   .     S
O1369  S1391   1.496   .     D
O1370  S899    1.502   1_565 S
O1371  S1391   1.683   .     S
O1373  S1392   1.495   .     D
O1375  S1392   1.682   .     S
O1376  S1393   1.503   .     D
O1377  S901    1.505   1_565 S
O1378  S1393   1.675   .     S
O1380  S1394   1.503   .     D
O1381  S1394   1.669   .     S
O1388  S1389   1.503   .     D
S1392  O880    1.503   1_565 S
S1394  O887    1.503   1_565 S
C1395  O1465   1.317   .     A
C1395  C1396   1.484   .     S
C1395  O1445   1.322   .     A
C1396  C1423   1.415   .     A
C1396  C1420   1.416   .     A
C1397  S1473   1.794   .     S
C1397  N1444   1.388   .     A
C1398  S1474   1.787   .     S
C1398  N1443   1.388   .     A
C1398  C907    1.418   1_565 S
C1399  S1475   1.794   .     S
C1399  N1444   1.388   .     A
C1400  S1476   1.790   .     S
C1400  N1443   1.389   .     A
C1400  C905    1.418   1_565 S
C1401  O1469   1.307   .     A
C1401  O1466   1.317   .     A
C1401  C1407   1.460   .     S
C1402  O1468   1.313   .     A
C1402  C1405   1.456   .     S
C1402  O1467   1.309   .     A
C1403  C1405   1.406   .     A
C1403  C1414   1.413   .     A
C1403  I1435   2.148   .     S
C1404  I1436   2.148   .     S
C1404  C1415   1.418   .     A
C1404  C1407   1.414   .     A
C1405  C1408   1.403   .     A
C1406  O1456   1.324   .     A
C1406  O1464   1.315   .     A
C1406  C1424   1.486   .     S
C1407  C1409   1.405   .     A
C1408  C1410   1.402   .     A
C1408  I1437   2.136   .     S
C1409  I1438   2.141   .     S
C1409  C1411   1.401   .     A
C1410  C1416   1.399   .     A
C1410  C1412   1.407   .     A
C1411  C1418   1.402   .     A
C1411  C1413   1.410   .     A
C1412  C1414   1.417   .     A
C1412  C675    1.413   1_556 S
C1413  C1415   1.420   .     A
C1414  C1419   1.412   .     A
C1415  C1417   1.421   .     A
C1416  H1427   1.077   .     S
C1416  C679    1.393   1_556 S
C1417  S1471   1.775   .     S
C1418  H1428   1.079   .     S
C1419  S1472   1.769   .     S
C1419  C680    1.391   1_556 S
C1420  I1439   2.159   .     S
C1421  C1424   1.419   .     A
C1421  I1440   2.160   .     S
C1421  C1259   1.399   1_655 S
C1422  I1441   2.138   .     S
C1422  C1424   1.415   .     A
C1422  C1256   1.398   1_655 S
C1423  I1442   2.144   .     S
Cu1425 O1464   1.981   .     S
Cu1425 N1443   2.062   .     S
Cu1425 O1468   1.960   .     S
Cu1425 Cu1426  2.744   .     S
Cu1425 O1466   1.957   .     S
Cu1425 O1445   2.001   .     S
Cu1426 O1469   1.960   .     S
Cu1426 O1465   1.981   .     S
Cu1426 O1467   1.957   .     S
Cu1426 N1444   2.062   .     S
Cu1426 O1456   2.001   .     S
H1429  O1447   0.991   .     S
H1431  O1453   0.988   .     S
H1432  O1457   0.991   .     S
H1433  O1460   0.989   .     S
H1434  O1463   0.991   .     S
O1446  S1471   1.503   .     D
O1447  S1471   1.683   .     S
O1448  S1472   1.503   .     D
O1449  S1472   1.501   .     D
O1450  S1472   1.676   .     S
O1450  H1266   0.990   1_655 S
O1451  S1473   1.496   .     D
O1452  S981    1.502   1_565 S
O1453  S1473   1.683   .     S
O1455  S1474   1.495   .     D
O1457  S1474   1.682   .     S
O1458  S1475   1.503   .     D
O1459  S983    1.505   1_565 S
O1460  S1475   1.675   .     S
O1462  S1476   1.503   .     D
O1463  S1476   1.669   .     S
O1470  S1471   1.503   .     D
S1474  O962    1.503   1_565 S
S1476  O969    1.503   1_565 S
