data_str_m3_o10_o16_pcu_sym.117
_audit_creation_date              2020-01-03
_audit_creation_method            'Materials Studio'
_symmetry_space_group_name_H-M    'P1'
_symmetry_Int_Tables_number       1
_symmetry_cell_setting            triclinic
loop_
_symmetry_equiv_pos_as_xyz
  x,y,z
_cell_length_a                    23.6689
_cell_length_b                    25.7073
_cell_length_c                    24.9534
_cell_angle_alpha                 94.0741
_cell_angle_beta                  103.1681
_cell_angle_gamma                 93.1084
loop_
_atom_site_label
_atom_site_type_symbol
_atom_site_fract_x
_atom_site_fract_y
_atom_site_fract_z
_atom_site_U_iso_or_equiv
_atom_site_adp_type
_atom_site_occupancy
C1     C     0.01390   0.26456   0.24733   0.00000  Uiso   1.00
C2     C     0.06311   0.18669   0.41269   0.00000  Uiso   1.00
C3     C     0.02063   0.31919   0.24725   0.00000  Uiso   1.00
C4     C     0.03725   0.17037   0.35468   0.00000  Uiso   1.00
C5     C     0.30673   0.01319   0.23366   0.00000  Uiso   1.00
C6     C     0.31713   0.06841   0.24616   0.00000  Uiso   1.00
C7     C     0.29813   0.16790   0.14597   0.00000  Uiso   1.00
C8     C     0.29864   0.15458   0.49681   0.00000  Uiso   1.00
C9     C     0.28304   0.17638   0.08750   0.00000  Uiso   1.00
C10    C     0.03912   0.22830   0.43695   0.00000  Uiso   1.00
C11    C     0.07356   0.26159   0.47941   0.00000  Uiso   1.00
C12    C     0.15335   0.20511   0.48324   0.00000  Uiso   1.00
C13    C     0.13157   0.25229   0.00099   0.00000  Uiso   1.00
C14    C     0.07814   0.21658   0.10937   0.00000  Uiso   1.00
C15    C     0.20125   0.01861   0.18739   0.00000  Uiso   1.00
C16    C     0.21917   0.26200   0.32260   0.00000  Uiso   1.00
C17    C     0.24836   0.05221   0.40415   0.00000  Uiso   1.00
C18    C     0.19097   0.33266   0.00720   0.00000  Uiso   1.00
C19    C     0.12062   0.17424   0.43636   0.00000  Uiso   1.00
C20    C     0.20834   0.18912   0.00763   0.00000  Uiso   1.00
C21    C     0.23944   0.16008   0.47526   0.00000  Uiso   1.00
C22    C     0.20895   0.13384   0.42517   0.00000  Uiso   1.00
C23    C     0.14847   0.13482   0.41134   0.00000  Uiso   1.00
C24    C     0.22788   0.19149   0.06465   0.00000  Uiso   1.00
C25    C     0.32243   0.16814   0.05294   0.00000  Uiso   1.00
H26    H     0.32897   0.23885   0.41911   0.00000  Uiso   1.00
H27    H     0.15643   0.12167   0.21222   0.00000  Uiso   1.00
H28    H     0.14056   0.22124   0.30915   0.00000  Uiso   1.00
H29    H     0.20646   0.27691   0.36072   0.00000  Uiso   1.00
H30    H     0.22638   0.29586   0.29928   0.00000  Uiso   1.00
H31    H     0.25947   0.24305   0.33639   0.00000  Uiso   1.00
H32    H     0.21849   0.10572   0.34860   0.00000  Uiso   1.00
H33    H     0.20629   0.02889   0.39868   0.00000  Uiso   1.00
H34    H     0.27372   0.05219   0.44743   0.00000  Uiso   1.00
H35    H     0.27395   0.03398   0.37663   0.00000  Uiso   1.00
H36    H     0.32554   0.13813   0.47121   0.00000  Uiso   1.00
H37    H     0.07483   0.15590   0.04722   0.00000  Uiso   1.00
H38    H     0.19866   0.20123   0.09092   0.00000  Uiso   1.00
H39    H     0.19810   0.28288   0.06918   0.00000  Uiso   1.00
H40    H     0.21488   0.03151   0.03724   0.00000  Uiso   1.00
H41    H     0.15540   0.01611   0.47783   0.00000  Uiso   1.00
H42    H     0.22159   0.31516   0.48452   0.00000  Uiso   1.00
H43    H     0.05588   0.29650   0.49386   0.00000  Uiso   1.00
H44    H     0.12461   0.10658   0.37875   0.00000  Uiso   1.00
H45    H     0.06415   0.00384   0.26529   0.00000  Uiso   1.00
H46    H     0.10729   0.20463   0.14714   0.00000  Uiso   1.00
H47    H     0.04592   0.24234   0.12111   0.00000  Uiso   1.00
H48    H     0.10542   0.24030   0.08927   0.00000  Uiso   1.00
H49    H     0.25557   0.29481   0.17026   0.00000  Uiso   1.00
H50    H     0.16407   0.32597   0.16252   0.00000  Uiso   1.00
H51    H     0.20964   0.05107   0.16246   0.00000  Uiso   1.00
H52    H     0.18868   0.03352   0.22555   0.00000  Uiso   1.00
N53    N     0.14493   0.15223   0.23543   0.00000  Uiso   1.00
N54    N     0.18840   0.18110   0.26458   0.00000  Uiso   1.00
N55    N     0.05080   0.17024   0.07392   0.00000  Uiso   1.00
N56    N     0.25199   0.32229   0.20132   0.00000  Uiso   1.00
N57    N     0.17319   0.22649   0.28933   0.00000  Uiso   1.00
N58    N     0.23773   0.10483   0.38999   0.00000  Uiso   1.00
N59    N     0.16756   0.29327   0.03624   0.00000  Uiso   1.00
O60    O     0.29769   0.24629   0.25358   0.00000  Uiso   1.00
O61    O     0.05742   0.23704   0.24424   0.00000  Uiso   1.00
O62    O     0.31490   0.17358   0.33380   0.00000  Uiso   1.00
O63    O     0.07463   0.16433   0.32446   0.00000  Uiso   1.00
O64    O     0.27592   0.09629   0.25577   0.00000  Uiso   1.00
O65    O     0.03565   0.08704   0.24643   0.00000  Uiso   1.00
O66    O     0.25870   0.16901   0.17554   0.00000  Uiso   1.00
O67    O     0.01843   0.15976   0.16620   0.00000  Uiso   1.00
Zn68   Zn    0.27119   0.17284   0.25624   0.00000  Uiso   1.00
Zn69   Zn    0.06214   0.16049   0.24377   0.00000  Uiso   1.00
C70    C     0.34723   0.26456   0.24733   0.00000  Uiso   1.00
C71    C     0.39644   0.18669   0.41269   0.00000  Uiso   1.00
C72    C     0.35396   0.31919   0.24725   0.00000  Uiso   1.00
C73    C     0.37058   0.17037   0.35468   0.00000  Uiso   1.00
C74    C     0.64006   0.01319   0.23366   0.00000  Uiso   1.00
C75    C     0.65047   0.06841   0.24616   0.00000  Uiso   1.00
C76    C     0.63146   0.16790   0.14597   0.00000  Uiso   1.00
C77    C     0.63197   0.15458   0.49681   0.00000  Uiso   1.00
C78    C     0.61638   0.17638   0.08750   0.00000  Uiso   1.00
C79    C     0.37246   0.22830   0.43695   0.00000  Uiso   1.00
C80    C     0.40690   0.26159   0.47941   0.00000  Uiso   1.00
C81    C     0.48669   0.20511   0.48324   0.00000  Uiso   1.00
C82    C     0.46491   0.25229   0.00099   0.00000  Uiso   1.00
C83    C     0.41147   0.21658   0.10937   0.00000  Uiso   1.00
C84    C     0.53458   0.01861   0.18739   0.00000  Uiso   1.00
C85    C     0.55250   0.26200   0.32260   0.00000  Uiso   1.00
C86    C     0.58170   0.05221   0.40415   0.00000  Uiso   1.00
C87    C     0.52431   0.33266   0.00720   0.00000  Uiso   1.00
C88    C     0.45396   0.17424   0.43636   0.00000  Uiso   1.00
C89    C     0.54167   0.18912   0.00763   0.00000  Uiso   1.00
C90    C     0.57277   0.16008   0.47526   0.00000  Uiso   1.00
C91    C     0.54228   0.13384   0.42517   0.00000  Uiso   1.00
C92    C     0.48180   0.13482   0.41134   0.00000  Uiso   1.00
C93    C     0.56122   0.19149   0.06465   0.00000  Uiso   1.00
C94    C     0.65576   0.16814   0.05294   0.00000  Uiso   1.00
H95    H     0.66231   0.23885   0.41911   0.00000  Uiso   1.00
H96    H     0.48977   0.12167   0.21222   0.00000  Uiso   1.00
H97    H     0.47390   0.22124   0.30915   0.00000  Uiso   1.00
H98    H     0.53979   0.27691   0.36072   0.00000  Uiso   1.00
H99    H     0.55972   0.29586   0.29928   0.00000  Uiso   1.00
H100   H     0.59280   0.24305   0.33639   0.00000  Uiso   1.00
H101   H     0.55182   0.10572   0.34860   0.00000  Uiso   1.00
H102   H     0.53963   0.02889   0.39868   0.00000  Uiso   1.00
H103   H     0.60705   0.05219   0.44743   0.00000  Uiso   1.00
H104   H     0.60728   0.03398   0.37663   0.00000  Uiso   1.00
H105   H     0.65887   0.13813   0.47121   0.00000  Uiso   1.00
H106   H     0.40817   0.15590   0.04722   0.00000  Uiso   1.00
H107   H     0.53199   0.20123   0.09092   0.00000  Uiso   1.00
H108   H     0.53144   0.28288   0.06918   0.00000  Uiso   1.00
H109   H     0.54821   0.03151   0.03724   0.00000  Uiso   1.00
H110   H     0.48873   0.01611   0.47783   0.00000  Uiso   1.00
H111   H     0.55492   0.31516   0.48452   0.00000  Uiso   1.00
H112   H     0.38922   0.29650   0.49386   0.00000  Uiso   1.00
H113   H     0.45794   0.10658   0.37875   0.00000  Uiso   1.00
H114   H     0.39748   0.00384   0.26529   0.00000  Uiso   1.00
H115   H     0.44062   0.20463   0.14714   0.00000  Uiso   1.00
H116   H     0.37925   0.24234   0.12111   0.00000  Uiso   1.00
H117   H     0.43875   0.24030   0.08927   0.00000  Uiso   1.00
H118   H     0.58890   0.29481   0.17026   0.00000  Uiso   1.00
H119   H     0.49740   0.32597   0.16252   0.00000  Uiso   1.00
H120   H     0.54297   0.05107   0.16246   0.00000  Uiso   1.00
H121   H     0.52201   0.03352   0.22555   0.00000  Uiso   1.00
N122   N     0.47827   0.15223   0.23543   0.00000  Uiso   1.00
N123   N     0.52173   0.18110   0.26458   0.00000  Uiso   1.00
N124   N     0.38414   0.17024   0.07392   0.00000  Uiso   1.00
N125   N     0.58532   0.32229   0.20132   0.00000  Uiso   1.00
N126   N     0.50652   0.22649   0.28933   0.00000  Uiso   1.00
N127   N     0.57106   0.10483   0.38999   0.00000  Uiso   1.00
N128   N     0.50089   0.29327   0.03624   0.00000  Uiso   1.00
O129   O     0.63102   0.24629   0.25358   0.00000  Uiso   1.00
O130   O     0.39075   0.23704   0.24424   0.00000  Uiso   1.00
O131   O     0.64823   0.17358   0.33380   0.00000  Uiso   1.00
O132   O     0.40796   0.16433   0.32446   0.00000  Uiso   1.00
O133   O     0.60925   0.09629   0.25577   0.00000  Uiso   1.00
O134   O     0.36898   0.08704   0.24643   0.00000  Uiso   1.00
O135   O     0.59204   0.16901   0.17554   0.00000  Uiso   1.00
O136   O     0.35177   0.15976   0.16620   0.00000  Uiso   1.00
Zn137  Zn    0.60453   0.17284   0.25624   0.00000  Uiso   1.00
Zn138  Zn    0.39547   0.16049   0.24377   0.00000  Uiso   1.00
C139   C     0.68056   0.26456   0.24733   0.00000  Uiso   1.00
C140   C     0.72978   0.18669   0.41269   0.00000  Uiso   1.00
C141   C     0.68729   0.31919   0.24725   0.00000  Uiso   1.00
C142   C     0.70391   0.17037   0.35468   0.00000  Uiso   1.00
C143   C     0.97339   0.01319   0.23366   0.00000  Uiso   1.00
C144   C     0.98380   0.06841   0.24616   0.00000  Uiso   1.00
C145   C     0.96479   0.16790   0.14597   0.00000  Uiso   1.00
C146   C     0.96530   0.15458   0.49681   0.00000  Uiso   1.00
C147   C     0.94971   0.17638   0.08750   0.00000  Uiso   1.00
C148   C     0.70579   0.22830   0.43695   0.00000  Uiso   1.00
C149   C     0.74023   0.26159   0.47941   0.00000  Uiso   1.00
C150   C     0.82002   0.20511   0.48324   0.00000  Uiso   1.00
C151   C     0.79824   0.25229   0.00099   0.00000  Uiso   1.00
C152   C     0.74481   0.21658   0.10937   0.00000  Uiso   1.00
C153   C     0.86792   0.01861   0.18739   0.00000  Uiso   1.00
C154   C     0.88583   0.26200   0.32260   0.00000  Uiso   1.00
C155   C     0.91503   0.05221   0.40415   0.00000  Uiso   1.00
C156   C     0.85764   0.33266   0.00720   0.00000  Uiso   1.00
C157   C     0.78729   0.17424   0.43636   0.00000  Uiso   1.00
C158   C     0.87501   0.18912   0.00763   0.00000  Uiso   1.00
C159   C     0.90610   0.16008   0.47526   0.00000  Uiso   1.00
C160   C     0.87562   0.13384   0.42517   0.00000  Uiso   1.00
C161   C     0.81513   0.13482   0.41134   0.00000  Uiso   1.00
C162   C     0.89455   0.19149   0.06465   0.00000  Uiso   1.00
C163   C     0.98909   0.16814   0.05294   0.00000  Uiso   1.00
H164   H     0.99564   0.23885   0.41911   0.00000  Uiso   1.00
H165   H     0.82310   0.12167   0.21222   0.00000  Uiso   1.00
H166   H     0.80723   0.22124   0.30915   0.00000  Uiso   1.00
H167   H     0.87313   0.27691   0.36072   0.00000  Uiso   1.00
H168   H     0.89305   0.29586   0.29928   0.00000  Uiso   1.00
H169   H     0.92613   0.24305   0.33639   0.00000  Uiso   1.00
H170   H     0.88515   0.10572   0.34860   0.00000  Uiso   1.00
H171   H     0.87296   0.02889   0.39868   0.00000  Uiso   1.00
H172   H     0.94038   0.05219   0.44743   0.00000  Uiso   1.00
H173   H     0.94062   0.03398   0.37663   0.00000  Uiso   1.00
H174   H     0.99221   0.13813   0.47121   0.00000  Uiso   1.00
H175   H     0.74150   0.15590   0.04722   0.00000  Uiso   1.00
H176   H     0.86532   0.20123   0.09092   0.00000  Uiso   1.00
H177   H     0.86477   0.28288   0.06918   0.00000  Uiso   1.00
H178   H     0.88155   0.03151   0.03724   0.00000  Uiso   1.00
H179   H     0.82207   0.01611   0.47783   0.00000  Uiso   1.00
H180   H     0.88826   0.31516   0.48452   0.00000  Uiso   1.00
H181   H     0.72255   0.29650   0.49386   0.00000  Uiso   1.00
H182   H     0.79128   0.10658   0.37875   0.00000  Uiso   1.00
H183   H     0.73081   0.00384   0.26529   0.00000  Uiso   1.00
H184   H     0.77396   0.20463   0.14714   0.00000  Uiso   1.00
H185   H     0.71258   0.24234   0.12111   0.00000  Uiso   1.00
H186   H     0.77208   0.24030   0.08927   0.00000  Uiso   1.00
H187   H     0.92223   0.29481   0.17026   0.00000  Uiso   1.00
H188   H     0.83073   0.32597   0.16252   0.00000  Uiso   1.00
H189   H     0.87630   0.05107   0.16246   0.00000  Uiso   1.00
H190   H     0.85534   0.03352   0.22555   0.00000  Uiso   1.00
N191   N     0.81160   0.15223   0.23543   0.00000  Uiso   1.00
N192   N     0.85507   0.18110   0.26458   0.00000  Uiso   1.00
N193   N     0.71747   0.17024   0.07392   0.00000  Uiso   1.00
N194   N     0.91866   0.32229   0.20132   0.00000  Uiso   1.00
N195   N     0.83986   0.22649   0.28933   0.00000  Uiso   1.00
N196   N     0.90440   0.10483   0.38999   0.00000  Uiso   1.00
N197   N     0.83423   0.29327   0.03624   0.00000  Uiso   1.00
O198   O     0.96435   0.24629   0.25358   0.00000  Uiso   1.00
O199   O     0.72408   0.23704   0.24424   0.00000  Uiso   1.00
O200   O     0.98157   0.17358   0.33380   0.00000  Uiso   1.00
O201   O     0.74130   0.16433   0.32446   0.00000  Uiso   1.00
O202   O     0.94258   0.09629   0.25577   0.00000  Uiso   1.00
O203   O     0.70231   0.08704   0.24643   0.00000  Uiso   1.00
O204   O     0.92537   0.16901   0.17554   0.00000  Uiso   1.00
O205   O     0.68510   0.15976   0.16620   0.00000  Uiso   1.00
Zn206  Zn    0.93786   0.17284   0.25624   0.00000  Uiso   1.00
Zn207  Zn    0.72881   0.16049   0.24377   0.00000  Uiso   1.00
C208   C     0.01390   0.59790   0.24733   0.00000  Uiso   1.00
C209   C     0.06311   0.52002   0.41269   0.00000  Uiso   1.00
C210   C     0.02063   0.65252   0.24725   0.00000  Uiso   1.00
C211   C     0.03725   0.50370   0.35468   0.00000  Uiso   1.00
C212   C     0.30673   0.34652   0.23366   0.00000  Uiso   1.00
C213   C     0.31713   0.40174   0.24616   0.00000  Uiso   1.00
C214   C     0.29813   0.50123   0.14597   0.00000  Uiso   1.00
C215   C     0.29864   0.48792   0.49681   0.00000  Uiso   1.00
C216   C     0.28304   0.50972   0.08750   0.00000  Uiso   1.00
C217   C     0.03912   0.56164   0.43695   0.00000  Uiso   1.00
C218   C     0.07356   0.59493   0.47941   0.00000  Uiso   1.00
C219   C     0.15335   0.53845   0.48324   0.00000  Uiso   1.00
C220   C     0.13157   0.58562   0.00099   0.00000  Uiso   1.00
C221   C     0.07814   0.54991   0.10937   0.00000  Uiso   1.00
C222   C     0.20125   0.35195   0.18739   0.00000  Uiso   1.00
C223   C     0.21917   0.59533   0.32260   0.00000  Uiso   1.00
C224   C     0.24836   0.38554   0.40415   0.00000  Uiso   1.00
C225   C     0.19097   0.66600   0.00720   0.00000  Uiso   1.00
C226   C     0.12062   0.50757   0.43636   0.00000  Uiso   1.00
C227   C     0.20834   0.52245   0.00763   0.00000  Uiso   1.00
C228   C     0.23944   0.49342   0.47526   0.00000  Uiso   1.00
C229   C     0.20895   0.46718   0.42517   0.00000  Uiso   1.00
C230   C     0.14847   0.46815   0.41134   0.00000  Uiso   1.00
C231   C     0.22788   0.52482   0.06465   0.00000  Uiso   1.00
C232   C     0.32243   0.50148   0.05294   0.00000  Uiso   1.00
H233   H     0.32897   0.57218   0.41911   0.00000  Uiso   1.00
H234   H     0.15643   0.45501   0.21222   0.00000  Uiso   1.00
H235   H     0.14056   0.55458   0.30915   0.00000  Uiso   1.00
H236   H     0.20646   0.61024   0.36072   0.00000  Uiso   1.00
H237   H     0.22638   0.62920   0.29928   0.00000  Uiso   1.00
H238   H     0.25947   0.57638   0.33639   0.00000  Uiso   1.00
H239   H     0.21849   0.43906   0.34860   0.00000  Uiso   1.00
H240   H     0.20629   0.36222   0.39868   0.00000  Uiso   1.00
H241   H     0.27372   0.38552   0.44743   0.00000  Uiso   1.00
H242   H     0.27395   0.36731   0.37663   0.00000  Uiso   1.00
H243   H     0.32554   0.47146   0.47121   0.00000  Uiso   1.00
H244   H     0.07483   0.48923   0.04722   0.00000  Uiso   1.00
H245   H     0.19866   0.53456   0.09092   0.00000  Uiso   1.00
H246   H     0.19810   0.61621   0.06918   0.00000  Uiso   1.00
H247   H     0.21488   0.36484   0.03724   0.00000  Uiso   1.00
H248   H     0.15540   0.34945   0.47783   0.00000  Uiso   1.00
H249   H     0.22159   0.64849   0.48452   0.00000  Uiso   1.00
H250   H     0.05588   0.62983   0.49386   0.00000  Uiso   1.00
H251   H     0.12461   0.43992   0.37875   0.00000  Uiso   1.00
H252   H     0.06415   0.33717   0.26529   0.00000  Uiso   1.00
H253   H     0.10729   0.53796   0.14714   0.00000  Uiso   1.00
H254   H     0.04592   0.57568   0.12111   0.00000  Uiso   1.00
H255   H     0.10542   0.57363   0.08927   0.00000  Uiso   1.00
H256   H     0.25557   0.62814   0.17026   0.00000  Uiso   1.00
H257   H     0.16407   0.65931   0.16252   0.00000  Uiso   1.00
H258   H     0.20964   0.38440   0.16246   0.00000  Uiso   1.00
H259   H     0.18868   0.36686   0.22555   0.00000  Uiso   1.00
N260   N     0.14493   0.48556   0.23543   0.00000  Uiso   1.00
N261   N     0.18840   0.51444   0.26458   0.00000  Uiso   1.00
N262   N     0.05080   0.50357   0.07392   0.00000  Uiso   1.00
N263   N     0.25199   0.65563   0.20132   0.00000  Uiso   1.00
N264   N     0.17319   0.55983   0.28933   0.00000  Uiso   1.00
N265   N     0.23773   0.43816   0.38999   0.00000  Uiso   1.00
N266   N     0.16756   0.62660   0.03624   0.00000  Uiso   1.00
O267   O     0.29769   0.57963   0.25358   0.00000  Uiso   1.00
O268   O     0.05742   0.57038   0.24424   0.00000  Uiso   1.00
O269   O     0.31490   0.50691   0.33380   0.00000  Uiso   1.00
O270   O     0.07463   0.49766   0.32446   0.00000  Uiso   1.00
O271   O     0.27592   0.42962   0.25577   0.00000  Uiso   1.00
O272   O     0.03565   0.42037   0.24643   0.00000  Uiso   1.00
O273   O     0.25870   0.50234   0.17554   0.00000  Uiso   1.00
O274   O     0.01843   0.49309   0.16620   0.00000  Uiso   1.00
Zn275  Zn    0.27119   0.50618   0.25624   0.00000  Uiso   1.00
Zn276  Zn    0.06214   0.49382   0.24377   0.00000  Uiso   1.00
C277   C     0.34723   0.59790   0.24733   0.00000  Uiso   1.00
C278   C     0.39644   0.52002   0.41269   0.00000  Uiso   1.00
C279   C     0.35396   0.65252   0.24725   0.00000  Uiso   1.00
C280   C     0.37058   0.50370   0.35468   0.00000  Uiso   1.00
C281   C     0.64006   0.34652   0.23366   0.00000  Uiso   1.00
C282   C     0.65047   0.40174   0.24616   0.00000  Uiso   1.00
C283   C     0.63146   0.50123   0.14597   0.00000  Uiso   1.00
C284   C     0.63197   0.48792   0.49681   0.00000  Uiso   1.00
C285   C     0.61638   0.50972   0.08750   0.00000  Uiso   1.00
C286   C     0.37246   0.56164   0.43695   0.00000  Uiso   1.00
C287   C     0.40690   0.59493   0.47941   0.00000  Uiso   1.00
C288   C     0.48669   0.53845   0.48324   0.00000  Uiso   1.00
C289   C     0.46491   0.58562   0.00099   0.00000  Uiso   1.00
C290   C     0.41147   0.54991   0.10937   0.00000  Uiso   1.00
C291   C     0.53458   0.35195   0.18739   0.00000  Uiso   1.00
C292   C     0.55250   0.59533   0.32260   0.00000  Uiso   1.00
C293   C     0.58170   0.38554   0.40415   0.00000  Uiso   1.00
C294   C     0.52431   0.66600   0.00720   0.00000  Uiso   1.00
C295   C     0.45396   0.50757   0.43636   0.00000  Uiso   1.00
C296   C     0.54167   0.52245   0.00763   0.00000  Uiso   1.00
C297   C     0.57277   0.49342   0.47526   0.00000  Uiso   1.00
C298   C     0.54228   0.46718   0.42517   0.00000  Uiso   1.00
C299   C     0.48180   0.46815   0.41134   0.00000  Uiso   1.00
C300   C     0.56122   0.52482   0.06465   0.00000  Uiso   1.00
C301   C     0.65576   0.50148   0.05294   0.00000  Uiso   1.00
H302   H     0.66231   0.57218   0.41911   0.00000  Uiso   1.00
H303   H     0.48977   0.45501   0.21222   0.00000  Uiso   1.00
H304   H     0.47390   0.55458   0.30915   0.00000  Uiso   1.00
H305   H     0.53979   0.61024   0.36072   0.00000  Uiso   1.00
H306   H     0.55972   0.62920   0.29928   0.00000  Uiso   1.00
H307   H     0.59280   0.57638   0.33639   0.00000  Uiso   1.00
H308   H     0.55182   0.43906   0.34860   0.00000  Uiso   1.00
H309   H     0.53963   0.36222   0.39868   0.00000  Uiso   1.00
H310   H     0.60705   0.38552   0.44743   0.00000  Uiso   1.00
H311   H     0.60728   0.36731   0.37663   0.00000  Uiso   1.00
H312   H     0.65887   0.47146   0.47121   0.00000  Uiso   1.00
H313   H     0.40817   0.48923   0.04722   0.00000  Uiso   1.00
H314   H     0.53199   0.53456   0.09092   0.00000  Uiso   1.00
H315   H     0.53144   0.61621   0.06918   0.00000  Uiso   1.00
H316   H     0.54821   0.36484   0.03724   0.00000  Uiso   1.00
H317   H     0.48873   0.34945   0.47783   0.00000  Uiso   1.00
H318   H     0.55492   0.64849   0.48452   0.00000  Uiso   1.00
H319   H     0.38922   0.62983   0.49386   0.00000  Uiso   1.00
H320   H     0.45794   0.43992   0.37875   0.00000  Uiso   1.00
H321   H     0.39748   0.33717   0.26529   0.00000  Uiso   1.00
H322   H     0.44062   0.53796   0.14714   0.00000  Uiso   1.00
H323   H     0.37925   0.57568   0.12111   0.00000  Uiso   1.00
H324   H     0.43875   0.57363   0.08927   0.00000  Uiso   1.00
H325   H     0.58890   0.62814   0.17026   0.00000  Uiso   1.00
H326   H     0.49740   0.65931   0.16252   0.00000  Uiso   1.00
H327   H     0.54297   0.38440   0.16246   0.00000  Uiso   1.00
H328   H     0.52201   0.36686   0.22555   0.00000  Uiso   1.00
N329   N     0.47827   0.48556   0.23543   0.00000  Uiso   1.00
N330   N     0.52173   0.51444   0.26458   0.00000  Uiso   1.00
N331   N     0.38414   0.50357   0.07392   0.00000  Uiso   1.00
N332   N     0.58532   0.65563   0.20132   0.00000  Uiso   1.00
N333   N     0.50652   0.55983   0.28933   0.00000  Uiso   1.00
N334   N     0.57106   0.43816   0.38999   0.00000  Uiso   1.00
N335   N     0.50089   0.62660   0.03624   0.00000  Uiso   1.00
O336   O     0.63102   0.57963   0.25358   0.00000  Uiso   1.00
O337   O     0.39075   0.57038   0.24424   0.00000  Uiso   1.00
O338   O     0.64823   0.50691   0.33380   0.00000  Uiso   1.00
O339   O     0.40796   0.49766   0.32446   0.00000  Uiso   1.00
O340   O     0.60925   0.42962   0.25577   0.00000  Uiso   1.00
O341   O     0.36898   0.42037   0.24643   0.00000  Uiso   1.00
O342   O     0.59204   0.50234   0.17554   0.00000  Uiso   1.00
O343   O     0.35177   0.49309   0.16620   0.00000  Uiso   1.00
Zn344  Zn    0.60453   0.50618   0.25624   0.00000  Uiso   1.00
Zn345  Zn    0.39547   0.49382   0.24377   0.00000  Uiso   1.00
C346   C     0.68056   0.59790   0.24733   0.00000  Uiso   1.00
C347   C     0.72978   0.52002   0.41269   0.00000  Uiso   1.00
C348   C     0.68729   0.65252   0.24725   0.00000  Uiso   1.00
C349   C     0.70391   0.50370   0.35468   0.00000  Uiso   1.00
C350   C     0.97339   0.34652   0.23366   0.00000  Uiso   1.00
C351   C     0.98380   0.40174   0.24616   0.00000  Uiso   1.00
C352   C     0.96479   0.50123   0.14597   0.00000  Uiso   1.00
C353   C     0.96530   0.48792   0.49681   0.00000  Uiso   1.00
C354   C     0.94971   0.50972   0.08750   0.00000  Uiso   1.00
C355   C     0.70579   0.56164   0.43695   0.00000  Uiso   1.00
C356   C     0.74023   0.59493   0.47941   0.00000  Uiso   1.00
C357   C     0.82002   0.53845   0.48324   0.00000  Uiso   1.00
C358   C     0.79824   0.58562   0.00099   0.00000  Uiso   1.00
C359   C     0.74481   0.54991   0.10937   0.00000  Uiso   1.00
C360   C     0.86792   0.35195   0.18739   0.00000  Uiso   1.00
C361   C     0.88583   0.59533   0.32260   0.00000  Uiso   1.00
C362   C     0.91503   0.38554   0.40415   0.00000  Uiso   1.00
C363   C     0.85764   0.66600   0.00720   0.00000  Uiso   1.00
C364   C     0.78729   0.50757   0.43636   0.00000  Uiso   1.00
C365   C     0.87501   0.52245   0.00763   0.00000  Uiso   1.00
C366   C     0.90610   0.49342   0.47526   0.00000  Uiso   1.00
C367   C     0.87562   0.46718   0.42517   0.00000  Uiso   1.00
C368   C     0.81513   0.46815   0.41134   0.00000  Uiso   1.00
C369   C     0.89455   0.52482   0.06465   0.00000  Uiso   1.00
C370   C     0.98909   0.50148   0.05294   0.00000  Uiso   1.00
H371   H     0.99564   0.57218   0.41911   0.00000  Uiso   1.00
H372   H     0.82310   0.45501   0.21222   0.00000  Uiso   1.00
H373   H     0.80723   0.55458   0.30915   0.00000  Uiso   1.00
H374   H     0.87313   0.61024   0.36072   0.00000  Uiso   1.00
H375   H     0.89305   0.62920   0.29928   0.00000  Uiso   1.00
H376   H     0.92613   0.57638   0.33639   0.00000  Uiso   1.00
H377   H     0.88515   0.43906   0.34860   0.00000  Uiso   1.00
H378   H     0.87296   0.36222   0.39868   0.00000  Uiso   1.00
H379   H     0.94038   0.38552   0.44743   0.00000  Uiso   1.00
H380   H     0.94062   0.36731   0.37663   0.00000  Uiso   1.00
H381   H     0.99221   0.47146   0.47121   0.00000  Uiso   1.00
H382   H     0.74150   0.48923   0.04722   0.00000  Uiso   1.00
H383   H     0.86532   0.53456   0.09092   0.00000  Uiso   1.00
H384   H     0.86477   0.61621   0.06918   0.00000  Uiso   1.00
H385   H     0.88155   0.36484   0.03724   0.00000  Uiso   1.00
H386   H     0.82207   0.34945   0.47783   0.00000  Uiso   1.00
H387   H     0.88826   0.64849   0.48452   0.00000  Uiso   1.00
H388   H     0.72255   0.62983   0.49386   0.00000  Uiso   1.00
H389   H     0.79128   0.43992   0.37875   0.00000  Uiso   1.00
H390   H     0.73081   0.33717   0.26529   0.00000  Uiso   1.00
H391   H     0.77396   0.53796   0.14714   0.00000  Uiso   1.00
H392   H     0.71258   0.57568   0.12111   0.00000  Uiso   1.00
H393   H     0.77208   0.57363   0.08927   0.00000  Uiso   1.00
H394   H     0.92223   0.62814   0.17026   0.00000  Uiso   1.00
H395   H     0.83073   0.65931   0.16252   0.00000  Uiso   1.00
H396   H     0.87630   0.38440   0.16246   0.00000  Uiso   1.00
H397   H     0.85534   0.36686   0.22555   0.00000  Uiso   1.00
N398   N     0.81160   0.48556   0.23543   0.00000  Uiso   1.00
N399   N     0.85507   0.51444   0.26458   0.00000  Uiso   1.00
N400   N     0.71747   0.50357   0.07392   0.00000  Uiso   1.00
N401   N     0.91866   0.65563   0.20132   0.00000  Uiso   1.00
N402   N     0.83986   0.55983   0.28933   0.00000  Uiso   1.00
N403   N     0.90440   0.43816   0.38999   0.00000  Uiso   1.00
N404   N     0.83423   0.62660   0.03624   0.00000  Uiso   1.00
O405   O     0.96435   0.57963   0.25358   0.00000  Uiso   1.00
O406   O     0.72408   0.57038   0.24424   0.00000  Uiso   1.00
O407   O     0.98157   0.50691   0.33380   0.00000  Uiso   1.00
O408   O     0.74130   0.49766   0.32446   0.00000  Uiso   1.00
O409   O     0.94258   0.42962   0.25577   0.00000  Uiso   1.00
O410   O     0.70231   0.42037   0.24643   0.00000  Uiso   1.00
O411   O     0.92537   0.50234   0.17554   0.00000  Uiso   1.00
O412   O     0.68510   0.49309   0.16620   0.00000  Uiso   1.00
Zn413  Zn    0.93786   0.50618   0.25624   0.00000  Uiso   1.00
Zn414  Zn    0.72881   0.49382   0.24377   0.00000  Uiso   1.00
C415   C     0.01390   0.93123   0.24733   0.00000  Uiso   1.00
C416   C     0.06311   0.85335   0.41269   0.00000  Uiso   1.00
C417   C     0.02063   0.98586   0.24725   0.00000  Uiso   1.00
C418   C     0.03725   0.83704   0.35468   0.00000  Uiso   1.00
C419   C     0.30673   0.67985   0.23366   0.00000  Uiso   1.00
C420   C     0.31713   0.73508   0.24616   0.00000  Uiso   1.00
C421   C     0.29813   0.83456   0.14597   0.00000  Uiso   1.00
C422   C     0.29864   0.82125   0.49681   0.00000  Uiso   1.00
C423   C     0.28304   0.84305   0.08750   0.00000  Uiso   1.00
C424   C     0.03912   0.89497   0.43695   0.00000  Uiso   1.00
C425   C     0.07356   0.92826   0.47941   0.00000  Uiso   1.00
C426   C     0.15335   0.87178   0.48324   0.00000  Uiso   1.00
C427   C     0.13157   0.91895   0.00099   0.00000  Uiso   1.00
C428   C     0.07814   0.88324   0.10937   0.00000  Uiso   1.00
C429   C     0.20125   0.68528   0.18739   0.00000  Uiso   1.00
C430   C     0.21917   0.92867   0.32260   0.00000  Uiso   1.00
C431   C     0.24836   0.71887   0.40415   0.00000  Uiso   1.00
C432   C     0.19097   0.99933   0.00720   0.00000  Uiso   1.00
C433   C     0.12062   0.84091   0.43636   0.00000  Uiso   1.00
C434   C     0.20834   0.85579   0.00763   0.00000  Uiso   1.00
C435   C     0.23944   0.82675   0.47526   0.00000  Uiso   1.00
C436   C     0.20895   0.80051   0.42517   0.00000  Uiso   1.00
C437   C     0.14847   0.80148   0.41134   0.00000  Uiso   1.00
C438   C     0.22788   0.85816   0.06465   0.00000  Uiso   1.00
C439   C     0.32243   0.83481   0.05294   0.00000  Uiso   1.00
H440   H     0.32897   0.90552   0.41911   0.00000  Uiso   1.00
H441   H     0.15643   0.78834   0.21222   0.00000  Uiso   1.00
H442   H     0.14056   0.88791   0.30915   0.00000  Uiso   1.00
H443   H     0.20646   0.94358   0.36072   0.00000  Uiso   1.00
H444   H     0.22638   0.96253   0.29928   0.00000  Uiso   1.00
H445   H     0.25947   0.90971   0.33639   0.00000  Uiso   1.00
H446   H     0.21849   0.77239   0.34860   0.00000  Uiso   1.00
H447   H     0.20629   0.69555   0.39868   0.00000  Uiso   1.00
H448   H     0.27372   0.71885   0.44743   0.00000  Uiso   1.00
H449   H     0.27395   0.70064   0.37663   0.00000  Uiso   1.00
H450   H     0.32554   0.80480   0.47121   0.00000  Uiso   1.00
H451   H     0.07483   0.82256   0.04722   0.00000  Uiso   1.00
H452   H     0.19866   0.86789   0.09092   0.00000  Uiso   1.00
H453   H     0.19810   0.94954   0.06918   0.00000  Uiso   1.00
H454   H     0.21488   0.69818   0.03724   0.00000  Uiso   1.00
H455   H     0.15540   0.68278   0.47783   0.00000  Uiso   1.00
H456   H     0.22159   0.98182   0.48452   0.00000  Uiso   1.00
H457   H     0.05588   0.96316   0.49386   0.00000  Uiso   1.00
H458   H     0.12461   0.77325   0.37875   0.00000  Uiso   1.00
H459   H     0.06415   0.67050   0.26529   0.00000  Uiso   1.00
H460   H     0.10729   0.87130   0.14714   0.00000  Uiso   1.00
H461   H     0.04592   0.90901   0.12111   0.00000  Uiso   1.00
H462   H     0.10542   0.90697   0.08927   0.00000  Uiso   1.00
H463   H     0.25557   0.96148   0.17026   0.00000  Uiso   1.00
H464   H     0.16407   0.99264   0.16252   0.00000  Uiso   1.00
H465   H     0.20964   0.71774   0.16246   0.00000  Uiso   1.00
H466   H     0.18868   0.70019   0.22555   0.00000  Uiso   1.00
N467   N     0.14493   0.81890   0.23543   0.00000  Uiso   1.00
N468   N     0.18840   0.84777   0.26458   0.00000  Uiso   1.00
N469   N     0.05080   0.83691   0.07392   0.00000  Uiso   1.00
N470   N     0.25199   0.98896   0.20132   0.00000  Uiso   1.00
N471   N     0.17319   0.89316   0.28933   0.00000  Uiso   1.00
N472   N     0.23773   0.77149   0.38999   0.00000  Uiso   1.00
N473   N     0.16756   0.95993   0.03624   0.00000  Uiso   1.00
O474   O     0.29769   0.91296   0.25358   0.00000  Uiso   1.00
O475   O     0.05742   0.90371   0.24424   0.00000  Uiso   1.00
O476   O     0.31490   0.84024   0.33380   0.00000  Uiso   1.00
O477   O     0.07463   0.83099   0.32446   0.00000  Uiso   1.00
O478   O     0.27592   0.76296   0.25577   0.00000  Uiso   1.00
O479   O     0.03565   0.75371   0.24643   0.00000  Uiso   1.00
O480   O     0.25870   0.83567   0.17554   0.00000  Uiso   1.00
O481   O     0.01843   0.82642   0.16620   0.00000  Uiso   1.00
Zn482  Zn    0.27119   0.83951   0.25624   0.00000  Uiso   1.00
Zn483  Zn    0.06214   0.82716   0.24377   0.00000  Uiso   1.00
C484   C     0.34723   0.93123   0.24733   0.00000  Uiso   1.00
C485   C     0.39644   0.85335   0.41269   0.00000  Uiso   1.00
C486   C     0.35396   0.98586   0.24725   0.00000  Uiso   1.00
C487   C     0.37058   0.83704   0.35468   0.00000  Uiso   1.00
C488   C     0.64006   0.67985   0.23366   0.00000  Uiso   1.00
C489   C     0.65047   0.73508   0.24616   0.00000  Uiso   1.00
C490   C     0.63146   0.83456   0.14597   0.00000  Uiso   1.00
C491   C     0.63197   0.82125   0.49681   0.00000  Uiso   1.00
C492   C     0.61638   0.84305   0.08750   0.00000  Uiso   1.00
C493   C     0.37246   0.89497   0.43695   0.00000  Uiso   1.00
C494   C     0.40690   0.92826   0.47941   0.00000  Uiso   1.00
C495   C     0.48669   0.87178   0.48324   0.00000  Uiso   1.00
C496   C     0.46491   0.91895   0.00099   0.00000  Uiso   1.00
C497   C     0.41147   0.88324   0.10937   0.00000  Uiso   1.00
C498   C     0.53458   0.68528   0.18739   0.00000  Uiso   1.00
C499   C     0.55250   0.92867   0.32260   0.00000  Uiso   1.00
C500   C     0.58170   0.71887   0.40415   0.00000  Uiso   1.00
C501   C     0.52431   0.99933   0.00720   0.00000  Uiso   1.00
C502   C     0.45396   0.84091   0.43636   0.00000  Uiso   1.00
C503   C     0.54167   0.85579   0.00763   0.00000  Uiso   1.00
C504   C     0.57277   0.82675   0.47526   0.00000  Uiso   1.00
C505   C     0.54228   0.80051   0.42517   0.00000  Uiso   1.00
C506   C     0.48180   0.80148   0.41134   0.00000  Uiso   1.00
C507   C     0.56122   0.85816   0.06465   0.00000  Uiso   1.00
C508   C     0.65576   0.83481   0.05294   0.00000  Uiso   1.00
H509   H     0.66231   0.90552   0.41911   0.00000  Uiso   1.00
H510   H     0.48977   0.78834   0.21222   0.00000  Uiso   1.00
H511   H     0.47390   0.88791   0.30915   0.00000  Uiso   1.00
H512   H     0.53979   0.94358   0.36072   0.00000  Uiso   1.00
H513   H     0.55972   0.96253   0.29928   0.00000  Uiso   1.00
H514   H     0.59280   0.90971   0.33639   0.00000  Uiso   1.00
H515   H     0.55182   0.77239   0.34860   0.00000  Uiso   1.00
H516   H     0.53963   0.69555   0.39868   0.00000  Uiso   1.00
H517   H     0.60705   0.71885   0.44743   0.00000  Uiso   1.00
H518   H     0.60728   0.70064   0.37663   0.00000  Uiso   1.00
H519   H     0.65887   0.80480   0.47121   0.00000  Uiso   1.00
H520   H     0.40817   0.82256   0.04722   0.00000  Uiso   1.00
H521   H     0.53199   0.86789   0.09092   0.00000  Uiso   1.00
H522   H     0.53144   0.94954   0.06918   0.00000  Uiso   1.00
H523   H     0.54821   0.69818   0.03724   0.00000  Uiso   1.00
H524   H     0.48873   0.68278   0.47783   0.00000  Uiso   1.00
H525   H     0.55492   0.98182   0.48452   0.00000  Uiso   1.00
H526   H     0.38922   0.96316   0.49386   0.00000  Uiso   1.00
H527   H     0.45794   0.77325   0.37875   0.00000  Uiso   1.00
H528   H     0.39748   0.67050   0.26529   0.00000  Uiso   1.00
H529   H     0.44062   0.87130   0.14714   0.00000  Uiso   1.00
H530   H     0.37925   0.90901   0.12111   0.00000  Uiso   1.00
H531   H     0.43875   0.90697   0.08927   0.00000  Uiso   1.00
H532   H     0.58890   0.96148   0.17026   0.00000  Uiso   1.00
H533   H     0.49740   0.99264   0.16252   0.00000  Uiso   1.00
H534   H     0.54297   0.71774   0.16246   0.00000  Uiso   1.00
H535   H     0.52201   0.70019   0.22555   0.00000  Uiso   1.00
N536   N     0.47827   0.81890   0.23543   0.00000  Uiso   1.00
N537   N     0.52173   0.84777   0.26458   0.00000  Uiso   1.00
N538   N     0.38414   0.83691   0.07392   0.00000  Uiso   1.00
N539   N     0.58532   0.98896   0.20132   0.00000  Uiso   1.00
N540   N     0.50652   0.89316   0.28933   0.00000  Uiso   1.00
N541   N     0.57106   0.77149   0.38999   0.00000  Uiso   1.00
N542   N     0.50089   0.95993   0.03624   0.00000  Uiso   1.00
O543   O     0.63102   0.91296   0.25358   0.00000  Uiso   1.00
O544   O     0.39075   0.90371   0.24424   0.00000  Uiso   1.00
O545   O     0.64823   0.84024   0.33380   0.00000  Uiso   1.00
O546   O     0.40796   0.83099   0.32446   0.00000  Uiso   1.00
O547   O     0.60925   0.76296   0.25577   0.00000  Uiso   1.00
O548   O     0.36898   0.75371   0.24643   0.00000  Uiso   1.00
O549   O     0.59204   0.83567   0.17554   0.00000  Uiso   1.00
O550   O     0.35177   0.82642   0.16620   0.00000  Uiso   1.00
Zn551  Zn    0.60453   0.83951   0.25624   0.00000  Uiso   1.00
Zn552  Zn    0.39547   0.82716   0.24377   0.00000  Uiso   1.00
C553   C     0.68056   0.93123   0.24733   0.00000  Uiso   1.00
C554   C     0.72978   0.85335   0.41269   0.00000  Uiso   1.00
C555   C     0.68729   0.98586   0.24725   0.00000  Uiso   1.00
C556   C     0.70391   0.83704   0.35468   0.00000  Uiso   1.00
C557   C     0.97339   0.67985   0.23366   0.00000  Uiso   1.00
C558   C     0.98380   0.73508   0.24616   0.00000  Uiso   1.00
C559   C     0.96479   0.83456   0.14597   0.00000  Uiso   1.00
C560   C     0.96530   0.82125   0.49681   0.00000  Uiso   1.00
C561   C     0.94971   0.84305   0.08750   0.00000  Uiso   1.00
C562   C     0.70579   0.89497   0.43695   0.00000  Uiso   1.00
C563   C     0.74023   0.92826   0.47941   0.00000  Uiso   1.00
C564   C     0.82002   0.87178   0.48324   0.00000  Uiso   1.00
C565   C     0.79824   0.91895   0.00099   0.00000  Uiso   1.00
C566   C     0.74481   0.88324   0.10937   0.00000  Uiso   1.00
C567   C     0.86792   0.68528   0.18739   0.00000  Uiso   1.00
C568   C     0.88583   0.92867   0.32260   0.00000  Uiso   1.00
C569   C     0.91503   0.71887   0.40415   0.00000  Uiso   1.00
C570   C     0.85764   0.99933   0.00720   0.00000  Uiso   1.00
C571   C     0.78729   0.84091   0.43636   0.00000  Uiso   1.00
C572   C     0.87501   0.85579   0.00763   0.00000  Uiso   1.00
C573   C     0.90610   0.82675   0.47526   0.00000  Uiso   1.00
C574   C     0.87562   0.80051   0.42517   0.00000  Uiso   1.00
C575   C     0.81513   0.80148   0.41134   0.00000  Uiso   1.00
C576   C     0.89455   0.85816   0.06465   0.00000  Uiso   1.00
C577   C     0.98909   0.83481   0.05294   0.00000  Uiso   1.00
H578   H     0.99564   0.90552   0.41911   0.00000  Uiso   1.00
H579   H     0.82310   0.78834   0.21222   0.00000  Uiso   1.00
H580   H     0.80723   0.88791   0.30915   0.00000  Uiso   1.00
H581   H     0.87313   0.94358   0.36072   0.00000  Uiso   1.00
H582   H     0.89305   0.96253   0.29928   0.00000  Uiso   1.00
H583   H     0.92613   0.90971   0.33639   0.00000  Uiso   1.00
H584   H     0.88515   0.77239   0.34860   0.00000  Uiso   1.00
H585   H     0.87296   0.69555   0.39868   0.00000  Uiso   1.00
H586   H     0.94038   0.71885   0.44743   0.00000  Uiso   1.00
H587   H     0.94062   0.70064   0.37663   0.00000  Uiso   1.00
H588   H     0.99221   0.80480   0.47121   0.00000  Uiso   1.00
H589   H     0.74150   0.82256   0.04722   0.00000  Uiso   1.00
H590   H     0.86532   0.86789   0.09092   0.00000  Uiso   1.00
H591   H     0.86477   0.94954   0.06918   0.00000  Uiso   1.00
H592   H     0.88155   0.69818   0.03724   0.00000  Uiso   1.00
H593   H     0.82207   0.68278   0.47783   0.00000  Uiso   1.00
H594   H     0.88826   0.98182   0.48452   0.00000  Uiso   1.00
H595   H     0.72255   0.96316   0.49386   0.00000  Uiso   1.00
H596   H     0.79128   0.77325   0.37875   0.00000  Uiso   1.00
H597   H     0.73081   0.67050   0.26529   0.00000  Uiso   1.00
H598   H     0.77396   0.87130   0.14714   0.00000  Uiso   1.00
H599   H     0.71258   0.90901   0.12111   0.00000  Uiso   1.00
H600   H     0.77208   0.90697   0.08927   0.00000  Uiso   1.00
H601   H     0.92223   0.96148   0.17026   0.00000  Uiso   1.00
H602   H     0.83073   0.99264   0.16252   0.00000  Uiso   1.00
H603   H     0.87630   0.71774   0.16246   0.00000  Uiso   1.00
H604   H     0.85534   0.70019   0.22555   0.00000  Uiso   1.00
N605   N     0.81160   0.81890   0.23543   0.00000  Uiso   1.00
N606   N     0.85507   0.84777   0.26458   0.00000  Uiso   1.00
N607   N     0.71747   0.83691   0.07392   0.00000  Uiso   1.00
N608   N     0.91866   0.98896   0.20132   0.00000  Uiso   1.00
N609   N     0.83986   0.89316   0.28933   0.00000  Uiso   1.00
N610   N     0.90440   0.77149   0.38999   0.00000  Uiso   1.00
N611   N     0.83423   0.95993   0.03624   0.00000  Uiso   1.00
O612   O     0.96435   0.91296   0.25358   0.00000  Uiso   1.00
O613   O     0.72408   0.90371   0.24424   0.00000  Uiso   1.00
O614   O     0.98157   0.84024   0.33380   0.00000  Uiso   1.00
O615   O     0.74130   0.83099   0.32446   0.00000  Uiso   1.00
O616   O     0.94258   0.76296   0.25577   0.00000  Uiso   1.00
O617   O     0.70231   0.75371   0.24643   0.00000  Uiso   1.00
O618   O     0.92537   0.83567   0.17554   0.00000  Uiso   1.00
O619   O     0.68510   0.82642   0.16620   0.00000  Uiso   1.00
Zn620  Zn    0.93786   0.83951   0.25624   0.00000  Uiso   1.00
Zn621  Zn    0.72881   0.82716   0.24377   0.00000  Uiso   1.00
C622   C     0.01390   0.26456   0.74733   0.00000  Uiso   1.00
C623   C     0.06311   0.18669   0.91269   0.00000  Uiso   1.00
C624   C     0.02063   0.31919   0.74725   0.00000  Uiso   1.00
C625   C     0.03725   0.17037   0.85468   0.00000  Uiso   1.00
C626   C     0.30673   0.01319   0.73366   0.00000  Uiso   1.00
C627   C     0.31713   0.06841   0.74616   0.00000  Uiso   1.00
C628   C     0.29813   0.16790   0.64597   0.00000  Uiso   1.00
C629   C     0.29864   0.15458   0.99681   0.00000  Uiso   1.00
C630   C     0.28304   0.17638   0.58750   0.00000  Uiso   1.00
C631   C     0.03912   0.22830   0.93695   0.00000  Uiso   1.00
C632   C     0.07356   0.26159   0.97941   0.00000  Uiso   1.00
C633   C     0.15335   0.20511   0.98324   0.00000  Uiso   1.00
C634   C     0.13157   0.25229   0.50099   0.00000  Uiso   1.00
C635   C     0.07814   0.21658   0.60937   0.00000  Uiso   1.00
C636   C     0.20125   0.01861   0.68739   0.00000  Uiso   1.00
C637   C     0.21917   0.26200   0.82260   0.00000  Uiso   1.00
C638   C     0.24836   0.05221   0.90415   0.00000  Uiso   1.00
C639   C     0.19097   0.33266   0.50720   0.00000  Uiso   1.00
C640   C     0.12062   0.17424   0.93636   0.00000  Uiso   1.00
C641   C     0.20834   0.18912   0.50763   0.00000  Uiso   1.00
C642   C     0.23944   0.16008   0.97526   0.00000  Uiso   1.00
C643   C     0.20895   0.13384   0.92517   0.00000  Uiso   1.00
C644   C     0.14847   0.13482   0.91134   0.00000  Uiso   1.00
C645   C     0.22788   0.19149   0.56465   0.00000  Uiso   1.00
C646   C     0.32243   0.16814   0.55294   0.00000  Uiso   1.00
H647   H     0.32897   0.23885   0.91911   0.00000  Uiso   1.00
H648   H     0.15643   0.12167   0.71222   0.00000  Uiso   1.00
H649   H     0.14056   0.22124   0.80915   0.00000  Uiso   1.00
H650   H     0.20646   0.27691   0.86072   0.00000  Uiso   1.00
H651   H     0.22638   0.29586   0.79928   0.00000  Uiso   1.00
H652   H     0.25947   0.24305   0.83639   0.00000  Uiso   1.00
H653   H     0.21849   0.10572   0.84860   0.00000  Uiso   1.00
H654   H     0.20629   0.02889   0.89868   0.00000  Uiso   1.00
H655   H     0.27372   0.05219   0.94743   0.00000  Uiso   1.00
H656   H     0.27395   0.03398   0.87663   0.00000  Uiso   1.00
H657   H     0.32554   0.13813   0.97121   0.00000  Uiso   1.00
H658   H     0.07483   0.15590   0.54722   0.00000  Uiso   1.00
H659   H     0.19866   0.20123   0.59092   0.00000  Uiso   1.00
H660   H     0.19810   0.28288   0.56918   0.00000  Uiso   1.00
H661   H     0.21488   0.03151   0.53724   0.00000  Uiso   1.00
H662   H     0.15540   0.01611   0.97783   0.00000  Uiso   1.00
H663   H     0.22159   0.31516   0.98452   0.00000  Uiso   1.00
H664   H     0.05588   0.29650   0.99386   0.00000  Uiso   1.00
H665   H     0.12461   0.10658   0.87875   0.00000  Uiso   1.00
H666   H     0.06415   0.00384   0.76529   0.00000  Uiso   1.00
H667   H     0.10729   0.20463   0.64714   0.00000  Uiso   1.00
H668   H     0.04592   0.24234   0.62111   0.00000  Uiso   1.00
H669   H     0.10542   0.24030   0.58927   0.00000  Uiso   1.00
H670   H     0.25557   0.29481   0.67026   0.00000  Uiso   1.00
H671   H     0.16407   0.32597   0.66252   0.00000  Uiso   1.00
H672   H     0.20964   0.05107   0.66246   0.00000  Uiso   1.00
H673   H     0.18868   0.03352   0.72555   0.00000  Uiso   1.00
N674   N     0.14493   0.15223   0.73543   0.00000  Uiso   1.00
N675   N     0.18840   0.18110   0.76458   0.00000  Uiso   1.00
N676   N     0.05080   0.17024   0.57392   0.00000  Uiso   1.00
N677   N     0.25199   0.32229   0.70132   0.00000  Uiso   1.00
N678   N     0.17319   0.22649   0.78933   0.00000  Uiso   1.00
N679   N     0.23773   0.10483   0.88999   0.00000  Uiso   1.00
N680   N     0.16756   0.29327   0.53624   0.00000  Uiso   1.00
O681   O     0.29769   0.24629   0.75358   0.00000  Uiso   1.00
O682   O     0.05742   0.23704   0.74424   0.00000  Uiso   1.00
O683   O     0.31490   0.17358   0.83380   0.00000  Uiso   1.00
O684   O     0.07463   0.16433   0.82446   0.00000  Uiso   1.00
O685   O     0.27592   0.09629   0.75577   0.00000  Uiso   1.00
O686   O     0.03565   0.08704   0.74643   0.00000  Uiso   1.00
O687   O     0.25870   0.16901   0.67554   0.00000  Uiso   1.00
O688   O     0.01843   0.15976   0.66620   0.00000  Uiso   1.00
Zn689  Zn    0.27119   0.17284   0.75624   0.00000  Uiso   1.00
Zn690  Zn    0.06214   0.16049   0.74377   0.00000  Uiso   1.00
C691   C     0.34723   0.26456   0.74733   0.00000  Uiso   1.00
C692   C     0.39644   0.18669   0.91269   0.00000  Uiso   1.00
C693   C     0.35396   0.31919   0.74725   0.00000  Uiso   1.00
C694   C     0.37058   0.17037   0.85468   0.00000  Uiso   1.00
C695   C     0.64006   0.01319   0.73366   0.00000  Uiso   1.00
C696   C     0.65047   0.06841   0.74616   0.00000  Uiso   1.00
C697   C     0.63146   0.16790   0.64597   0.00000  Uiso   1.00
C698   C     0.63197   0.15458   0.99681   0.00000  Uiso   1.00
C699   C     0.61638   0.17638   0.58750   0.00000  Uiso   1.00
C700   C     0.37246   0.22830   0.93695   0.00000  Uiso   1.00
C701   C     0.40690   0.26159   0.97941   0.00000  Uiso   1.00
C702   C     0.48669   0.20511   0.98324   0.00000  Uiso   1.00
C703   C     0.46491   0.25229   0.50099   0.00000  Uiso   1.00
C704   C     0.41147   0.21658   0.60937   0.00000  Uiso   1.00
C705   C     0.53458   0.01861   0.68739   0.00000  Uiso   1.00
C706   C     0.55250   0.26200   0.82260   0.00000  Uiso   1.00
C707   C     0.58170   0.05221   0.90415   0.00000  Uiso   1.00
C708   C     0.52431   0.33266   0.50720   0.00000  Uiso   1.00
C709   C     0.45396   0.17424   0.93636   0.00000  Uiso   1.00
C710   C     0.54167   0.18912   0.50763   0.00000  Uiso   1.00
C711   C     0.57277   0.16008   0.97526   0.00000  Uiso   1.00
C712   C     0.54228   0.13384   0.92517   0.00000  Uiso   1.00
C713   C     0.48180   0.13482   0.91134   0.00000  Uiso   1.00
C714   C     0.56122   0.19149   0.56465   0.00000  Uiso   1.00
C715   C     0.65576   0.16814   0.55294   0.00000  Uiso   1.00
H716   H     0.66231   0.23885   0.91911   0.00000  Uiso   1.00
H717   H     0.48977   0.12167   0.71222   0.00000  Uiso   1.00
H718   H     0.47390   0.22124   0.80915   0.00000  Uiso   1.00
H719   H     0.53979   0.27691   0.86072   0.00000  Uiso   1.00
H720   H     0.55972   0.29586   0.79928   0.00000  Uiso   1.00
H721   H     0.59280   0.24305   0.83639   0.00000  Uiso   1.00
H722   H     0.55182   0.10572   0.84860   0.00000  Uiso   1.00
H723   H     0.53963   0.02889   0.89868   0.00000  Uiso   1.00
H724   H     0.60705   0.05219   0.94743   0.00000  Uiso   1.00
H725   H     0.60728   0.03398   0.87663   0.00000  Uiso   1.00
H726   H     0.65887   0.13813   0.97121   0.00000  Uiso   1.00
H727   H     0.40817   0.15590   0.54722   0.00000  Uiso   1.00
H728   H     0.53199   0.20123   0.59092   0.00000  Uiso   1.00
H729   H     0.53144   0.28288   0.56918   0.00000  Uiso   1.00
H730   H     0.54821   0.03151   0.53724   0.00000  Uiso   1.00
H731   H     0.48873   0.01611   0.97783   0.00000  Uiso   1.00
H732   H     0.55492   0.31516   0.98452   0.00000  Uiso   1.00
H733   H     0.38922   0.29650   0.99386   0.00000  Uiso   1.00
H734   H     0.45794   0.10658   0.87875   0.00000  Uiso   1.00
H735   H     0.39748   0.00384   0.76529   0.00000  Uiso   1.00
H736   H     0.44062   0.20463   0.64714   0.00000  Uiso   1.00
H737   H     0.37925   0.24234   0.62111   0.00000  Uiso   1.00
H738   H     0.43875   0.24030   0.58927   0.00000  Uiso   1.00
H739   H     0.58890   0.29481   0.67026   0.00000  Uiso   1.00
H740   H     0.49740   0.32597   0.66252   0.00000  Uiso   1.00
H741   H     0.54297   0.05107   0.66246   0.00000  Uiso   1.00
H742   H     0.52201   0.03352   0.72555   0.00000  Uiso   1.00
N743   N     0.47827   0.15223   0.73543   0.00000  Uiso   1.00
N744   N     0.52173   0.18110   0.76458   0.00000  Uiso   1.00
N745   N     0.38414   0.17024   0.57392   0.00000  Uiso   1.00
N746   N     0.58532   0.32229   0.70132   0.00000  Uiso   1.00
N747   N     0.50652   0.22649   0.78933   0.00000  Uiso   1.00
N748   N     0.57106   0.10483   0.88999   0.00000  Uiso   1.00
N749   N     0.50089   0.29327   0.53624   0.00000  Uiso   1.00
O750   O     0.63102   0.24629   0.75358   0.00000  Uiso   1.00
O751   O     0.39075   0.23704   0.74424   0.00000  Uiso   1.00
O752   O     0.64823   0.17358   0.83380   0.00000  Uiso   1.00
O753   O     0.40796   0.16433   0.82446   0.00000  Uiso   1.00
O754   O     0.60925   0.09629   0.75577   0.00000  Uiso   1.00
O755   O     0.36898   0.08704   0.74643   0.00000  Uiso   1.00
O756   O     0.59204   0.16901   0.67554   0.00000  Uiso   1.00
O757   O     0.35177   0.15976   0.66620   0.00000  Uiso   1.00
Zn758  Zn    0.60453   0.17284   0.75624   0.00000  Uiso   1.00
Zn759  Zn    0.39547   0.16049   0.74377   0.00000  Uiso   1.00
C760   C     0.68056   0.26456   0.74733   0.00000  Uiso   1.00
C761   C     0.72978   0.18669   0.91269   0.00000  Uiso   1.00
C762   C     0.68729   0.31919   0.74725   0.00000  Uiso   1.00
C763   C     0.70391   0.17037   0.85468   0.00000  Uiso   1.00
C764   C     0.97339   0.01319   0.73366   0.00000  Uiso   1.00
C765   C     0.98380   0.06841   0.74616   0.00000  Uiso   1.00
C766   C     0.96479   0.16790   0.64597   0.00000  Uiso   1.00
C767   C     0.96530   0.15458   0.99681   0.00000  Uiso   1.00
C768   C     0.94971   0.17638   0.58750   0.00000  Uiso   1.00
C769   C     0.70579   0.22830   0.93695   0.00000  Uiso   1.00
C770   C     0.74023   0.26159   0.97941   0.00000  Uiso   1.00
C771   C     0.82002   0.20511   0.98324   0.00000  Uiso   1.00
C772   C     0.79824   0.25229   0.50099   0.00000  Uiso   1.00
C773   C     0.74481   0.21658   0.60937   0.00000  Uiso   1.00
C774   C     0.86792   0.01861   0.68739   0.00000  Uiso   1.00
C775   C     0.88583   0.26200   0.82260   0.00000  Uiso   1.00
C776   C     0.91503   0.05221   0.90415   0.00000  Uiso   1.00
C777   C     0.85764   0.33266   0.50720   0.00000  Uiso   1.00
C778   C     0.78729   0.17424   0.93636   0.00000  Uiso   1.00
C779   C     0.87501   0.18912   0.50763   0.00000  Uiso   1.00
C780   C     0.90610   0.16008   0.97526   0.00000  Uiso   1.00
C781   C     0.87562   0.13384   0.92517   0.00000  Uiso   1.00
C782   C     0.81513   0.13482   0.91134   0.00000  Uiso   1.00
C783   C     0.89455   0.19149   0.56465   0.00000  Uiso   1.00
C784   C     0.98909   0.16814   0.55294   0.00000  Uiso   1.00
H785   H     0.99564   0.23885   0.91911   0.00000  Uiso   1.00
H786   H     0.82310   0.12167   0.71222   0.00000  Uiso   1.00
H787   H     0.80723   0.22124   0.80915   0.00000  Uiso   1.00
H788   H     0.87313   0.27691   0.86072   0.00000  Uiso   1.00
H789   H     0.89305   0.29586   0.79928   0.00000  Uiso   1.00
H790   H     0.92613   0.24305   0.83639   0.00000  Uiso   1.00
H791   H     0.88515   0.10572   0.84860   0.00000  Uiso   1.00
H792   H     0.87296   0.02889   0.89868   0.00000  Uiso   1.00
H793   H     0.94038   0.05219   0.94743   0.00000  Uiso   1.00
H794   H     0.94062   0.03398   0.87663   0.00000  Uiso   1.00
H795   H     0.99221   0.13813   0.97121   0.00000  Uiso   1.00
H796   H     0.74150   0.15590   0.54722   0.00000  Uiso   1.00
H797   H     0.86532   0.20123   0.59092   0.00000  Uiso   1.00
H798   H     0.86477   0.28288   0.56918   0.00000  Uiso   1.00
H799   H     0.88155   0.03151   0.53724   0.00000  Uiso   1.00
H800   H     0.82207   0.01611   0.97783   0.00000  Uiso   1.00
H801   H     0.88826   0.31516   0.98452   0.00000  Uiso   1.00
H802   H     0.72255   0.29650   0.99386   0.00000  Uiso   1.00
H803   H     0.79128   0.10658   0.87875   0.00000  Uiso   1.00
H804   H     0.73081   0.00384   0.76529   0.00000  Uiso   1.00
H805   H     0.77396   0.20463   0.64714   0.00000  Uiso   1.00
H806   H     0.71258   0.24234   0.62111   0.00000  Uiso   1.00
H807   H     0.77208   0.24030   0.58927   0.00000  Uiso   1.00
H808   H     0.92223   0.29481   0.67026   0.00000  Uiso   1.00
H809   H     0.83073   0.32597   0.66252   0.00000  Uiso   1.00
H810   H     0.87630   0.05107   0.66246   0.00000  Uiso   1.00
H811   H     0.85534   0.03352   0.72555   0.00000  Uiso   1.00
N812   N     0.81160   0.15223   0.73543   0.00000  Uiso   1.00
N813   N     0.85507   0.18110   0.76458   0.00000  Uiso   1.00
N814   N     0.71747   0.17024   0.57392   0.00000  Uiso   1.00
N815   N     0.91866   0.32229   0.70132   0.00000  Uiso   1.00
N816   N     0.83986   0.22649   0.78933   0.00000  Uiso   1.00
N817   N     0.90440   0.10483   0.88999   0.00000  Uiso   1.00
N818   N     0.83423   0.29327   0.53624   0.00000  Uiso   1.00
O819   O     0.96435   0.24629   0.75358   0.00000  Uiso   1.00
O820   O     0.72408   0.23704   0.74424   0.00000  Uiso   1.00
O821   O     0.98157   0.17358   0.83380   0.00000  Uiso   1.00
O822   O     0.74130   0.16433   0.82446   0.00000  Uiso   1.00
O823   O     0.94258   0.09629   0.75577   0.00000  Uiso   1.00
O824   O     0.70231   0.08704   0.74643   0.00000  Uiso   1.00
O825   O     0.92537   0.16901   0.67554   0.00000  Uiso   1.00
O826   O     0.68510   0.15976   0.66620   0.00000  Uiso   1.00
Zn827  Zn    0.93786   0.17284   0.75624   0.00000  Uiso   1.00
Zn828  Zn    0.72881   0.16049   0.74377   0.00000  Uiso   1.00
C829   C     0.01390   0.59790   0.74733   0.00000  Uiso   1.00
C830   C     0.06311   0.52002   0.91269   0.00000  Uiso   1.00
C831   C     0.02063   0.65252   0.74725   0.00000  Uiso   1.00
C832   C     0.03725   0.50370   0.85468   0.00000  Uiso   1.00
C833   C     0.30673   0.34652   0.73366   0.00000  Uiso   1.00
C834   C     0.31713   0.40174   0.74616   0.00000  Uiso   1.00
C835   C     0.29813   0.50123   0.64597   0.00000  Uiso   1.00
C836   C     0.29864   0.48792   0.99681   0.00000  Uiso   1.00
C837   C     0.28304   0.50972   0.58750   0.00000  Uiso   1.00
C838   C     0.03912   0.56164   0.93695   0.00000  Uiso   1.00
C839   C     0.07356   0.59493   0.97941   0.00000  Uiso   1.00
C840   C     0.15335   0.53845   0.98324   0.00000  Uiso   1.00
C841   C     0.13157   0.58562   0.50099   0.00000  Uiso   1.00
C842   C     0.07814   0.54991   0.60937   0.00000  Uiso   1.00
C843   C     0.20125   0.35195   0.68739   0.00000  Uiso   1.00
C844   C     0.21917   0.59533   0.82260   0.00000  Uiso   1.00
C845   C     0.24836   0.38554   0.90415   0.00000  Uiso   1.00
C846   C     0.19097   0.66600   0.50720   0.00000  Uiso   1.00
C847   C     0.12062   0.50757   0.93636   0.00000  Uiso   1.00
C848   C     0.20834   0.52245   0.50763   0.00000  Uiso   1.00
C849   C     0.23944   0.49342   0.97526   0.00000  Uiso   1.00
C850   C     0.20895   0.46718   0.92517   0.00000  Uiso   1.00
C851   C     0.14847   0.46815   0.91134   0.00000  Uiso   1.00
C852   C     0.22788   0.52482   0.56465   0.00000  Uiso   1.00
C853   C     0.32243   0.50148   0.55294   0.00000  Uiso   1.00
H854   H     0.32897   0.57218   0.91911   0.00000  Uiso   1.00
H855   H     0.15643   0.45501   0.71222   0.00000  Uiso   1.00
H856   H     0.14056   0.55458   0.80915   0.00000  Uiso   1.00
H857   H     0.20646   0.61024   0.86072   0.00000  Uiso   1.00
H858   H     0.22638   0.62920   0.79928   0.00000  Uiso   1.00
H859   H     0.25947   0.57638   0.83639   0.00000  Uiso   1.00
H860   H     0.21849   0.43906   0.84860   0.00000  Uiso   1.00
H861   H     0.20629   0.36222   0.89868   0.00000  Uiso   1.00
H862   H     0.27372   0.38552   0.94743   0.00000  Uiso   1.00
H863   H     0.27395   0.36731   0.87663   0.00000  Uiso   1.00
H864   H     0.32554   0.47146   0.97121   0.00000  Uiso   1.00
H865   H     0.07483   0.48923   0.54722   0.00000  Uiso   1.00
H866   H     0.19866   0.53456   0.59092   0.00000  Uiso   1.00
H867   H     0.19810   0.61621   0.56918   0.00000  Uiso   1.00
H868   H     0.21488   0.36484   0.53724   0.00000  Uiso   1.00
H869   H     0.15540   0.34945   0.97783   0.00000  Uiso   1.00
H870   H     0.22159   0.64849   0.98452   0.00000  Uiso   1.00
H871   H     0.05588   0.62983   0.99386   0.00000  Uiso   1.00
H872   H     0.12461   0.43992   0.87875   0.00000  Uiso   1.00
H873   H     0.06415   0.33717   0.76529   0.00000  Uiso   1.00
H874   H     0.10729   0.53796   0.64714   0.00000  Uiso   1.00
H875   H     0.04592   0.57568   0.62111   0.00000  Uiso   1.00
H876   H     0.10542   0.57363   0.58927   0.00000  Uiso   1.00
H877   H     0.25557   0.62814   0.67026   0.00000  Uiso   1.00
H878   H     0.16407   0.65931   0.66252   0.00000  Uiso   1.00
H879   H     0.20964   0.38440   0.66246   0.00000  Uiso   1.00
H880   H     0.18868   0.36686   0.72555   0.00000  Uiso   1.00
N881   N     0.14493   0.48556   0.73543   0.00000  Uiso   1.00
N882   N     0.18840   0.51444   0.76458   0.00000  Uiso   1.00
N883   N     0.05080   0.50357   0.57392   0.00000  Uiso   1.00
N884   N     0.25199   0.65563   0.70132   0.00000  Uiso   1.00
N885   N     0.17319   0.55983   0.78933   0.00000  Uiso   1.00
N886   N     0.23773   0.43816   0.88999   0.00000  Uiso   1.00
N887   N     0.16756   0.62660   0.53624   0.00000  Uiso   1.00
O888   O     0.29769   0.57963   0.75358   0.00000  Uiso   1.00
O889   O     0.05742   0.57038   0.74424   0.00000  Uiso   1.00
O890   O     0.31490   0.50691   0.83380   0.00000  Uiso   1.00
O891   O     0.07463   0.49766   0.82446   0.00000  Uiso   1.00
O892   O     0.27592   0.42962   0.75577   0.00000  Uiso   1.00
O893   O     0.03565   0.42037   0.74643   0.00000  Uiso   1.00
O894   O     0.25870   0.50234   0.67554   0.00000  Uiso   1.00
O895   O     0.01843   0.49309   0.66620   0.00000  Uiso   1.00
Zn896  Zn    0.27119   0.50618   0.75624   0.00000  Uiso   1.00
Zn897  Zn    0.06214   0.49382   0.74377   0.00000  Uiso   1.00
C898   C     0.34723   0.59790   0.74733   0.00000  Uiso   1.00
C899   C     0.39644   0.52002   0.91269   0.00000  Uiso   1.00
C900   C     0.35396   0.65252   0.74725   0.00000  Uiso   1.00
C901   C     0.37058   0.50370   0.85468   0.00000  Uiso   1.00
C902   C     0.64006   0.34652   0.73366   0.00000  Uiso   1.00
C903   C     0.65047   0.40174   0.74616   0.00000  Uiso   1.00
C904   C     0.63146   0.50123   0.64597   0.00000  Uiso   1.00
C905   C     0.63197   0.48792   0.99681   0.00000  Uiso   1.00
C906   C     0.61638   0.50972   0.58750   0.00000  Uiso   1.00
C907   C     0.37246   0.56164   0.93695   0.00000  Uiso   1.00
C908   C     0.40690   0.59493   0.97941   0.00000  Uiso   1.00
C909   C     0.48669   0.53845   0.98324   0.00000  Uiso   1.00
C910   C     0.46491   0.58562   0.50099   0.00000  Uiso   1.00
C911   C     0.41147   0.54991   0.60937   0.00000  Uiso   1.00
C912   C     0.53458   0.35195   0.68739   0.00000  Uiso   1.00
C913   C     0.55250   0.59533   0.82260   0.00000  Uiso   1.00
C914   C     0.58170   0.38554   0.90415   0.00000  Uiso   1.00
C915   C     0.52431   0.66600   0.50720   0.00000  Uiso   1.00
C916   C     0.45396   0.50757   0.93636   0.00000  Uiso   1.00
C917   C     0.54167   0.52245   0.50763   0.00000  Uiso   1.00
C918   C     0.57277   0.49342   0.97526   0.00000  Uiso   1.00
C919   C     0.54228   0.46718   0.92517   0.00000  Uiso   1.00
C920   C     0.48180   0.46815   0.91134   0.00000  Uiso   1.00
C921   C     0.56122   0.52482   0.56465   0.00000  Uiso   1.00
C922   C     0.65576   0.50148   0.55294   0.00000  Uiso   1.00
H923   H     0.66231   0.57218   0.91911   0.00000  Uiso   1.00
H924   H     0.48977   0.45501   0.71222   0.00000  Uiso   1.00
H925   H     0.47390   0.55458   0.80915   0.00000  Uiso   1.00
H926   H     0.53979   0.61024   0.86072   0.00000  Uiso   1.00
H927   H     0.55972   0.62920   0.79928   0.00000  Uiso   1.00
H928   H     0.59280   0.57638   0.83639   0.00000  Uiso   1.00
H929   H     0.55182   0.43906   0.84860   0.00000  Uiso   1.00
H930   H     0.53963   0.36222   0.89868   0.00000  Uiso   1.00
H931   H     0.60705   0.38552   0.94743   0.00000  Uiso   1.00
H932   H     0.60728   0.36731   0.87663   0.00000  Uiso   1.00
H933   H     0.65887   0.47146   0.97121   0.00000  Uiso   1.00
H934   H     0.40817   0.48923   0.54722   0.00000  Uiso   1.00
H935   H     0.53199   0.53456   0.59092   0.00000  Uiso   1.00
H936   H     0.53144   0.61621   0.56918   0.00000  Uiso   1.00
H937   H     0.54821   0.36484   0.53724   0.00000  Uiso   1.00
H938   H     0.48873   0.34945   0.97783   0.00000  Uiso   1.00
H939   H     0.55492   0.64849   0.98452   0.00000  Uiso   1.00
H940   H     0.38922   0.62983   0.99386   0.00000  Uiso   1.00
H941   H     0.45794   0.43992   0.87875   0.00000  Uiso   1.00
H942   H     0.39748   0.33717   0.76529   0.00000  Uiso   1.00
H943   H     0.44062   0.53796   0.64714   0.00000  Uiso   1.00
H944   H     0.37925   0.57568   0.62111   0.00000  Uiso   1.00
H945   H     0.43875   0.57363   0.58927   0.00000  Uiso   1.00
H946   H     0.58890   0.62814   0.67026   0.00000  Uiso   1.00
H947   H     0.49740   0.65931   0.66252   0.00000  Uiso   1.00
H948   H     0.54297   0.38440   0.66246   0.00000  Uiso   1.00
H949   H     0.52201   0.36686   0.72555   0.00000  Uiso   1.00
N950   N     0.47827   0.48556   0.73543   0.00000  Uiso   1.00
N951   N     0.52173   0.51444   0.76458   0.00000  Uiso   1.00
N952   N     0.38414   0.50357   0.57392   0.00000  Uiso   1.00
N953   N     0.58532   0.65563   0.70132   0.00000  Uiso   1.00
N954   N     0.50652   0.55983   0.78933   0.00000  Uiso   1.00
N955   N     0.57106   0.43816   0.88999   0.00000  Uiso   1.00
N956   N     0.50089   0.62660   0.53624   0.00000  Uiso   1.00
O957   O     0.63102   0.57963   0.75358   0.00000  Uiso   1.00
O958   O     0.39075   0.57038   0.74424   0.00000  Uiso   1.00
O959   O     0.64823   0.50691   0.83380   0.00000  Uiso   1.00
O960   O     0.40796   0.49766   0.82446   0.00000  Uiso   1.00
O961   O     0.60925   0.42962   0.75577   0.00000  Uiso   1.00
O962   O     0.36898   0.42037   0.74643   0.00000  Uiso   1.00
O963   O     0.59204   0.50234   0.67554   0.00000  Uiso   1.00
O964   O     0.35177   0.49309   0.66620   0.00000  Uiso   1.00
Zn965  Zn    0.60453   0.50618   0.75624   0.00000  Uiso   1.00
Zn966  Zn    0.39547   0.49382   0.74377   0.00000  Uiso   1.00
C967   C     0.68056   0.59790   0.74733   0.00000  Uiso   1.00
C968   C     0.72978   0.52002   0.91269   0.00000  Uiso   1.00
C969   C     0.68729   0.65252   0.74725   0.00000  Uiso   1.00
C970   C     0.70391   0.50370   0.85468   0.00000  Uiso   1.00
C971   C     0.97339   0.34652   0.73366   0.00000  Uiso   1.00
C972   C     0.98380   0.40174   0.74616   0.00000  Uiso   1.00
C973   C     0.96479   0.50123   0.64597   0.00000  Uiso   1.00
C974   C     0.96530   0.48792   0.99681   0.00000  Uiso   1.00
C975   C     0.94971   0.50972   0.58750   0.00000  Uiso   1.00
C976   C     0.70579   0.56164   0.93695   0.00000  Uiso   1.00
C977   C     0.74023   0.59493   0.97941   0.00000  Uiso   1.00
C978   C     0.82002   0.53845   0.98324   0.00000  Uiso   1.00
C979   C     0.79824   0.58562   0.50099   0.00000  Uiso   1.00
C980   C     0.74481   0.54991   0.60937   0.00000  Uiso   1.00
C981   C     0.86792   0.35195   0.68739   0.00000  Uiso   1.00
C982   C     0.88583   0.59533   0.82260   0.00000  Uiso   1.00
C983   C     0.91503   0.38554   0.90415   0.00000  Uiso   1.00
C984   C     0.85764   0.66600   0.50720   0.00000  Uiso   1.00
C985   C     0.78729   0.50757   0.93636   0.00000  Uiso   1.00
C986   C     0.87501   0.52245   0.50763   0.00000  Uiso   1.00
C987   C     0.90610   0.49342   0.97526   0.00000  Uiso   1.00
C988   C     0.87562   0.46718   0.92517   0.00000  Uiso   1.00
C989   C     0.81513   0.46815   0.91134   0.00000  Uiso   1.00
C990   C     0.89455   0.52482   0.56465   0.00000  Uiso   1.00
C991   C     0.98909   0.50148   0.55294   0.00000  Uiso   1.00
H992   H     0.99564   0.57218   0.91911   0.00000  Uiso   1.00
H993   H     0.82310   0.45501   0.71222   0.00000  Uiso   1.00
H994   H     0.80723   0.55458   0.80915   0.00000  Uiso   1.00
H995   H     0.87313   0.61024   0.86072   0.00000  Uiso   1.00
H996   H     0.89305   0.62920   0.79928   0.00000  Uiso   1.00
H997   H     0.92613   0.57638   0.83639   0.00000  Uiso   1.00
H998   H     0.88515   0.43906   0.84860   0.00000  Uiso   1.00
H999   H     0.87296   0.36222   0.89868   0.00000  Uiso   1.00
H1000  H     0.94038   0.38552   0.94743   0.00000  Uiso   1.00
H1001  H     0.94062   0.36731   0.87663   0.00000  Uiso   1.00
H1002  H     0.99221   0.47146   0.97121   0.00000  Uiso   1.00
H1003  H     0.74150   0.48923   0.54722   0.00000  Uiso   1.00
H1004  H     0.86532   0.53456   0.59092   0.00000  Uiso   1.00
H1005  H     0.86477   0.61621   0.56918   0.00000  Uiso   1.00
H1006  H     0.88155   0.36484   0.53724   0.00000  Uiso   1.00
H1007  H     0.82207   0.34945   0.97783   0.00000  Uiso   1.00
H1008  H     0.88826   0.64849   0.98452   0.00000  Uiso   1.00
H1009  H     0.72255   0.62983   0.99386   0.00000  Uiso   1.00
H1010  H     0.79128   0.43992   0.87875   0.00000  Uiso   1.00
H1011  H     0.73081   0.33717   0.76529   0.00000  Uiso   1.00
H1012  H     0.77396   0.53796   0.64714   0.00000  Uiso   1.00
H1013  H     0.71258   0.57568   0.62111   0.00000  Uiso   1.00
H1014  H     0.77208   0.57363   0.58927   0.00000  Uiso   1.00
H1015  H     0.92223   0.62814   0.67026   0.00000  Uiso   1.00
H1016  H     0.83073   0.65931   0.66252   0.00000  Uiso   1.00
H1017  H     0.87630   0.38440   0.66246   0.00000  Uiso   1.00
H1018  H     0.85534   0.36686   0.72555   0.00000  Uiso   1.00
N1019  N     0.81160   0.48556   0.73543   0.00000  Uiso   1.00
N1020  N     0.85507   0.51444   0.76458   0.00000  Uiso   1.00
N1021  N     0.71747   0.50357   0.57392   0.00000  Uiso   1.00
N1022  N     0.91866   0.65563   0.70132   0.00000  Uiso   1.00
N1023  N     0.83986   0.55983   0.78933   0.00000  Uiso   1.00
N1024  N     0.90440   0.43816   0.88999   0.00000  Uiso   1.00
N1025  N     0.83423   0.62660   0.53624   0.00000  Uiso   1.00
O1026  O     0.96435   0.57963   0.75358   0.00000  Uiso   1.00
O1027  O     0.72408   0.57038   0.74424   0.00000  Uiso   1.00
O1028  O     0.98157   0.50691   0.83380   0.00000  Uiso   1.00
O1029  O     0.74130   0.49766   0.82446   0.00000  Uiso   1.00
O1030  O     0.94258   0.42962   0.75577   0.00000  Uiso   1.00
O1031  O     0.70231   0.42037   0.74643   0.00000  Uiso   1.00
O1032  O     0.92537   0.50234   0.67554   0.00000  Uiso   1.00
O1033  O     0.68510   0.49309   0.66620   0.00000  Uiso   1.00
Zn1034 Zn    0.93786   0.50618   0.75624   0.00000  Uiso   1.00
Zn1035 Zn    0.72881   0.49382   0.74377   0.00000  Uiso   1.00
C1036  C     0.01390   0.93123   0.74733   0.00000  Uiso   1.00
C1037  C     0.06311   0.85335   0.91269   0.00000  Uiso   1.00
C1038  C     0.02063   0.98586   0.74725   0.00000  Uiso   1.00
C1039  C     0.03725   0.83704   0.85468   0.00000  Uiso   1.00
C1040  C     0.30673   0.67985   0.73366   0.00000  Uiso   1.00
C1041  C     0.31713   0.73508   0.74616   0.00000  Uiso   1.00
C1042  C     0.29813   0.83456   0.64597   0.00000  Uiso   1.00
C1043  C     0.29864   0.82125   0.99681   0.00000  Uiso   1.00
C1044  C     0.28304   0.84305   0.58750   0.00000  Uiso   1.00
C1045  C     0.03912   0.89497   0.93695   0.00000  Uiso   1.00
C1046  C     0.07356   0.92826   0.97941   0.00000  Uiso   1.00
C1047  C     0.15335   0.87178   0.98324   0.00000  Uiso   1.00
C1048  C     0.13157   0.91895   0.50099   0.00000  Uiso   1.00
C1049  C     0.07814   0.88324   0.60937   0.00000  Uiso   1.00
C1050  C     0.20125   0.68528   0.68739   0.00000  Uiso   1.00
C1051  C     0.21917   0.92867   0.82260   0.00000  Uiso   1.00
C1052  C     0.24836   0.71887   0.90415   0.00000  Uiso   1.00
C1053  C     0.19097   0.99933   0.50720   0.00000  Uiso   1.00
C1054  C     0.12062   0.84091   0.93636   0.00000  Uiso   1.00
C1055  C     0.20834   0.85579   0.50763   0.00000  Uiso   1.00
C1056  C     0.23944   0.82675   0.97526   0.00000  Uiso   1.00
C1057  C     0.20895   0.80051   0.92517   0.00000  Uiso   1.00
C1058  C     0.14847   0.80148   0.91134   0.00000  Uiso   1.00
C1059  C     0.22788   0.85816   0.56465   0.00000  Uiso   1.00
C1060  C     0.32243   0.83481   0.55294   0.00000  Uiso   1.00
H1061  H     0.32897   0.90552   0.91911   0.00000  Uiso   1.00
H1062  H     0.15643   0.78834   0.71222   0.00000  Uiso   1.00
H1063  H     0.14056   0.88791   0.80915   0.00000  Uiso   1.00
H1064  H     0.20646   0.94358   0.86072   0.00000  Uiso   1.00
H1065  H     0.22638   0.96253   0.79928   0.00000  Uiso   1.00
H1066  H     0.25947   0.90971   0.83639   0.00000  Uiso   1.00
H1067  H     0.21849   0.77239   0.84860   0.00000  Uiso   1.00
H1068  H     0.20629   0.69555   0.89868   0.00000  Uiso   1.00
H1069  H     0.27372   0.71885   0.94743   0.00000  Uiso   1.00
H1070  H     0.27395   0.70064   0.87663   0.00000  Uiso   1.00
H1071  H     0.32554   0.80480   0.97121   0.00000  Uiso   1.00
H1072  H     0.07483   0.82256   0.54722   0.00000  Uiso   1.00
H1073  H     0.19866   0.86789   0.59092   0.00000  Uiso   1.00
H1074  H     0.19810   0.94954   0.56918   0.00000  Uiso   1.00
H1075  H     0.21488   0.69818   0.53724   0.00000  Uiso   1.00
H1076  H     0.15540   0.68278   0.97783   0.00000  Uiso   1.00
H1077  H     0.22159   0.98182   0.98452   0.00000  Uiso   1.00
H1078  H     0.05588   0.96316   0.99386   0.00000  Uiso   1.00
H1079  H     0.12461   0.77325   0.87875   0.00000  Uiso   1.00
H1080  H     0.06415   0.67050   0.76529   0.00000  Uiso   1.00
H1081  H     0.10729   0.87130   0.64714   0.00000  Uiso   1.00
H1082  H     0.04592   0.90901   0.62111   0.00000  Uiso   1.00
H1083  H     0.10542   0.90697   0.58927   0.00000  Uiso   1.00
H1084  H     0.25557   0.96148   0.67026   0.00000  Uiso   1.00
H1085  H     0.16407   0.99264   0.66252   0.00000  Uiso   1.00
H1086  H     0.20964   0.71774   0.66246   0.00000  Uiso   1.00
H1087  H     0.18868   0.70019   0.72555   0.00000  Uiso   1.00
N1088  N     0.14493   0.81890   0.73543   0.00000  Uiso   1.00
N1089  N     0.18840   0.84777   0.76458   0.00000  Uiso   1.00
N1090  N     0.05080   0.83691   0.57392   0.00000  Uiso   1.00
N1091  N     0.25199   0.98896   0.70132   0.00000  Uiso   1.00
N1092  N     0.17319   0.89316   0.78933   0.00000  Uiso   1.00
N1093  N     0.23773   0.77149   0.88999   0.00000  Uiso   1.00
N1094  N     0.16756   0.95993   0.53624   0.00000  Uiso   1.00
O1095  O     0.29769   0.91296   0.75358   0.00000  Uiso   1.00
O1096  O     0.05742   0.90371   0.74424   0.00000  Uiso   1.00
O1097  O     0.31490   0.84024   0.83380   0.00000  Uiso   1.00
O1098  O     0.07463   0.83099   0.82446   0.00000  Uiso   1.00
O1099  O     0.27592   0.76296   0.75577   0.00000  Uiso   1.00
O1100  O     0.03565   0.75371   0.74643   0.00000  Uiso   1.00
O1101  O     0.25870   0.83567   0.67554   0.00000  Uiso   1.00
O1102  O     0.01843   0.82642   0.66620   0.00000  Uiso   1.00
Zn1103 Zn    0.27119   0.83951   0.75624   0.00000  Uiso   1.00
Zn1104 Zn    0.06214   0.82716   0.74377   0.00000  Uiso   1.00
C1105  C     0.34723   0.93123   0.74733   0.00000  Uiso   1.00
C1106  C     0.39644   0.85335   0.91269   0.00000  Uiso   1.00
C1107  C     0.35396   0.98586   0.74725   0.00000  Uiso   1.00
C1108  C     0.37058   0.83704   0.85468   0.00000  Uiso   1.00
C1109  C     0.64006   0.67985   0.73366   0.00000  Uiso   1.00
C1110  C     0.65047   0.73508   0.74616   0.00000  Uiso   1.00
C1111  C     0.63146   0.83456   0.64597   0.00000  Uiso   1.00
C1112  C     0.63197   0.82125   0.99681   0.00000  Uiso   1.00
C1113  C     0.61638   0.84305   0.58750   0.00000  Uiso   1.00
C1114  C     0.37246   0.89497   0.93695   0.00000  Uiso   1.00
C1115  C     0.40690   0.92826   0.97941   0.00000  Uiso   1.00
C1116  C     0.48669   0.87178   0.98324   0.00000  Uiso   1.00
C1117  C     0.46491   0.91895   0.50099   0.00000  Uiso   1.00
C1118  C     0.41147   0.88324   0.60937   0.00000  Uiso   1.00
C1119  C     0.53458   0.68528   0.68739   0.00000  Uiso   1.00
C1120  C     0.55250   0.92867   0.82260   0.00000  Uiso   1.00
C1121  C     0.58170   0.71887   0.90415   0.00000  Uiso   1.00
C1122  C     0.52431   0.99933   0.50720   0.00000  Uiso   1.00
C1123  C     0.45396   0.84091   0.93636   0.00000  Uiso   1.00
C1124  C     0.54167   0.85579   0.50763   0.00000  Uiso   1.00
C1125  C     0.57277   0.82675   0.97526   0.00000  Uiso   1.00
C1126  C     0.54228   0.80051   0.92517   0.00000  Uiso   1.00
C1127  C     0.48180   0.80148   0.91134   0.00000  Uiso   1.00
C1128  C     0.56122   0.85816   0.56465   0.00000  Uiso   1.00
C1129  C     0.65576   0.83481   0.55294   0.00000  Uiso   1.00
H1130  H     0.66231   0.90552   0.91911   0.00000  Uiso   1.00
H1131  H     0.48977   0.78834   0.71222   0.00000  Uiso   1.00
H1132  H     0.47390   0.88791   0.80915   0.00000  Uiso   1.00
H1133  H     0.53979   0.94358   0.86072   0.00000  Uiso   1.00
H1134  H     0.55972   0.96253   0.79928   0.00000  Uiso   1.00
H1135  H     0.59280   0.90971   0.83639   0.00000  Uiso   1.00
H1136  H     0.55182   0.77239   0.84860   0.00000  Uiso   1.00
H1137  H     0.53963   0.69555   0.89868   0.00000  Uiso   1.00
H1138  H     0.60705   0.71885   0.94743   0.00000  Uiso   1.00
H1139  H     0.60728   0.70064   0.87663   0.00000  Uiso   1.00
H1140  H     0.65887   0.80480   0.97121   0.00000  Uiso   1.00
H1141  H     0.40817   0.82256   0.54722   0.00000  Uiso   1.00
H1142  H     0.53199   0.86789   0.59092   0.00000  Uiso   1.00
H1143  H     0.53144   0.94954   0.56918   0.00000  Uiso   1.00
H1144  H     0.54821   0.69818   0.53724   0.00000  Uiso   1.00
H1145  H     0.48873   0.68278   0.97783   0.00000  Uiso   1.00
H1146  H     0.55492   0.98182   0.98452   0.00000  Uiso   1.00
H1147  H     0.38922   0.96316   0.99386   0.00000  Uiso   1.00
H1148  H     0.45794   0.77325   0.87875   0.00000  Uiso   1.00
H1149  H     0.39748   0.67050   0.76529   0.00000  Uiso   1.00
H1150  H     0.44062   0.87130   0.64714   0.00000  Uiso   1.00
H1151  H     0.37925   0.90901   0.62111   0.00000  Uiso   1.00
H1152  H     0.43875   0.90697   0.58927   0.00000  Uiso   1.00
H1153  H     0.58890   0.96148   0.67026   0.00000  Uiso   1.00
H1154  H     0.49740   0.99264   0.66252   0.00000  Uiso   1.00
H1155  H     0.54297   0.71774   0.66246   0.00000  Uiso   1.00
H1156  H     0.52201   0.70019   0.72555   0.00000  Uiso   1.00
N1157  N     0.47827   0.81890   0.73543   0.00000  Uiso   1.00
N1158  N     0.52173   0.84777   0.76458   0.00000  Uiso   1.00
N1159  N     0.38414   0.83691   0.57392   0.00000  Uiso   1.00
N1160  N     0.58532   0.98896   0.70132   0.00000  Uiso   1.00
N1161  N     0.50652   0.89316   0.78933   0.00000  Uiso   1.00
N1162  N     0.57106   0.77149   0.88999   0.00000  Uiso   1.00
N1163  N     0.50089   0.95993   0.53624   0.00000  Uiso   1.00
O1164  O     0.63102   0.91296   0.75358   0.00000  Uiso   1.00
O1165  O     0.39075   0.90371   0.74424   0.00000  Uiso   1.00
O1166  O     0.64823   0.84024   0.83380   0.00000  Uiso   1.00
O1167  O     0.40796   0.83099   0.82446   0.00000  Uiso   1.00
O1168  O     0.60925   0.76296   0.75577   0.00000  Uiso   1.00
O1169  O     0.36898   0.75371   0.74643   0.00000  Uiso   1.00
O1170  O     0.59204   0.83567   0.67554   0.00000  Uiso   1.00
O1171  O     0.35177   0.82642   0.66620   0.00000  Uiso   1.00
Zn1172 Zn    0.60453   0.83951   0.75624   0.00000  Uiso   1.00
Zn1173 Zn    0.39547   0.82716   0.74377   0.00000  Uiso   1.00
C1174  C     0.68056   0.93123   0.74733   0.00000  Uiso   1.00
C1175  C     0.72978   0.85335   0.91269   0.00000  Uiso   1.00
C1176  C     0.68729   0.98586   0.74725   0.00000  Uiso   1.00
C1177  C     0.70391   0.83704   0.85468   0.00000  Uiso   1.00
C1178  C     0.97339   0.67985   0.73366   0.00000  Uiso   1.00
C1179  C     0.98380   0.73508   0.74616   0.00000  Uiso   1.00
C1180  C     0.96479   0.83456   0.64597   0.00000  Uiso   1.00
C1181  C     0.96530   0.82125   0.99681   0.00000  Uiso   1.00
C1182  C     0.94971   0.84305   0.58750   0.00000  Uiso   1.00
C1183  C     0.70579   0.89497   0.93695   0.00000  Uiso   1.00
C1184  C     0.74023   0.92826   0.97941   0.00000  Uiso   1.00
C1185  C     0.82002   0.87178   0.98324   0.00000  Uiso   1.00
C1186  C     0.79824   0.91895   0.50099   0.00000  Uiso   1.00
C1187  C     0.74481   0.88324   0.60937   0.00000  Uiso   1.00
C1188  C     0.86792   0.68528   0.68739   0.00000  Uiso   1.00
C1189  C     0.88583   0.92867   0.82260   0.00000  Uiso   1.00
C1190  C     0.91503   0.71887   0.90415   0.00000  Uiso   1.00
C1191  C     0.85764   0.99933   0.50720   0.00000  Uiso   1.00
C1192  C     0.78729   0.84091   0.93636   0.00000  Uiso   1.00
C1193  C     0.87501   0.85579   0.50763   0.00000  Uiso   1.00
C1194  C     0.90610   0.82675   0.97526   0.00000  Uiso   1.00
C1195  C     0.87562   0.80051   0.92517   0.00000  Uiso   1.00
C1196  C     0.81513   0.80148   0.91134   0.00000  Uiso   1.00
C1197  C     0.89455   0.85816   0.56465   0.00000  Uiso   1.00
C1198  C     0.98909   0.83481   0.55294   0.00000  Uiso   1.00
H1199  H     0.99564   0.90552   0.91911   0.00000  Uiso   1.00
H1200  H     0.82310   0.78834   0.71222   0.00000  Uiso   1.00
H1201  H     0.80723   0.88791   0.80915   0.00000  Uiso   1.00
H1202  H     0.87313   0.94358   0.86072   0.00000  Uiso   1.00
H1203  H     0.89305   0.96253   0.79928   0.00000  Uiso   1.00
H1204  H     0.92613   0.90971   0.83639   0.00000  Uiso   1.00
H1205  H     0.88515   0.77239   0.84860   0.00000  Uiso   1.00
H1206  H     0.87296   0.69555   0.89868   0.00000  Uiso   1.00
H1207  H     0.94038   0.71885   0.94743   0.00000  Uiso   1.00
H1208  H     0.94062   0.70064   0.87663   0.00000  Uiso   1.00
H1209  H     0.99221   0.80480   0.97121   0.00000  Uiso   1.00
H1210  H     0.74150   0.82256   0.54722   0.00000  Uiso   1.00
H1211  H     0.86532   0.86789   0.59092   0.00000  Uiso   1.00
H1212  H     0.86477   0.94954   0.56918   0.00000  Uiso   1.00
H1213  H     0.88155   0.69818   0.53724   0.00000  Uiso   1.00
H1214  H     0.82207   0.68278   0.97783   0.00000  Uiso   1.00
H1215  H     0.88826   0.98182   0.98452   0.00000  Uiso   1.00
H1216  H     0.72255   0.96316   0.99386   0.00000  Uiso   1.00
H1217  H     0.79128   0.77325   0.87875   0.00000  Uiso   1.00
H1218  H     0.73081   0.67050   0.76529   0.00000  Uiso   1.00
H1219  H     0.77396   0.87130   0.64714   0.00000  Uiso   1.00
H1220  H     0.71258   0.90901   0.62111   0.00000  Uiso   1.00
H1221  H     0.77208   0.90697   0.58927   0.00000  Uiso   1.00
H1222  H     0.92223   0.96148   0.67026   0.00000  Uiso   1.00
H1223  H     0.83073   0.99264   0.66252   0.00000  Uiso   1.00
H1224  H     0.87630   0.71774   0.66246   0.00000  Uiso   1.00
H1225  H     0.85534   0.70019   0.72555   0.00000  Uiso   1.00
N1226  N     0.81160   0.81890   0.73543   0.00000  Uiso   1.00
N1227  N     0.85507   0.84777   0.76458   0.00000  Uiso   1.00
N1228  N     0.71747   0.83691   0.57392   0.00000  Uiso   1.00
N1229  N     0.91866   0.98896   0.70132   0.00000  Uiso   1.00
N1230  N     0.83986   0.89316   0.78933   0.00000  Uiso   1.00
N1231  N     0.90440   0.77149   0.88999   0.00000  Uiso   1.00
N1232  N     0.83423   0.95993   0.53624   0.00000  Uiso   1.00
O1233  O     0.96435   0.91296   0.75358   0.00000  Uiso   1.00
O1234  O     0.72408   0.90371   0.74424   0.00000  Uiso   1.00
O1235  O     0.98157   0.84024   0.83380   0.00000  Uiso   1.00
O1236  O     0.74130   0.83099   0.82446   0.00000  Uiso   1.00
O1237  O     0.94258   0.76296   0.75577   0.00000  Uiso   1.00
O1238  O     0.70231   0.75371   0.74643   0.00000  Uiso   1.00
O1239  O     0.92537   0.83567   0.67554   0.00000  Uiso   1.00
O1240  O     0.68510   0.82642   0.66620   0.00000  Uiso   1.00
Zn1241 Zn    0.93786   0.83951   0.75624   0.00000  Uiso   1.00
Zn1242 Zn    0.72881   0.82716   0.74377   0.00000  Uiso   1.00
loop_
_geom_bond_atom_site_label_1
_geom_bond_atom_site_label_2
_geom_bond_distance
_geom_bond_site_symmetry_2
_ccdc_geom_bond_type
C1     C3      1.405   .     S
C1     O61     1.294   .     A
C1     O198    1.286   1_455 S
C2     C10     1.401   .     A
C2     C4      1.459   .     S
C2     C19     1.419   .     A
C3     C350    1.343   1_455 S
C3     H252    1.088   .     S
C4     O63     1.295   .     A
C4     O200    1.312   1_455 S
C5     C6      1.427   .     S
C5     C486    1.343   1_545 S
C5     N470    1.443   1_545 S
C6     O64     1.296   .     A
C6     O134    1.291   .     S
C7     C9      1.456   .     S
C7     O66     1.315   .     A
C7     O136    1.289   .     S
C8     C21     1.401   .     A
C8     H36     1.081   .     S
C8     C646    1.396   .     S
C9     C24     1.388   .     A
C9     C25     1.421   .     A
C10    C11     1.386   .     A
C10    H164    1.081   1_455 S
C11    H43     1.083   .     S
C11    C634    1.396   .     S
C12    C19     1.410   .     A
C12    C634    1.424   .     S
C12    C641    1.402   .     S
C13    N59     1.428   .     S
C13    C632    1.396   1_554 S
C13    C633    1.424   1_554 S
C14    H47     1.111   .     S
C14    N55     1.458   .     S
C14    H46     1.107   .     S
C14    H48     1.090   .     S
C15    H52     1.110   .     S
C15    H51     1.111   .     S
C15    H464    1.111   1_545 S
C15    N470    1.446   1_545 S
C16    H31     1.091   .     S
C16    N57     1.442   .     S
C16    H30     1.108   .     S
C16    H29     1.110   .     S
C17    N58     1.443   .     S
C17    H34     1.110   .     S
C17    H33     1.110   .     S
C17    H35     1.110   .     S
C18    N59     1.444   .     S
C18    H247    1.111   .     S
C18    H869    1.111   1_554 S
C18    H663    1.111   1_554 S
C19    C23     1.422   .     A
C20    C24     1.388   .     A
C20    C633    1.402   1_554 S
C20    C642    1.413   1_554 S
C21    C22     1.398   .     A
C21    C641    1.413   .     S
C22    N58     1.423   .     S
C22    C23     1.396   .     A
C23    H44     1.081   .     S
C24    H38     1.083   .     S
C25    C629    1.396   1_554 S
C25    N124    1.432   .     S
H26    C79     1.081   .     S
H27    N53     1.028   .     S
H28    N57     1.016   .     S
H32    N58     1.032   .     S
H37    N55     1.031   .     S
H39    N59     1.025   .     S
H40    C432    1.111   1_545 S
H41    C1053   1.111   1_545 S
H42    C639    1.111   .     S
H45    C417    1.088   1_545 S
H49    N56     1.032   .     S
H50    C222    1.111   .     S
N53    Zn69    2.038   .     S
N53    N54     1.280   .     D
N54    Zn68    2.038   .     S
N54    N57     1.385   .     S
N55    C163    1.432   1_455 S
N56    C212    1.443   .     S
N56    C222    1.446   .     S
O60    Zn68    1.968   .     S
O60    C70     1.286   .     S
O61    Zn69    1.977   .     S
O62    Zn68    1.974   .     S
O62    C73     1.312   .     S
O63    Zn69    1.962   .     S
O64    Zn68    1.977   .     S
O65    Zn69    1.968   .     S
O65    C144    1.291   1_455 S
O66    Zn68    1.962   .     S
O67    Zn69    1.974   .     S
O67    C145    1.289   1_455 S
C70    C72     1.405   .     S
C70    O130    1.294   .     A
C71    C79     1.401   .     A
C71    C73     1.459   .     S
C71    C88     1.419   .     A
C72    C212    1.343   .     S
C72    H321    1.088   .     S
C73    O132    1.295   .     A
C74    C75     1.427   .     S
C74    C555    1.343   1_545 S
C74    N539    1.443   1_545 S
C75    O133    1.296   .     A
C75    O203    1.291   .     S
C76    C78     1.456   .     S
C76    O135    1.315   .     A
C76    O205    1.289   .     S
C77    C90     1.401   .     A
C77    H105    1.081   .     S
C77    C715    1.396   .     S
C78    C93     1.388   .     A
C78    C94     1.421   .     A
C79    C80     1.386   .     A
C80    H112    1.083   .     S
C80    C703    1.396   .     S
C81    C88     1.410   .     A
C81    C703    1.424   .     S
C81    C710    1.402   .     S
C82    N128    1.428   .     S
C82    C701    1.396   1_554 S
C82    C702    1.424   1_554 S
C83    H116    1.111   .     S
C83    N124    1.458   .     S
C83    H115    1.107   .     S
C83    H117    1.090   .     S
C84    H121    1.110   .     S
C84    H120    1.111   .     S
C84    H533    1.111   1_545 S
C84    N539    1.446   1_545 S
C85    H100    1.091   .     S
C85    N126    1.442   .     S
C85    H99     1.108   .     S
C85    H98     1.110   .     S
C86    N127    1.443   .     S
C86    H103    1.110   .     S
C86    H102    1.110   .     S
C86    H104    1.110   .     S
C87    N128    1.444   .     S
C87    H316    1.111   .     S
C87    H938    1.111   1_554 S
C87    H732    1.111   1_554 S
C88    C92     1.422   .     A
C89    C93     1.388   .     A
C89    C702    1.402   1_554 S
C89    C711    1.413   1_554 S
C90    C91     1.398   .     A
C90    C710    1.413   .     S
C91    N127    1.423   .     S
C91    C92     1.396   .     A
C92    H113    1.081   .     S
C93    H107    1.083   .     S
C94    C698    1.396   1_554 S
C94    N193    1.432   .     S
H95    C148    1.081   .     S
H96    N122    1.028   .     S
H97    N126    1.016   .     S
H101   N127    1.032   .     S
H106   N124    1.031   .     S
H108   N128    1.025   .     S
H109   C501    1.111   1_545 S
H110   C1122   1.111   1_545 S
H111   C708    1.111   .     S
H114   C486    1.088   1_545 S
H118   N125    1.032   .     S
H119   C291    1.111   .     S
N122   Zn138   2.038   .     S
N122   N123    1.280   .     D
N123   Zn137   2.038   .     S
N123   N126    1.385   .     S
N125   C281    1.443   .     S
N125   C291    1.446   .     S
O129   Zn137   1.968   .     S
O129   C139    1.286   .     S
O130   Zn138   1.977   .     S
O131   Zn137   1.974   .     S
O131   C142    1.312   .     S
O132   Zn138   1.962   .     S
O133   Zn137   1.977   .     S
O134   Zn138   1.968   .     S
O135   Zn137   1.962   .     S
O136   Zn138   1.974   .     S
C139   C141    1.405   .     S
C139   O199    1.294   .     A
C140   C148    1.401   .     A
C140   C142    1.459   .     S
C140   C157    1.419   .     A
C141   C281    1.343   .     S
C141   H390    1.088   .     S
C142   O201    1.295   .     A
C143   C144    1.427   .     S
C143   C417    1.343   1_645 S
C143   N608    1.443   1_545 S
C144   O202    1.296   .     A
C144   O65     1.291   1_655 S
C145   C147    1.456   .     S
C145   O204    1.315   .     A
C145   O67     1.289   1_655 S
C146   C159    1.401   .     A
C146   H174    1.081   .     S
C146   C784    1.396   .     S
C147   C162    1.388   .     A
C147   C163    1.421   .     A
C148   C149    1.386   .     A
C149   H181    1.083   .     S
C149   C772    1.396   .     S
C150   C157    1.410   .     A
C150   C772    1.424   .     S
C150   C779    1.402   .     S
C151   N197    1.428   .     S
C151   C770    1.396   1_554 S
C151   C771    1.424   1_554 S
C152   H185    1.111   .     S
C152   N193    1.458   .     S
C152   H184    1.107   .     S
C152   H186    1.090   .     S
C153   H190    1.110   .     S
C153   H189    1.111   .     S
C153   H602    1.111   1_545 S
C153   N608    1.446   1_545 S
C154   H169    1.091   .     S
C154   N195    1.442   .     S
C154   H168    1.108   .     S
C154   H167    1.110   .     S
C155   N196    1.443   .     S
C155   H172    1.110   .     S
C155   H171    1.110   .     S
C155   H173    1.110   .     S
C156   N197    1.444   .     S
C156   H385    1.111   .     S
C156   H1007   1.111   1_554 S
C156   H801    1.111   1_554 S
C157   C161    1.422   .     A
C158   C162    1.388   .     A
C158   C771    1.402   1_554 S
C158   C780    1.413   1_554 S
C159   C160    1.398   .     A
C159   C779    1.413   .     S
C160   N196    1.423   .     S
C160   C161    1.396   .     A
C161   H182    1.081   .     S
C162   H176    1.083   .     S
C163   C767    1.396   1_554 S
C163   N55     1.432   1_655 S
H164   C10     1.081   1_655 S
H165   N191    1.028   .     S
H166   N195    1.016   .     S
H170   N196    1.032   .     S
H175   N193    1.031   .     S
H177   N197    1.025   .     S
H178   C570    1.111   1_545 S
H179   C1191   1.111   1_545 S
H180   C777    1.111   .     S
H183   C555    1.088   1_545 S
H187   N194    1.032   .     S
H188   C360    1.111   .     S
N191   Zn207   2.038   .     S
N191   N192    1.280   .     D
N192   Zn206   2.038   .     S
N192   N195    1.385   .     S
N194   C350    1.443   .     S
N194   C360    1.446   .     S
O198   Zn206   1.968   .     S
O198   C1      1.286   1_655 S
O199   Zn207   1.977   .     S
O200   Zn206   1.974   .     S
O200   C4      1.312   1_655 S
O201   Zn207   1.962   .     S
O202   Zn206   1.977   .     S
O203   Zn207   1.968   .     S
O204   Zn206   1.962   .     S
O205   Zn207   1.974   .     S
C208   C210    1.405   .     S
C208   O268    1.294   .     A
C208   O405    1.286   1_455 S
C209   C217    1.401   .     A
C209   C211    1.459   .     S
C209   C226    1.419   .     A
C210   C557    1.343   1_455 S
C210   H459    1.088   .     S
C211   O270    1.295   .     A
C211   O407    1.312   1_455 S
C212   C213    1.427   .     S
C213   O271    1.296   .     A
C213   O341    1.291   .     S
C214   C216    1.456   .     S
C214   O273    1.315   .     A
C214   O343    1.289   .     S
C215   C228    1.401   .     A
C215   H243    1.081   .     S
C215   C853    1.396   .     S
C216   C231    1.388   .     A
C216   C232    1.421   .     A
C217   C218    1.386   .     A
C217   H371    1.081   1_455 S
C218   H250    1.083   .     S
C218   C841    1.396   .     S
C219   C226    1.410   .     A
C219   C841    1.424   .     S
C219   C848    1.402   .     S
C220   N266    1.428   .     S
C220   C839    1.396   1_554 S
C220   C840    1.424   1_554 S
C221   H254    1.111   .     S
C221   N262    1.458   .     S
C221   H253    1.107   .     S
C221   H255    1.090   .     S
C222   H259    1.110   .     S
C222   H258    1.111   .     S
C223   H238    1.091   .     S
C223   N264    1.442   .     S
C223   H237    1.108   .     S
C223   H236    1.110   .     S
C224   N265    1.443   .     S
C224   H241    1.110   .     S
C224   H240    1.110   .     S
C224   H242    1.110   .     S
C225   N266    1.444   .     S
C225   H454    1.111   .     S
C225   H1076   1.111   1_554 S
C225   H870    1.111   1_554 S
C226   C230    1.422   .     A
C227   C231    1.388   .     A
C227   C840    1.402   1_554 S
C227   C849    1.413   1_554 S
C228   C229    1.398   .     A
C228   C848    1.413   .     S
C229   N265    1.423   .     S
C229   C230    1.396   .     A
C230   H251    1.081   .     S
C231   H245    1.083   .     S
C232   C836    1.396   1_554 S
C232   N331    1.432   .     S
H233   C286    1.081   .     S
H234   N260    1.028   .     S
H235   N264    1.016   .     S
H239   N265    1.032   .     S
H244   N262    1.031   .     S
H246   N266    1.025   .     S
H248   C639    1.111   .     S
H249   C846    1.111   .     S
H256   N263    1.032   .     S
H257   C429    1.111   .     S
N260   Zn276   2.038   .     S
N260   N261    1.280   .     D
N261   Zn275   2.038   .     S
N261   N264    1.385   .     S
N262   C370    1.432   1_455 S
N263   C419    1.443   .     S
N263   C429    1.446   .     S
O267   Zn275   1.968   .     S
O267   C277    1.286   .     S
O268   Zn276   1.977   .     S
O269   Zn275   1.974   .     S
O269   C280    1.312   .     S
O270   Zn276   1.962   .     S
O271   Zn275   1.977   .     S
O272   Zn276   1.968   .     S
O272   C351    1.291   1_455 S
O273   Zn275   1.962   .     S
O274   Zn276   1.974   .     S
O274   C352    1.289   1_455 S
C277   C279    1.405   .     S
C277   O337    1.294   .     A
C278   C286    1.401   .     A
C278   C280    1.459   .     S
C278   C295    1.419   .     A
C279   C419    1.343   .     S
C279   H528    1.088   .     S
C280   O339    1.295   .     A
C281   C282    1.427   .     S
C282   O340    1.296   .     A
C282   O410    1.291   .     S
C283   C285    1.456   .     S
C283   O342    1.315   .     A
C283   O412    1.289   .     S
C284   C297    1.401   .     A
C284   H312    1.081   .     S
C284   C922    1.396   .     S
C285   C300    1.388   .     A
C285   C301    1.421   .     A
C286   C287    1.386   .     A
C287   H319    1.083   .     S
C287   C910    1.396   .     S
C288   C295    1.410   .     A
C288   C910    1.424   .     S
C288   C917    1.402   .     S
C289   N335    1.428   .     S
C289   C908    1.396   1_554 S
C289   C909    1.424   1_554 S
C290   H323    1.111   .     S
C290   N331    1.458   .     S
C290   H322    1.107   .     S
C290   H324    1.090   .     S
C291   H328    1.110   .     S
C291   H327    1.111   .     S
C292   H307    1.091   .     S
C292   N333    1.442   .     S
C292   H306    1.108   .     S
C292   H305    1.110   .     S
C293   N334    1.443   .     S
C293   H310    1.110   .     S
C293   H309    1.110   .     S
C293   H311    1.110   .     S
C294   N335    1.444   .     S
C294   H523    1.111   .     S
C294   H1145   1.111   1_554 S
C294   H939    1.111   1_554 S
C295   C299    1.422   .     A
C296   C300    1.388   .     A
C296   C909    1.402   1_554 S
C296   C918    1.413   1_554 S
C297   C298    1.398   .     A
C297   C917    1.413   .     S
C298   N334    1.423   .     S
C298   C299    1.396   .     A
C299   H320    1.081   .     S
C300   H314    1.083   .     S
C301   C905    1.396   1_554 S
C301   N400    1.432   .     S
H302   C355    1.081   .     S
H303   N329    1.028   .     S
H304   N333    1.016   .     S
H308   N334    1.032   .     S
H313   N331    1.031   .     S
H315   N335    1.025   .     S
H317   C708    1.111   .     S
H318   C915    1.111   .     S
H325   N332    1.032   .     S
H326   C498    1.111   .     S
N329   Zn345   2.038   .     S
N329   N330    1.280   .     D
N330   Zn344   2.038   .     S
N330   N333    1.385   .     S
N332   C488    1.443   .     S
N332   C498    1.446   .     S
O336   Zn344   1.968   .     S
O336   C346    1.286   .     S
O337   Zn345   1.977   .     S
O338   Zn344   1.974   .     S
O338   C349    1.312   .     S
O339   Zn345   1.962   .     S
O340   Zn344   1.977   .     S
O341   Zn345   1.968   .     S
O342   Zn344   1.962   .     S
O343   Zn345   1.974   .     S
C346   C348    1.405   .     S
C346   O406    1.294   .     A
C347   C355    1.401   .     A
C347   C349    1.459   .     S
C347   C364    1.419   .     A
C348   C488    1.343   .     S
C348   H597    1.088   .     S
C349   O408    1.295   .     A
C350   C351    1.427   .     S
C350   C3      1.343   1_655 S
C351   O409    1.296   .     A
C351   O272    1.291   1_655 S
C352   C354    1.456   .     S
C352   O411    1.315   .     A
C352   O274    1.289   1_655 S
C353   C366    1.401   .     A
C353   H381    1.081   .     S
C353   C991    1.396   .     S
C354   C369    1.388   .     A
C354   C370    1.421   .     A
C355   C356    1.386   .     A
C356   H388    1.083   .     S
C356   C979    1.396   .     S
C357   C364    1.410   .     A
C357   C979    1.424   .     S
C357   C986    1.402   .     S
C358   N404    1.428   .     S
C358   C977    1.396   1_554 S
C358   C978    1.424   1_554 S
C359   H392    1.111   .     S
C359   N400    1.458   .     S
C359   H391    1.107   .     S
C359   H393    1.090   .     S
C360   H397    1.110   .     S
C360   H396    1.111   .     S
C361   H376    1.091   .     S
C361   N402    1.442   .     S
C361   H375    1.108   .     S
C361   H374    1.110   .     S
C362   N403    1.443   .     S
C362   H379    1.110   .     S
C362   H378    1.110   .     S
C362   H380    1.110   .     S
C363   N404    1.444   .     S
C363   H592    1.111   .     S
C363   H1214   1.111   1_554 S
C363   H1008   1.111   1_554 S
C364   C368    1.422   .     A
C365   C369    1.388   .     A
C365   C978    1.402   1_554 S
C365   C987    1.413   1_554 S
C366   C367    1.398   .     A
C366   C986    1.413   .     S
C367   N403    1.423   .     S
C367   C368    1.396   .     A
C368   H389    1.081   .     S
C369   H383    1.083   .     S
C370   C974    1.396   1_554 S
C370   N262    1.432   1_655 S
H371   C217    1.081   1_655 S
H372   N398    1.028   .     S
H373   N402    1.016   .     S
H377   N403    1.032   .     S
H382   N400    1.031   .     S
H384   N404    1.025   .     S
H386   C777    1.111   .     S
H387   C984    1.111   .     S
H394   N401    1.032   .     S
H395   C567    1.111   .     S
N398   Zn414   2.038   .     S
N398   N399    1.280   .     D
N399   Zn413   2.038   .     S
N399   N402    1.385   .     S
N401   C557    1.443   .     S
N401   C567    1.446   .     S
O405   Zn413   1.968   .     S
O405   C208    1.286   1_655 S
O406   Zn414   1.977   .     S
O407   Zn413   1.974   .     S
O407   C211    1.312   1_655 S
O408   Zn414   1.962   .     S
O409   Zn413   1.977   .     S
O410   Zn414   1.968   .     S
O411   Zn413   1.962   .     S
O412   Zn414   1.974   .     S
C415   C417    1.405   .     S
C415   O475    1.294   .     A
C415   O612    1.286   1_455 S
C416   C424    1.401   .     A
C416   C418    1.459   .     S
C416   C433    1.419   .     A
C417   C143    1.343   1_465 S
C417   H45     1.088   1_565 S
C418   O477    1.295   .     A
C418   O614    1.312   1_455 S
C419   C420    1.427   .     S
C420   O478    1.296   .     A
C420   O548    1.291   .     S
C421   C423    1.456   .     S
C421   O480    1.315   .     A
C421   O550    1.289   .     S
C422   C435    1.401   .     A
C422   H450    1.081   .     S
C422   C1060   1.396   .     S
C423   C438    1.388   .     A
C423   C439    1.421   .     A
C424   C425    1.386   .     A
C424   H578    1.081   1_455 S
C425   H457    1.083   .     S
C425   C1048   1.396   .     S
C426   C433    1.410   .     A
C426   C1048   1.424   .     S
C426   C1055   1.402   .     S
C427   N473    1.428   .     S
C427   C1046   1.396   1_554 S
C427   C1047   1.424   1_554 S
C428   H461    1.111   .     S
C428   N469    1.458   .     S
C428   H460    1.107   .     S
C428   H462    1.090   .     S
C429   H466    1.110   .     S
C429   H465    1.111   .     S
C430   H445    1.091   .     S
C430   N471    1.442   .     S
C430   H444    1.108   .     S
C430   H443    1.110   .     S
C431   N472    1.443   .     S
C431   H448    1.110   .     S
C431   H447    1.110   .     S
C431   H449    1.110   .     S
C432   N473    1.444   .     S
C432   H40     1.111   1_565 S
C432   H662    1.111   1_564 S
C432   H1077   1.111   1_554 S
C433   C437    1.422   .     A
C434   C438    1.388   .     A
C434   C1047   1.402   1_554 S
C434   C1056   1.413   1_554 S
C435   C436    1.398   .     A
C435   C1055   1.413   .     S
C436   N472    1.423   .     S
C436   C437    1.396   .     A
C437   H458    1.081   .     S
C438   H452    1.083   .     S
C439   C1043   1.396   1_554 S
C439   N538    1.432   .     S
H440   C493    1.081   .     S
H441   N467    1.028   .     S
H442   N471    1.016   .     S
H446   N472    1.032   .     S
H451   N469    1.031   .     S
H453   N473    1.025   .     S
H455   C846    1.111   .     S
H456   C1053   1.111   .     S
H463   N470    1.032   .     S
H464   C15     1.111   1_565 S
N467   Zn483   2.038   .     S
N467   N468    1.280   .     D
N468   Zn482   2.038   .     S
N468   N471    1.385   .     S
N469   C577    1.432   1_455 S
N470   C5      1.443   1_565 S
N470   C15     1.446   1_565 S
O474   Zn482   1.968   .     S
O474   C484    1.286   .     S
O475   Zn483   1.977   .     S
O476   Zn482   1.974   .     S
O476   C487    1.312   .     S
O477   Zn483   1.962   .     S
O478   Zn482   1.977   .     S
O479   Zn483   1.968   .     S
O479   C558    1.291   1_455 S
O480   Zn482   1.962   .     S
O481   Zn483   1.974   .     S
O481   C559    1.289   1_455 S
C484   C486    1.405   .     S
C484   O544    1.294   .     A
C485   C493    1.401   .     A
C485   C487    1.459   .     S
C485   C502    1.419   .     A
C486   C5      1.343   1_565 S
C486   H114    1.088   1_565 S
C487   O546    1.295   .     A
C488   C489    1.427   .     S
C489   O547    1.296   .     A
C489   O617    1.291   .     S
C490   C492    1.456   .     S
C490   O549    1.315   .     A
C490   O619    1.289   .     S
C491   C504    1.401   .     A
C491   H519    1.081   .     S
C491   C1129   1.396   .     S
C492   C507    1.388   .     A
C492   C508    1.421   .     A
C493   C494    1.386   .     A
C494   H526    1.083   .     S
C494   C1117   1.396   .     S
C495   C502    1.410   .     A
C495   C1117   1.424   .     S
C495   C1124   1.402   .     S
C496   N542    1.428   .     S
C496   C1115   1.396   1_554 S
C496   C1116   1.424   1_554 S
C497   H530    1.111   .     S
C497   N538    1.458   .     S
C497   H529    1.107   .     S
C497   H531    1.090   .     S
C498   H535    1.110   .     S
C498   H534    1.111   .     S
C499   H514    1.091   .     S
C499   N540    1.442   .     S
C499   H513    1.108   .     S
C499   H512    1.110   .     S
C500   N541    1.443   .     S
C500   H517    1.110   .     S
C500   H516    1.110   .     S
C500   H518    1.110   .     S
C501   N542    1.444   .     S
C501   H109    1.111   1_565 S
C501   H731    1.111   1_564 S
C501   H1146   1.111   1_554 S
C502   C506    1.422   .     A
C503   C507    1.388   .     A
C503   C1116   1.402   1_554 S
C503   C1125   1.413   1_554 S
C504   C505    1.398   .     A
C504   C1124   1.413   .     S
C505   N541    1.423   .     S
C505   C506    1.396   .     A
C506   H527    1.081   .     S
C507   H521    1.083   .     S
C508   C1112   1.396   1_554 S
C508   N607    1.432   .     S
H509   C562    1.081   .     S
H510   N536    1.028   .     S
H511   N540    1.016   .     S
H515   N541    1.032   .     S
H520   N538    1.031   .     S
H522   N542    1.025   .     S
H524   C915    1.111   .     S
H525   C1122   1.111   .     S
H532   N539    1.032   .     S
H533   C84     1.111   1_565 S
N536   Zn552   2.038   .     S
N536   N537    1.280   .     D
N537   Zn551   2.038   .     S
N537   N540    1.385   .     S
N539   C74     1.443   1_565 S
N539   C84     1.446   1_565 S
O543   Zn551   1.968   .     S
O543   C553    1.286   .     S
O544   Zn552   1.977   .     S
O545   Zn551   1.974   .     S
O545   C556    1.312   .     S
O546   Zn552   1.962   .     S
O547   Zn551   1.977   .     S
O548   Zn552   1.968   .     S
O549   Zn551   1.962   .     S
O550   Zn552   1.974   .     S
C553   C555    1.405   .     S
C553   O613    1.294   .     A
C554   C562    1.401   .     A
C554   C556    1.459   .     S
C554   C571    1.419   .     A
C555   C74     1.343   1_565 S
C555   H183    1.088   1_565 S
C556   O615    1.295   .     A
C557   C558    1.427   .     S
C557   C210    1.343   1_655 S
C558   O616    1.296   .     A
C558   O479    1.291   1_655 S
C559   C561    1.456   .     S
C559   O618    1.315   .     A
C559   O481    1.289   1_655 S
C560   C573    1.401   .     A
C560   H588    1.081   .     S
C560   C1198   1.396   .     S
C561   C576    1.388   .     A
C561   C577    1.421   .     A
C562   C563    1.386   .     A
C563   H595    1.083   .     S
C563   C1186   1.396   .     S
C564   C571    1.410   .     A
C564   C1186   1.424   .     S
C564   C1193   1.402   .     S
C565   N611    1.428   .     S
C565   C1184   1.396   1_554 S
C565   C1185   1.424   1_554 S
C566   H599    1.111   .     S
C566   N607    1.458   .     S
C566   H598    1.107   .     S
C566   H600    1.090   .     S
C567   H604    1.110   .     S
C567   H603    1.111   .     S
C568   H583    1.091   .     S
C568   N609    1.442   .     S
C568   H582    1.108   .     S
C568   H581    1.110   .     S
C569   N610    1.443   .     S
C569   H586    1.110   .     S
C569   H585    1.110   .     S
C569   H587    1.110   .     S
C570   N611    1.444   .     S
C570   H178    1.111   1_565 S
C570   H800    1.111   1_564 S
C570   H1215   1.111   1_554 S
C571   C575    1.422   .     A
C572   C576    1.388   .     A
C572   C1185   1.402   1_554 S
C572   C1194   1.413   1_554 S
C573   C574    1.398   .     A
C573   C1193   1.413   .     S
C574   N610    1.423   .     S
C574   C575    1.396   .     A
C575   H596    1.081   .     S
C576   H590    1.083   .     S
C577   C1181   1.396   1_554 S
C577   N469    1.432   1_655 S
H578   C424    1.081   1_655 S
H579   N605    1.028   .     S
H580   N609    1.016   .     S
H584   N610    1.032   .     S
H589   N607    1.031   .     S
H591   N611    1.025   .     S
H593   C984    1.111   .     S
H594   C1191   1.111   .     S
H601   N608    1.032   .     S
H602   C153    1.111   1_565 S
N605   Zn621   2.038   .     S
N605   N606    1.280   .     D
N606   Zn620   2.038   .     S
N606   N609    1.385   .     S
N608   C143    1.443   1_565 S
N608   C153    1.446   1_565 S
O612   Zn620   1.968   .     S
O612   C415    1.286   1_655 S
O613   Zn621   1.977   .     S
O614   Zn620   1.974   .     S
O614   C418    1.312   1_655 S
O615   Zn621   1.962   .     S
O616   Zn620   1.977   .     S
O617   Zn621   1.968   .     S
O618   Zn620   1.962   .     S
O619   Zn621   1.974   .     S
C622   C624    1.405   .     S
C622   O682    1.294   .     A
C622   O819    1.286   1_455 S
C623   C631    1.401   .     A
C623   C625    1.459   .     S
C623   C640    1.419   .     A
C624   C971    1.343   1_455 S
C624   H873    1.088   .     S
C625   O684    1.295   .     A
C625   O821    1.312   1_455 S
C626   C627    1.427   .     S
C626   C1107   1.343   1_545 S
C626   N1091   1.443   1_545 S
C627   O685    1.296   .     A
C627   O755    1.291   .     S
C628   C630    1.456   .     S
C628   O687    1.315   .     A
C628   O757    1.289   .     S
C629   C642    1.401   .     A
C629   H657    1.081   .     S
C629   C25     1.396   1_556 S
C630   C645    1.388   .     A
C630   C646    1.421   .     A
C631   C632    1.386   .     A
C631   H785    1.081   1_455 S
C632   H664    1.083   .     S
C632   C13     1.396   1_556 S
C633   C640    1.410   .     A
C633   C13     1.424   1_556 S
C633   C20     1.402   1_556 S
C634   N680    1.428   .     S
C635   H668    1.111   .     S
C635   N676    1.458   .     S
C635   H667    1.107   .     S
C635   H669    1.090   .     S
C636   H673    1.110   .     S
C636   H672    1.111   .     S
C636   H1085   1.111   1_545 S
C636   N1091   1.446   1_545 S
C637   H652    1.091   .     S
C637   N678    1.442   .     S
C637   H651    1.108   .     S
C637   H650    1.110   .     S
C638   N679    1.443   .     S
C638   H655    1.110   .     S
C638   H654    1.110   .     S
C638   H656    1.110   .     S
C639   N680    1.444   .     S
C639   H868    1.111   .     S
C640   C644    1.422   .     A
C641   C645    1.388   .     A
C642   C643    1.398   .     A
C642   C20     1.413   1_556 S
C643   N679    1.423   .     S
C643   C644    1.396   .     A
C644   H665    1.081   .     S
C645   H659    1.083   .     S
C646   N745    1.432   .     S
H647   C700    1.081   .     S
H648   N674    1.028   .     S
H649   N678    1.016   .     S
H653   N679    1.032   .     S
H658   N676    1.031   .     S
H660   N680    1.025   .     S
H661   C1053   1.111   1_545 S
H662   C432    1.111   1_546 S
H663   C18     1.111   1_556 S
H666   C1038   1.088   1_545 S
H670   N677    1.032   .     S
H671   C843    1.111   .     S
N674   Zn690   2.038   .     S
N674   N675    1.280   .     D
N675   Zn689   2.038   .     S
N675   N678    1.385   .     S
N676   C784    1.432   1_455 S
N677   C833    1.443   .     S
N677   C843    1.446   .     S
O681   Zn689   1.968   .     S
O681   C691    1.286   .     S
O682   Zn690   1.977   .     S
O683   Zn689   1.974   .     S
O683   C694    1.312   .     S
O684   Zn690   1.962   .     S
O685   Zn689   1.977   .     S
O686   Zn690   1.968   .     S
O686   C765    1.291   1_455 S
O687   Zn689   1.962   .     S
O688   Zn690   1.974   .     S
O688   C766    1.289   1_455 S
C691   C693    1.405   .     S
C691   O751    1.294   .     A
C692   C700    1.401   .     A
C692   C694    1.459   .     S
C692   C709    1.419   .     A
C693   C833    1.343   .     S
C693   H942    1.088   .     S
C694   O753    1.295   .     A
C695   C696    1.427   .     S
C695   C1176   1.343   1_545 S
C695   N1160   1.443   1_545 S
C696   O754    1.296   .     A
C696   O824    1.291   .     S
C697   C699    1.456   .     S
C697   O756    1.315   .     A
C697   O826    1.289   .     S
C698   C711    1.401   .     A
C698   H726    1.081   .     S
C698   C94     1.396   1_556 S
C699   C714    1.388   .     A
C699   C715    1.421   .     A
C700   C701    1.386   .     A
C701   H733    1.083   .     S
C701   C82     1.396   1_556 S
C702   C709    1.410   .     A
C702   C82     1.424   1_556 S
C702   C89     1.402   1_556 S
C703   N749    1.428   .     S
C704   H737    1.111   .     S
C704   N745    1.458   .     S
C704   H736    1.107   .     S
C704   H738    1.090   .     S
C705   H742    1.110   .     S
C705   H741    1.111   .     S
C705   H1154   1.111   1_545 S
C705   N1160   1.446   1_545 S
C706   H721    1.091   .     S
C706   N747    1.442   .     S
C706   H720    1.108   .     S
C706   H719    1.110   .     S
C707   N748    1.443   .     S
C707   H724    1.110   .     S
C707   H723    1.110   .     S
C707   H725    1.110   .     S
C708   N749    1.444   .     S
C708   H937    1.111   .     S
C709   C713    1.422   .     A
C710   C714    1.388   .     A
C711   C712    1.398   .     A
C711   C89     1.413   1_556 S
C712   N748    1.423   .     S
C712   C713    1.396   .     A
C713   H734    1.081   .     S
C714   H728    1.083   .     S
C715   N814    1.432   .     S
H716   C769    1.081   .     S
H717   N743    1.028   .     S
H718   N747    1.016   .     S
H722   N748    1.032   .     S
H727   N745    1.031   .     S
H729   N749    1.025   .     S
H730   C1122   1.111   1_545 S
H731   C501    1.111   1_546 S
H732   C87     1.111   1_556 S
H735   C1107   1.088   1_545 S
H739   N746    1.032   .     S
H740   C912    1.111   .     S
N743   Zn759   2.038   .     S
N743   N744    1.280   .     D
N744   Zn758   2.038   .     S
N744   N747    1.385   .     S
N746   C902    1.443   .     S
N746   C912    1.446   .     S
O750   Zn758   1.968   .     S
O750   C760    1.286   .     S
O751   Zn759   1.977   .     S
O752   Zn758   1.974   .     S
O752   C763    1.312   .     S
O753   Zn759   1.962   .     S
O754   Zn758   1.977   .     S
O755   Zn759   1.968   .     S
O756   Zn758   1.962   .     S
O757   Zn759   1.974   .     S
C760   C762    1.405   .     S
C760   O820    1.294   .     A
C761   C769    1.401   .     A
C761   C763    1.459   .     S
C761   C778    1.419   .     A
C762   C902    1.343   .     S
C762   H1011   1.088   .     S
C763   O822    1.295   .     A
C764   C765    1.427   .     S
C764   C1038   1.343   1_645 S
C764   N1229   1.443   1_545 S
C765   O823    1.296   .     A
C765   O686    1.291   1_655 S
C766   C768    1.456   .     S
C766   O825    1.315   .     A
C766   O688    1.289   1_655 S
C767   C780    1.401   .     A
C767   H795    1.081   .     S
C767   C163    1.396   1_556 S
C768   C783    1.388   .     A
C768   C784    1.421   .     A
C769   C770    1.386   .     A
C770   H802    1.083   .     S
C770   C151    1.396   1_556 S
C771   C778    1.410   .     A
C771   C151    1.424   1_556 S
C771   C158    1.402   1_556 S
C772   N818    1.428   .     S
C773   H806    1.111   .     S
C773   N814    1.458   .     S
C773   H805    1.107   .     S
C773   H807    1.090   .     S
C774   H811    1.110   .     S
C774   H810    1.111   .     S
C774   H1223   1.111   1_545 S
C774   N1229   1.446   1_545 S
C775   H790    1.091   .     S
C775   N816    1.442   .     S
C775   H789    1.108   .     S
C775   H788    1.110   .     S
C776   N817    1.443   .     S
C776   H793    1.110   .     S
C776   H792    1.110   .     S
C776   H794    1.110   .     S
C777   N818    1.444   .     S
C777   H1006   1.111   .     S
C778   C782    1.422   .     A
C779   C783    1.388   .     A
C780   C781    1.398   .     A
C780   C158    1.413   1_556 S
C781   N817    1.423   .     S
C781   C782    1.396   .     A
C782   H803    1.081   .     S
C783   H797    1.083   .     S
C784   N676    1.432   1_655 S
H785   C631    1.081   1_655 S
H786   N812    1.028   .     S
H787   N816    1.016   .     S
H791   N817    1.032   .     S
H796   N814    1.031   .     S
H798   N818    1.025   .     S
H799   C1191   1.111   1_545 S
H800   C570    1.111   1_546 S
H801   C156    1.111   1_556 S
H804   C1176   1.088   1_545 S
H808   N815    1.032   .     S
H809   C981    1.111   .     S
N812   Zn828   2.038   .     S
N812   N813    1.280   .     D
N813   Zn827   2.038   .     S
N813   N816    1.385   .     S
N815   C971    1.443   .     S
N815   C981    1.446   .     S
O819   Zn827   1.968   .     S
O819   C622    1.286   1_655 S
O820   Zn828   1.977   .     S
O821   Zn827   1.974   .     S
O821   C625    1.312   1_655 S
O822   Zn828   1.962   .     S
O823   Zn827   1.977   .     S
O824   Zn828   1.968   .     S
O825   Zn827   1.962   .     S
O826   Zn828   1.974   .     S
C829   C831    1.405   .     S
C829   O889    1.294   .     A
C829   O1026   1.286   1_455 S
C830   C838    1.401   .     A
C830   C832    1.459   .     S
C830   C847    1.419   .     A
C831   C1178   1.343   1_455 S
C831   H1080   1.088   .     S
C832   O891    1.295   .     A
C832   O1028   1.312   1_455 S
C833   C834    1.427   .     S
C834   O892    1.296   .     A
C834   O962    1.291   .     S
C835   C837    1.456   .     S
C835   O894    1.315   .     A
C835   O964    1.289   .     S
C836   C849    1.401   .     A
C836   H864    1.081   .     S
C836   C232    1.396   1_556 S
C837   C852    1.388   .     A
C837   C853    1.421   .     A
C838   C839    1.386   .     A
C838   H992    1.081   1_455 S
C839   H871    1.083   .     S
C839   C220    1.396   1_556 S
C840   C847    1.410   .     A
C840   C220    1.424   1_556 S
C840   C227    1.402   1_556 S
C841   N887    1.428   .     S
C842   H875    1.111   .     S
C842   N883    1.458   .     S
C842   H874    1.107   .     S
C842   H876    1.090   .     S
C843   H880    1.110   .     S
C843   H879    1.111   .     S
C844   H859    1.091   .     S
C844   N885    1.442   .     S
C844   H858    1.108   .     S
C844   H857    1.110   .     S
C845   N886    1.443   .     S
C845   H862    1.110   .     S
C845   H861    1.110   .     S
C845   H863    1.110   .     S
C846   N887    1.444   .     S
C846   H1075   1.111   .     S
C847   C851    1.422   .     A
C848   C852    1.388   .     A
C849   C850    1.398   .     A
C849   C227    1.413   1_556 S
C850   N886    1.423   .     S
C850   C851    1.396   .     A
C851   H872    1.081   .     S
C852   H866    1.083   .     S
C853   N952    1.432   .     S
H854   C907    1.081   .     S
H855   N881    1.028   .     S
H856   N885    1.016   .     S
H860   N886    1.032   .     S
H865   N883    1.031   .     S
H867   N887    1.025   .     S
H869   C18     1.111   1_556 S
H870   C225    1.111   1_556 S
H877   N884    1.032   .     S
H878   C1050   1.111   .     S
N881   Zn897   2.038   .     S
N881   N882    1.280   .     D
N882   Zn896   2.038   .     S
N882   N885    1.385   .     S
N883   C991    1.432   1_455 S
N884   C1040   1.443   .     S
N884   C1050   1.446   .     S
O888   Zn896   1.968   .     S
O888   C898    1.286   .     S
O889   Zn897   1.977   .     S
O890   Zn896   1.974   .     S
O890   C901    1.312   .     S
O891   Zn897   1.962   .     S
O892   Zn896   1.977   .     S
O893   Zn897   1.968   .     S
O893   C972    1.291   1_455 S
O894   Zn896   1.962   .     S
O895   Zn897   1.974   .     S
O895   C973    1.289   1_455 S
C898   C900    1.405   .     S
C898   O958    1.294   .     A
C899   C907    1.401   .     A
C899   C901    1.459   .     S
C899   C916    1.419   .     A
C900   C1040   1.343   .     S
C900   H1149   1.088   .     S
C901   O960    1.295   .     A
C902   C903    1.427   .     S
C903   O961    1.296   .     A
C903   O1031   1.291   .     S
C904   C906    1.456   .     S
C904   O963    1.315   .     A
C904   O1033   1.289   .     S
C905   C918    1.401   .     A
C905   H933    1.081   .     S
C905   C301    1.396   1_556 S
C906   C921    1.388   .     A
C906   C922    1.421   .     A
C907   C908    1.386   .     A
C908   H940    1.083   .     S
C908   C289    1.396   1_556 S
C909   C916    1.410   .     A
C909   C289    1.424   1_556 S
C909   C296    1.402   1_556 S
C910   N956    1.428   .     S
C911   H944    1.111   .     S
C911   N952    1.458   .     S
C911   H943    1.107   .     S
C911   H945    1.090   .     S
C912   H949    1.110   .     S
C912   H948    1.111   .     S
C913   H928    1.091   .     S
C913   N954    1.442   .     S
C913   H927    1.108   .     S
C913   H926    1.110   .     S
C914   N955    1.443   .     S
C914   H931    1.110   .     S
C914   H930    1.110   .     S
C914   H932    1.110   .     S
C915   N956    1.444   .     S
C915   H1144   1.111   .     S
C916   C920    1.422   .     A
C917   C921    1.388   .     A
C918   C919    1.398   .     A
C918   C296    1.413   1_556 S
C919   N955    1.423   .     S
C919   C920    1.396   .     A
C920   H941    1.081   .     S
C921   H935    1.083   .     S
C922   N1021   1.432   .     S
H923   C976    1.081   .     S
H924   N950    1.028   .     S
H925   N954    1.016   .     S
H929   N955    1.032   .     S
H934   N952    1.031   .     S
H936   N956    1.025   .     S
H938   C87     1.111   1_556 S
H939   C294    1.111   1_556 S
H946   N953    1.032   .     S
H947   C1119   1.111   .     S
N950   Zn966   2.038   .     S
N950   N951    1.280   .     D
N951   Zn965   2.038   .     S
N951   N954    1.385   .     S
N953   C1109   1.443   .     S
N953   C1119   1.446   .     S
O957   Zn965   1.968   .     S
O957   C967    1.286   .     S
O958   Zn966   1.977   .     S
O959   Zn965   1.974   .     S
O959   C970    1.312   .     S
O960   Zn966   1.962   .     S
O961   Zn965   1.977   .     S
O962   Zn966   1.968   .     S
O963   Zn965   1.962   .     S
O964   Zn966   1.974   .     S
C967   C969    1.405   .     S
C967   O1027   1.294   .     A
C968   C976    1.401   .     A
C968   C970    1.459   .     S
C968   C985    1.419   .     A
C969   C1109   1.343   .     S
C969   H1218   1.088   .     S
C970   O1029   1.295   .     A
C971   C972    1.427   .     S
C971   C624    1.343   1_655 S
C972   O1030   1.296   .     A
C972   O893    1.291   1_655 S
C973   C975    1.456   .     S
C973   O1032   1.315   .     A
C973   O895    1.289   1_655 S
C974   C987    1.401   .     A
C974   H1002   1.081   .     S
C974   C370    1.396   1_556 S
C975   C990    1.388   .     A
C975   C991    1.421   .     A
C976   C977    1.386   .     A
C977   H1009   1.083   .     S
C977   C358    1.396   1_556 S
C978   C985    1.410   .     A
C978   C358    1.424   1_556 S
C978   C365    1.402   1_556 S
C979   N1025   1.428   .     S
C980   H1013   1.111   .     S
C980   N1021   1.458   .     S
C980   H1012   1.107   .     S
C980   H1014   1.090   .     S
C981   H1018   1.110   .     S
C981   H1017   1.111   .     S
C982   H997    1.091   .     S
C982   N1023   1.442   .     S
C982   H996    1.108   .     S
C982   H995    1.110   .     S
C983   N1024   1.443   .     S
C983   H1000   1.110   .     S
C983   H999    1.110   .     S
C983   H1001   1.110   .     S
C984   N1025   1.444   .     S
C984   H1213   1.111   .     S
C985   C989    1.422   .     A
C986   C990    1.388   .     A
C987   C988    1.398   .     A
C987   C365    1.413   1_556 S
C988   N1024   1.423   .     S
C988   C989    1.396   .     A
C989   H1010   1.081   .     S
C990   H1004   1.083   .     S
C991   N883    1.432   1_655 S
H992   C838    1.081   1_655 S
H993   N1019   1.028   .     S
H994   N1023   1.016   .     S
H998   N1024   1.032   .     S
H1003  N1021   1.031   .     S
H1005  N1025   1.025   .     S
H1007  C156    1.111   1_556 S
H1008  C363    1.111   1_556 S
H1015  N1022   1.032   .     S
H1016  C1188   1.111   .     S
N1019  Zn1035  2.038   .     S
N1019  N1020   1.280   .     D
N1020  Zn1034  2.038   .     S
N1020  N1023   1.385   .     S
N1022  C1178   1.443   .     S
N1022  C1188   1.446   .     S
O1026  Zn1034  1.968   .     S
O1026  C829    1.286   1_655 S
O1027  Zn1035  1.977   .     S
O1028  Zn1034  1.974   .     S
O1028  C832    1.312   1_655 S
O1029  Zn1035  1.962   .     S
O1030  Zn1034  1.977   .     S
O1031  Zn1035  1.968   .     S
O1032  Zn1034  1.962   .     S
O1033  Zn1035  1.974   .     S
C1036  C1038   1.405   .     S
C1036  O1096   1.294   .     A
C1036  O1233   1.286   1_455 S
C1037  C1045   1.401   .     A
C1037  C1039   1.459   .     S
C1037  C1054   1.419   .     A
C1038  C764    1.343   1_465 S
C1038  H666    1.088   1_565 S
C1039  O1098   1.295   .     A
C1039  O1235   1.312   1_455 S
C1040  C1041   1.427   .     S
C1041  O1099   1.296   .     A
C1041  O1169   1.291   .     S
C1042  C1044   1.456   .     S
C1042  O1101   1.315   .     A
C1042  O1171   1.289   .     S
C1043  C1056   1.401   .     A
C1043  H1071   1.081   .     S
C1043  C439    1.396   1_556 S
C1044  C1059   1.388   .     A
C1044  C1060   1.421   .     A
C1045  C1046   1.386   .     A
C1045  H1199   1.081   1_455 S
C1046  H1078   1.083   .     S
C1046  C427    1.396   1_556 S
C1047  C1054   1.410   .     A
C1047  C427    1.424   1_556 S
C1047  C434    1.402   1_556 S
C1048  N1094   1.428   .     S
C1049  H1082   1.111   .     S
C1049  N1090   1.458   .     S
C1049  H1081   1.107   .     S
C1049  H1083   1.090   .     S
C1050  H1087   1.110   .     S
C1050  H1086   1.111   .     S
C1051  H1066   1.091   .     S
C1051  N1092   1.442   .     S
C1051  H1065   1.108   .     S
C1051  H1064   1.110   .     S
C1052  N1093   1.443   .     S
C1052  H1069   1.110   .     S
C1052  H1068   1.110   .     S
C1052  H1070   1.110   .     S
C1053  N1094   1.444   .     S
C1053  H661    1.111   1_565 S
C1053  H41     1.111   1_565 S
C1054  C1058   1.422   .     A
C1055  C1059   1.388   .     A
C1056  C1057   1.398   .     A
C1056  C434    1.413   1_556 S
C1057  N1093   1.423   .     S
C1057  C1058   1.396   .     A
C1058  H1079   1.081   .     S
C1059  H1073   1.083   .     S
C1060  N1159   1.432   .     S
H1061  C1114   1.081   .     S
H1062  N1088   1.028   .     S
H1063  N1092   1.016   .     S
H1067  N1093   1.032   .     S
H1072  N1090   1.031   .     S
H1074  N1094   1.025   .     S
H1076  C225    1.111   1_556 S
H1077  C432    1.111   1_556 S
H1084  N1091   1.032   .     S
H1085  C636    1.111   1_565 S
N1088  Zn1104  2.038   .     S
N1088  N1089   1.280   .     D
N1089  Zn1103  2.038   .     S
N1089  N1092   1.385   .     S
N1090  C1198   1.432   1_455 S
N1091  C626    1.443   1_565 S
N1091  C636    1.446   1_565 S
O1095  Zn1103  1.968   .     S
O1095  C1105   1.286   .     S
O1096  Zn1104  1.977   .     S
O1097  Zn1103  1.974   .     S
O1097  C1108   1.312   .     S
O1098  Zn1104  1.962   .     S
O1099  Zn1103  1.977   .     S
O1100  Zn1104  1.968   .     S
O1100  C1179   1.291   1_455 S
O1101  Zn1103  1.962   .     S
O1102  Zn1104  1.974   .     S
O1102  C1180   1.289   1_455 S
C1105  C1107   1.405   .     S
C1105  O1165   1.294   .     A
C1106  C1114   1.401   .     A
C1106  C1108   1.459   .     S
C1106  C1123   1.419   .     A
C1107  C626    1.343   1_565 S
C1107  H735    1.088   1_565 S
C1108  O1167   1.295   .     A
C1109  C1110   1.427   .     S
C1110  O1168   1.296   .     A
C1110  O1238   1.291   .     S
C1111  C1113   1.456   .     S
C1111  O1170   1.315   .     A
C1111  O1240   1.289   .     S
C1112  C1125   1.401   .     A
C1112  H1140   1.081   .     S
C1112  C508    1.396   1_556 S
C1113  C1128   1.388   .     A
C1113  C1129   1.421   .     A
C1114  C1115   1.386   .     A
C1115  H1147   1.083   .     S
C1115  C496    1.396   1_556 S
C1116  C1123   1.410   .     A
C1116  C496    1.424   1_556 S
C1116  C503    1.402   1_556 S
C1117  N1163   1.428   .     S
C1118  H1151   1.111   .     S
C1118  N1159   1.458   .     S
C1118  H1150   1.107   .     S
C1118  H1152   1.090   .     S
C1119  H1156   1.110   .     S
C1119  H1155   1.111   .     S
C1120  H1135   1.091   .     S
C1120  N1161   1.442   .     S
C1120  H1134   1.108   .     S
C1120  H1133   1.110   .     S
C1121  N1162   1.443   .     S
C1121  H1138   1.110   .     S
C1121  H1137   1.110   .     S
C1121  H1139   1.110   .     S
C1122  N1163   1.444   .     S
C1122  H730    1.111   1_565 S
C1122  H110    1.111   1_565 S
C1123  C1127   1.422   .     A
C1124  C1128   1.388   .     A
C1125  C1126   1.398   .     A
C1125  C503    1.413   1_556 S
C1126  N1162   1.423   .     S
C1126  C1127   1.396   .     A
C1127  H1148   1.081   .     S
C1128  H1142   1.083   .     S
C1129  N1228   1.432   .     S
H1130  C1183   1.081   .     S
H1131  N1157   1.028   .     S
H1132  N1161   1.016   .     S
H1136  N1162   1.032   .     S
H1141  N1159   1.031   .     S
H1143  N1163   1.025   .     S
H1145  C294    1.111   1_556 S
H1146  C501    1.111   1_556 S
H1153  N1160   1.032   .     S
H1154  C705    1.111   1_565 S
N1157  Zn1173  2.038   .     S
N1157  N1158   1.280   .     D
N1158  Zn1172  2.038   .     S
N1158  N1161   1.385   .     S
N1160  C695    1.443   1_565 S
N1160  C705    1.446   1_565 S
O1164  Zn1172  1.968   .     S
O1164  C1174   1.286   .     S
O1165  Zn1173  1.977   .     S
O1166  Zn1172  1.974   .     S
O1166  C1177   1.312   .     S
O1167  Zn1173  1.962   .     S
O1168  Zn1172  1.977   .     S
O1169  Zn1173  1.968   .     S
O1170  Zn1172  1.962   .     S
O1171  Zn1173  1.974   .     S
C1174  C1176   1.405   .     S
C1174  O1234   1.294   .     A
C1175  C1183   1.401   .     A
C1175  C1177   1.459   .     S
C1175  C1192   1.419   .     A
C1176  C695    1.343   1_565 S
C1176  H804    1.088   1_565 S
C1177  O1236   1.295   .     A
C1178  C1179   1.427   .     S
C1178  C831    1.343   1_655 S
C1179  O1237   1.296   .     A
C1179  O1100   1.291   1_655 S
C1180  C1182   1.456   .     S
C1180  O1239   1.315   .     A
C1180  O1102   1.289   1_655 S
C1181  C1194   1.401   .     A
C1181  H1209   1.081   .     S
C1181  C577    1.396   1_556 S
C1182  C1197   1.388   .     A
C1182  C1198   1.421   .     A
C1183  C1184   1.386   .     A
C1184  H1216   1.083   .     S
C1184  C565    1.396   1_556 S
C1185  C1192   1.410   .     A
C1185  C565    1.424   1_556 S
C1185  C572    1.402   1_556 S
C1186  N1232   1.428   .     S
C1187  H1220   1.111   .     S
C1187  N1228   1.458   .     S
C1187  H1219   1.107   .     S
C1187  H1221   1.090   .     S
C1188  H1225   1.110   .     S
C1188  H1224   1.111   .     S
C1189  H1204   1.091   .     S
C1189  N1230   1.442   .     S
C1189  H1203   1.108   .     S
C1189  H1202   1.110   .     S
C1190  N1231   1.443   .     S
C1190  H1207   1.110   .     S
C1190  H1206   1.110   .     S
C1190  H1208   1.110   .     S
C1191  N1232   1.444   .     S
C1191  H799    1.111   1_565 S
C1191  H179    1.111   1_565 S
C1192  C1196   1.422   .     A
C1193  C1197   1.388   .     A
C1194  C1195   1.398   .     A
C1194  C572    1.413   1_556 S
C1195  N1231   1.423   .     S
C1195  C1196   1.396   .     A
C1196  H1217   1.081   .     S
C1197  H1211   1.083   .     S
C1198  N1090   1.432   1_655 S
H1199  C1045   1.081   1_655 S
H1200  N1226   1.028   .     S
H1201  N1230   1.016   .     S
H1205  N1231   1.032   .     S
H1210  N1228   1.031   .     S
H1212  N1232   1.025   .     S
H1214  C363    1.111   1_556 S
H1215  C570    1.111   1_556 S
H1222  N1229   1.032   .     S
H1223  C774    1.111   1_565 S
N1226  Zn1242  2.038   .     S
N1226  N1227   1.280   .     D
N1227  Zn1241  2.038   .     S
N1227  N1230   1.385   .     S
N1229  C764    1.443   1_565 S
N1229  C774    1.446   1_565 S
O1233  Zn1241  1.968   .     S
O1233  C1036   1.286   1_655 S
O1234  Zn1242  1.977   .     S
O1235  Zn1241  1.974   .     S
O1235  C1039   1.312   1_655 S
O1236  Zn1242  1.962   .     S
O1237  Zn1241  1.977   .     S
O1238  Zn1242  1.968   .     S
O1239  Zn1241  1.962   .     S
O1240  Zn1242  1.974   .     S
