data_str_m2_o2_o5_pcu_sym.63
_audit_creation_date              2020-01-03
_audit_creation_method            'Materials Studio'
_symmetry_space_group_name_H-M    'P1'
_symmetry_Int_Tables_number       1
_symmetry_cell_setting            triclinic
loop_
_symmetry_equiv_pos_as_xyz
  x,y,z
_cell_length_a                    30.2749
_cell_length_b                    27.7488
_cell_length_c                    27.2193
_cell_angle_alpha                 90.0365
_cell_angle_beta                  90.2961
_cell_angle_gamma                 90.0348
loop_
_atom_site_label
_atom_site_type_symbol
_atom_site_fract_x
_atom_site_fract_y
_atom_site_fract_z
_atom_site_U_iso_or_equiv
_atom_site_adp_type
_atom_site_occupancy
C1     C     0.16507   0.24998   0.16656   0.00000  Uiso   1.00
C2     C     0.27165   0.44604   0.20385   0.00000  Uiso   1.00
C3     C     0.25043   0.24999   0.07353   0.00000  Uiso   1.00
C4     C     0.25031   0.25000   0.25981   0.00000  Uiso   1.00
C5     C     0.25004   0.02733   0.16665   0.00000  Uiso   1.00
C6     C     0.25004   0.47264   0.16665   0.00000  Uiso   1.00
C7     C     0.25051   0.24998   0.02184   0.00000  Uiso   1.00
C8     C     0.25045   0.24999   0.31150   0.00000  Uiso   1.00
C9     C     0.04725   0.26176   0.12312   0.00000  Uiso   1.00
C10    C     0.45259   0.22451   0.12967   0.00000  Uiso   1.00
C11    C     0.45332   0.27583   0.20153   0.00000  Uiso   1.00
C12    C     0.33499   0.25003   0.16663   0.00000  Uiso   1.00
C13    C     0.04728   0.23761   0.20851   0.00000  Uiso   1.00
C14    C     0.09339   0.26174   0.12252   0.00000  Uiso   1.00
C15    C     0.40644   0.22466   0.12891   0.00000  Uiso   1.00
C16    C     0.40721   0.27593   0.20269   0.00000  Uiso   1.00
C17    C     0.09341   0.23788   0.20969   0.00000  Uiso   1.00
C18    C     0.11680   0.24991   0.16627   0.00000  Uiso   1.00
C19    C     0.38336   0.25012   0.16612   0.00000  Uiso   1.00
C20    C     0.02430   0.24968   0.16569   0.00000  Uiso   1.00
C21    C     0.47593   0.24999   0.16560   0.00000  Uiso   1.00
C22    C     0.11546   0.27336   0.07523   0.00000  Uiso   1.00
C23    C     0.28368   0.10472   0.18869   0.00000  Uiso   1.00
C24    C     0.38400   0.19930   0.08757   0.00000  Uiso   1.00
C25    C     0.38540   0.30187   0.24371   0.00000  Uiso   1.00
C26    C     0.11547   0.22647   0.25728   0.00000  Uiso   1.00
C27    C     0.22854   0.39526   0.13036   0.00000  Uiso   1.00
C28    C     0.21635   0.10463   0.14461   0.00000  Uiso   1.00
C29    C     0.27151   0.39533   0.20295   0.00000  Uiso   1.00
C30    C     0.28451   0.05400   0.18877   0.00000  Uiso   1.00
C31    C     0.22843   0.44598   0.12945   0.00000  Uiso   1.00
C32    C     0.21555   0.05392   0.14452   0.00000  Uiso   1.00
Cu33   Cu    0.25000   0.29822   0.16667   0.00000  Uiso   1.00
Cu34   Cu    0.25000   0.20179   0.16667   0.00000  Uiso   1.00
H35    H     0.31030   0.12433   0.20623   0.00000  Uiso   1.00
H36    H     0.21193   0.46389   0.09925   0.00000  Uiso   1.00
H37    H     0.18762   0.03594   0.12768   0.00000  Uiso   1.00
H38    H     0.28818   0.46401   0.23404   0.00000  Uiso   1.00
H39    H     0.11178   0.30708   0.00962   0.00000  Uiso   1.00
H40    H     0.38571   0.14489   0.03837   0.00000  Uiso   1.00
H41    H     0.33658   0.30343   0.29374   0.00000  Uiso   1.00
H42    H     0.11188   0.19274   0.32286   0.00000  Uiso   1.00
H43    H     0.21147   0.37561   0.10166   0.00000  Uiso   1.00
H44    H     0.18973   0.12418   0.12705   0.00000  Uiso   1.00
H45    H     0.28859   0.37571   0.23164   0.00000  Uiso   1.00
H46    H     0.02883   0.27092   0.09016   0.00000  Uiso   1.00
H47    H     0.47065   0.20497   0.10172   0.00000  Uiso   1.00
H48    H     0.47189   0.29543   0.22926   0.00000  Uiso   1.00
H49    H     0.02889   0.22845   0.24128   0.00000  Uiso   1.00
H50    H     0.31245   0.03609   0.20559   0.00000  Uiso   1.00
N51    N     0.25000   0.12935   0.16667   0.00000  Uiso   1.00
N52    N     0.25000   0.37066   0.16667   0.00000  Uiso   1.00
O53    O     0.18573   0.29072   0.16667   0.00000  Uiso   1.00
O54    O     0.09374   0.30209   0.04049   0.00000  Uiso   1.00
O55    O     0.34926   0.21458   0.07069   0.00000  Uiso   1.00
O56    O     0.40372   0.15869   0.06657   0.00000  Uiso   1.00
O57    O     0.40132   0.33943   0.25936   0.00000  Uiso   1.00
O58    O     0.34778   0.28266   0.26580   0.00000  Uiso   1.00
O59    O     0.15172   0.24327   0.26723   0.00000  Uiso   1.00
O60    O     0.09387   0.19755   0.29173   0.00000  Uiso   1.00
O61    O     0.31427   0.20929   0.16666   0.00000  Uiso   1.00
O62    O     0.31427   0.29072   0.16666   0.00000  Uiso   1.00
O63    O     0.18573   0.20929   0.16667   0.00000  Uiso   1.00
O64    O     0.25000   0.29071   0.09613   0.00000  Uiso   1.00
O65    O     0.25000   0.20929   0.23720   0.00000  Uiso   1.00
O66    O     0.25000   0.29071   0.23720   0.00000  Uiso   1.00
O67    O     0.25000   0.20929   0.09613   0.00000  Uiso   1.00
O68    O     0.15184   0.25691   0.06579   0.00000  Uiso   1.00
C69    C     0.66507   0.24998   0.16656   0.00000  Uiso   1.00
C70    C     0.77165   0.44604   0.20385   0.00000  Uiso   1.00
C71    C     0.75043   0.24999   0.07353   0.00000  Uiso   1.00
C72    C     0.75031   0.25000   0.25981   0.00000  Uiso   1.00
C73    C     0.75004   0.02733   0.16665   0.00000  Uiso   1.00
C74    C     0.75004   0.47264   0.16665   0.00000  Uiso   1.00
C75    C     0.75051   0.24998   0.02184   0.00000  Uiso   1.00
C76    C     0.75045   0.24999   0.31150   0.00000  Uiso   1.00
C77    C     0.54725   0.26176   0.12312   0.00000  Uiso   1.00
C78    C     0.95259   0.22451   0.12967   0.00000  Uiso   1.00
C79    C     0.95332   0.27583   0.20153   0.00000  Uiso   1.00
C80    C     0.83499   0.25003   0.16663   0.00000  Uiso   1.00
C81    C     0.54728   0.23761   0.20851   0.00000  Uiso   1.00
C82    C     0.59339   0.26174   0.12252   0.00000  Uiso   1.00
C83    C     0.90644   0.22466   0.12891   0.00000  Uiso   1.00
C84    C     0.90721   0.27593   0.20269   0.00000  Uiso   1.00
C85    C     0.59341   0.23788   0.20969   0.00000  Uiso   1.00
C86    C     0.61680   0.24991   0.16627   0.00000  Uiso   1.00
C87    C     0.88336   0.25012   0.16612   0.00000  Uiso   1.00
C88    C     0.52430   0.24968   0.16569   0.00000  Uiso   1.00
C89    C     0.97593   0.24999   0.16560   0.00000  Uiso   1.00
C90    C     0.61546   0.27336   0.07523   0.00000  Uiso   1.00
C91    C     0.78368   0.10472   0.18869   0.00000  Uiso   1.00
C92    C     0.88400   0.19930   0.08757   0.00000  Uiso   1.00
C93    C     0.88540   0.30187   0.24371   0.00000  Uiso   1.00
C94    C     0.61547   0.22647   0.25728   0.00000  Uiso   1.00
C95    C     0.72854   0.39526   0.13036   0.00000  Uiso   1.00
C96    C     0.71635   0.10463   0.14461   0.00000  Uiso   1.00
C97    C     0.77151   0.39533   0.20295   0.00000  Uiso   1.00
C98    C     0.78451   0.05400   0.18877   0.00000  Uiso   1.00
C99    C     0.72843   0.44598   0.12945   0.00000  Uiso   1.00
C100   C     0.71555   0.05392   0.14452   0.00000  Uiso   1.00
Cu101  Cu    0.75000   0.29822   0.16667   0.00000  Uiso   1.00
Cu102  Cu    0.75000   0.20179   0.16667   0.00000  Uiso   1.00
H103   H     0.81030   0.12433   0.20623   0.00000  Uiso   1.00
H104   H     0.71193   0.46389   0.09925   0.00000  Uiso   1.00
H105   H     0.68762   0.03594   0.12768   0.00000  Uiso   1.00
H106   H     0.78818   0.46401   0.23404   0.00000  Uiso   1.00
H107   H     0.61178   0.30708   0.00962   0.00000  Uiso   1.00
H108   H     0.88571   0.14489   0.03837   0.00000  Uiso   1.00
H109   H     0.83658   0.30343   0.29374   0.00000  Uiso   1.00
H110   H     0.61188   0.19274   0.32286   0.00000  Uiso   1.00
H111   H     0.71147   0.37561   0.10166   0.00000  Uiso   1.00
H112   H     0.68973   0.12418   0.12705   0.00000  Uiso   1.00
H113   H     0.78859   0.37571   0.23164   0.00000  Uiso   1.00
H114   H     0.52883   0.27092   0.09016   0.00000  Uiso   1.00
H115   H     0.97065   0.20497   0.10172   0.00000  Uiso   1.00
H116   H     0.97189   0.29543   0.22926   0.00000  Uiso   1.00
H117   H     0.52889   0.22845   0.24128   0.00000  Uiso   1.00
H118   H     0.81245   0.03609   0.20559   0.00000  Uiso   1.00
N119   N     0.75000   0.12935   0.16667   0.00000  Uiso   1.00
N120   N     0.75000   0.37066   0.16667   0.00000  Uiso   1.00
O121   O     0.68573   0.29072   0.16667   0.00000  Uiso   1.00
O122   O     0.59374   0.30209   0.04049   0.00000  Uiso   1.00
O123   O     0.84926   0.21458   0.07069   0.00000  Uiso   1.00
O124   O     0.90372   0.15869   0.06657   0.00000  Uiso   1.00
O125   O     0.90132   0.33943   0.25936   0.00000  Uiso   1.00
O126   O     0.84778   0.28266   0.26580   0.00000  Uiso   1.00
O127   O     0.65172   0.24327   0.26723   0.00000  Uiso   1.00
O128   O     0.59387   0.19755   0.29173   0.00000  Uiso   1.00
O129   O     0.81427   0.20929   0.16666   0.00000  Uiso   1.00
O130   O     0.81427   0.29072   0.16666   0.00000  Uiso   1.00
O131   O     0.68573   0.20929   0.16667   0.00000  Uiso   1.00
O132   O     0.75000   0.29071   0.09613   0.00000  Uiso   1.00
O133   O     0.75000   0.20929   0.23720   0.00000  Uiso   1.00
O134   O     0.75000   0.29071   0.23720   0.00000  Uiso   1.00
O135   O     0.75000   0.20929   0.09613   0.00000  Uiso   1.00
O136   O     0.65184   0.25691   0.06579   0.00000  Uiso   1.00
C137   C     0.16507   0.74998   0.16656   0.00000  Uiso   1.00
C138   C     0.27165   0.94604   0.20385   0.00000  Uiso   1.00
C139   C     0.25043   0.74999   0.07353   0.00000  Uiso   1.00
C140   C     0.25031   0.75000   0.25981   0.00000  Uiso   1.00
C141   C     0.25004   0.52733   0.16665   0.00000  Uiso   1.00
C142   C     0.25004   0.97264   0.16665   0.00000  Uiso   1.00
C143   C     0.25051   0.74998   0.02184   0.00000  Uiso   1.00
C144   C     0.25045   0.74999   0.31150   0.00000  Uiso   1.00
C145   C     0.04725   0.76176   0.12312   0.00000  Uiso   1.00
C146   C     0.45259   0.72451   0.12967   0.00000  Uiso   1.00
C147   C     0.45332   0.77583   0.20153   0.00000  Uiso   1.00
C148   C     0.33499   0.75003   0.16663   0.00000  Uiso   1.00
C149   C     0.04728   0.73761   0.20851   0.00000  Uiso   1.00
C150   C     0.09339   0.76174   0.12252   0.00000  Uiso   1.00
C151   C     0.40644   0.72466   0.12891   0.00000  Uiso   1.00
C152   C     0.40721   0.77593   0.20269   0.00000  Uiso   1.00
C153   C     0.09341   0.73788   0.20969   0.00000  Uiso   1.00
C154   C     0.11680   0.74991   0.16627   0.00000  Uiso   1.00
C155   C     0.38336   0.75012   0.16612   0.00000  Uiso   1.00
C156   C     0.02430   0.74968   0.16569   0.00000  Uiso   1.00
C157   C     0.47593   0.74999   0.16560   0.00000  Uiso   1.00
C158   C     0.11546   0.77336   0.07523   0.00000  Uiso   1.00
C159   C     0.28368   0.60472   0.18869   0.00000  Uiso   1.00
C160   C     0.38400   0.69930   0.08757   0.00000  Uiso   1.00
C161   C     0.38540   0.80187   0.24371   0.00000  Uiso   1.00
C162   C     0.11547   0.72647   0.25728   0.00000  Uiso   1.00
C163   C     0.22854   0.89526   0.13036   0.00000  Uiso   1.00
C164   C     0.21635   0.60463   0.14461   0.00000  Uiso   1.00
C165   C     0.27151   0.89533   0.20295   0.00000  Uiso   1.00
C166   C     0.28451   0.55400   0.18877   0.00000  Uiso   1.00
C167   C     0.22843   0.94598   0.12945   0.00000  Uiso   1.00
C168   C     0.21555   0.55392   0.14452   0.00000  Uiso   1.00
Cu169  Cu    0.25000   0.79822   0.16667   0.00000  Uiso   1.00
Cu170  Cu    0.25000   0.70179   0.16667   0.00000  Uiso   1.00
H171   H     0.31030   0.62433   0.20623   0.00000  Uiso   1.00
H172   H     0.21193   0.96389   0.09925   0.00000  Uiso   1.00
H173   H     0.18762   0.53594   0.12768   0.00000  Uiso   1.00
H174   H     0.28818   0.96401   0.23404   0.00000  Uiso   1.00
H175   H     0.11178   0.80708   0.00962   0.00000  Uiso   1.00
H176   H     0.38571   0.64489   0.03837   0.00000  Uiso   1.00
H177   H     0.33658   0.80343   0.29374   0.00000  Uiso   1.00
H178   H     0.11188   0.69274   0.32286   0.00000  Uiso   1.00
H179   H     0.21147   0.87561   0.10166   0.00000  Uiso   1.00
H180   H     0.18973   0.62418   0.12705   0.00000  Uiso   1.00
H181   H     0.28859   0.87571   0.23164   0.00000  Uiso   1.00
H182   H     0.02883   0.77092   0.09016   0.00000  Uiso   1.00
H183   H     0.47065   0.70497   0.10172   0.00000  Uiso   1.00
H184   H     0.47189   0.79543   0.22926   0.00000  Uiso   1.00
H185   H     0.02889   0.72845   0.24128   0.00000  Uiso   1.00
H186   H     0.31245   0.53609   0.20559   0.00000  Uiso   1.00
N187   N     0.25000   0.62935   0.16667   0.00000  Uiso   1.00
N188   N     0.25000   0.87066   0.16667   0.00000  Uiso   1.00
O189   O     0.18573   0.79072   0.16667   0.00000  Uiso   1.00
O190   O     0.09374   0.80209   0.04049   0.00000  Uiso   1.00
O191   O     0.34926   0.71458   0.07069   0.00000  Uiso   1.00
O192   O     0.40372   0.65869   0.06657   0.00000  Uiso   1.00
O193   O     0.40132   0.83943   0.25936   0.00000  Uiso   1.00
O194   O     0.34778   0.78266   0.26580   0.00000  Uiso   1.00
O195   O     0.15172   0.74327   0.26723   0.00000  Uiso   1.00
O196   O     0.09387   0.69755   0.29173   0.00000  Uiso   1.00
O197   O     0.31427   0.70929   0.16666   0.00000  Uiso   1.00
O198   O     0.31427   0.79072   0.16666   0.00000  Uiso   1.00
O199   O     0.18573   0.70929   0.16667   0.00000  Uiso   1.00
O200   O     0.25000   0.79071   0.09613   0.00000  Uiso   1.00
O201   O     0.25000   0.70929   0.23720   0.00000  Uiso   1.00
O202   O     0.25000   0.79071   0.23720   0.00000  Uiso   1.00
O203   O     0.25000   0.70929   0.09613   0.00000  Uiso   1.00
O204   O     0.15184   0.75691   0.06579   0.00000  Uiso   1.00
C205   C     0.66507   0.74998   0.16656   0.00000  Uiso   1.00
C206   C     0.77165   0.94604   0.20385   0.00000  Uiso   1.00
C207   C     0.75043   0.74999   0.07353   0.00000  Uiso   1.00
C208   C     0.75031   0.75000   0.25981   0.00000  Uiso   1.00
C209   C     0.75004   0.52733   0.16665   0.00000  Uiso   1.00
C210   C     0.75004   0.97264   0.16665   0.00000  Uiso   1.00
C211   C     0.75051   0.74998   0.02184   0.00000  Uiso   1.00
C212   C     0.75045   0.74999   0.31150   0.00000  Uiso   1.00
C213   C     0.54725   0.76176   0.12312   0.00000  Uiso   1.00
C214   C     0.95259   0.72451   0.12967   0.00000  Uiso   1.00
C215   C     0.95332   0.77583   0.20153   0.00000  Uiso   1.00
C216   C     0.83499   0.75003   0.16663   0.00000  Uiso   1.00
C217   C     0.54728   0.73761   0.20851   0.00000  Uiso   1.00
C218   C     0.59339   0.76174   0.12252   0.00000  Uiso   1.00
C219   C     0.90644   0.72466   0.12891   0.00000  Uiso   1.00
C220   C     0.90721   0.77593   0.20269   0.00000  Uiso   1.00
C221   C     0.59341   0.73788   0.20969   0.00000  Uiso   1.00
C222   C     0.61680   0.74991   0.16627   0.00000  Uiso   1.00
C223   C     0.88336   0.75012   0.16612   0.00000  Uiso   1.00
C224   C     0.52430   0.74968   0.16569   0.00000  Uiso   1.00
C225   C     0.97593   0.74999   0.16560   0.00000  Uiso   1.00
C226   C     0.61546   0.77336   0.07523   0.00000  Uiso   1.00
C227   C     0.78368   0.60472   0.18869   0.00000  Uiso   1.00
C228   C     0.88400   0.69930   0.08757   0.00000  Uiso   1.00
C229   C     0.88540   0.80187   0.24371   0.00000  Uiso   1.00
C230   C     0.61547   0.72647   0.25728   0.00000  Uiso   1.00
C231   C     0.72854   0.89526   0.13036   0.00000  Uiso   1.00
C232   C     0.71635   0.60463   0.14461   0.00000  Uiso   1.00
C233   C     0.77151   0.89533   0.20295   0.00000  Uiso   1.00
C234   C     0.78451   0.55400   0.18877   0.00000  Uiso   1.00
C235   C     0.72843   0.94598   0.12945   0.00000  Uiso   1.00
C236   C     0.71555   0.55392   0.14452   0.00000  Uiso   1.00
Cu237  Cu    0.75000   0.79822   0.16667   0.00000  Uiso   1.00
Cu238  Cu    0.75000   0.70179   0.16667   0.00000  Uiso   1.00
H239   H     0.81030   0.62433   0.20623   0.00000  Uiso   1.00
H240   H     0.71193   0.96389   0.09925   0.00000  Uiso   1.00
H241   H     0.68762   0.53594   0.12768   0.00000  Uiso   1.00
H242   H     0.78818   0.96401   0.23404   0.00000  Uiso   1.00
H243   H     0.61178   0.80708   0.00962   0.00000  Uiso   1.00
H244   H     0.88571   0.64489   0.03837   0.00000  Uiso   1.00
H245   H     0.83658   0.80343   0.29374   0.00000  Uiso   1.00
H246   H     0.61188   0.69274   0.32286   0.00000  Uiso   1.00
H247   H     0.71147   0.87561   0.10166   0.00000  Uiso   1.00
H248   H     0.68973   0.62418   0.12705   0.00000  Uiso   1.00
H249   H     0.78859   0.87571   0.23164   0.00000  Uiso   1.00
H250   H     0.52883   0.77092   0.09016   0.00000  Uiso   1.00
H251   H     0.97065   0.70497   0.10172   0.00000  Uiso   1.00
H252   H     0.97189   0.79543   0.22926   0.00000  Uiso   1.00
H253   H     0.52889   0.72845   0.24128   0.00000  Uiso   1.00
H254   H     0.81245   0.53609   0.20559   0.00000  Uiso   1.00
N255   N     0.75000   0.62935   0.16667   0.00000  Uiso   1.00
N256   N     0.75000   0.87066   0.16667   0.00000  Uiso   1.00
O257   O     0.68573   0.79072   0.16667   0.00000  Uiso   1.00
O258   O     0.59374   0.80209   0.04049   0.00000  Uiso   1.00
O259   O     0.84926   0.71458   0.07069   0.00000  Uiso   1.00
O260   O     0.90372   0.65869   0.06657   0.00000  Uiso   1.00
O261   O     0.90132   0.83943   0.25936   0.00000  Uiso   1.00
O262   O     0.84778   0.78266   0.26580   0.00000  Uiso   1.00
O263   O     0.65172   0.74327   0.26723   0.00000  Uiso   1.00
O264   O     0.59387   0.69755   0.29173   0.00000  Uiso   1.00
O265   O     0.81427   0.70929   0.16666   0.00000  Uiso   1.00
O266   O     0.81427   0.79072   0.16666   0.00000  Uiso   1.00
O267   O     0.68573   0.70929   0.16667   0.00000  Uiso   1.00
O268   O     0.75000   0.79071   0.09613   0.00000  Uiso   1.00
O269   O     0.75000   0.70929   0.23720   0.00000  Uiso   1.00
O270   O     0.75000   0.79071   0.23720   0.00000  Uiso   1.00
O271   O     0.75000   0.70929   0.09613   0.00000  Uiso   1.00
O272   O     0.65184   0.75691   0.06579   0.00000  Uiso   1.00
C273   C     0.16507   0.24998   0.49989   0.00000  Uiso   1.00
C274   C     0.27165   0.44604   0.53718   0.00000  Uiso   1.00
C275   C     0.25043   0.24999   0.40686   0.00000  Uiso   1.00
C276   C     0.25031   0.25000   0.59315   0.00000  Uiso   1.00
C277   C     0.25004   0.02733   0.49998   0.00000  Uiso   1.00
C278   C     0.25004   0.47264   0.49998   0.00000  Uiso   1.00
C279   C     0.25051   0.24998   0.35518   0.00000  Uiso   1.00
C280   C     0.25045   0.24999   0.64483   0.00000  Uiso   1.00
C281   C     0.04725   0.26176   0.45646   0.00000  Uiso   1.00
C282   C     0.45259   0.22451   0.46300   0.00000  Uiso   1.00
C283   C     0.45332   0.27583   0.53487   0.00000  Uiso   1.00
C284   C     0.33499   0.25003   0.49996   0.00000  Uiso   1.00
C285   C     0.04728   0.23761   0.54184   0.00000  Uiso   1.00
C286   C     0.09339   0.26174   0.45585   0.00000  Uiso   1.00
C287   C     0.40644   0.22466   0.46224   0.00000  Uiso   1.00
C288   C     0.40721   0.27593   0.53602   0.00000  Uiso   1.00
C289   C     0.09341   0.23788   0.54302   0.00000  Uiso   1.00
C290   C     0.11680   0.24991   0.49960   0.00000  Uiso   1.00
C291   C     0.38336   0.25012   0.49946   0.00000  Uiso   1.00
C292   C     0.02430   0.24968   0.49903   0.00000  Uiso   1.00
C293   C     0.47593   0.24999   0.49894   0.00000  Uiso   1.00
C294   C     0.11546   0.27336   0.40856   0.00000  Uiso   1.00
C295   C     0.28368   0.10472   0.52202   0.00000  Uiso   1.00
C296   C     0.38400   0.19930   0.42090   0.00000  Uiso   1.00
C297   C     0.38540   0.30187   0.57704   0.00000  Uiso   1.00
C298   C     0.11547   0.22647   0.59062   0.00000  Uiso   1.00
C299   C     0.22854   0.39526   0.46369   0.00000  Uiso   1.00
C300   C     0.21635   0.10463   0.47794   0.00000  Uiso   1.00
C301   C     0.27151   0.39533   0.53629   0.00000  Uiso   1.00
C302   C     0.28451   0.05400   0.52210   0.00000  Uiso   1.00
C303   C     0.22843   0.44598   0.46278   0.00000  Uiso   1.00
C304   C     0.21555   0.05392   0.47785   0.00000  Uiso   1.00
Cu305  Cu    0.25000   0.29822   0.50000   0.00000  Uiso   1.00
Cu306  Cu    0.25000   0.20179   0.50000   0.00000  Uiso   1.00
H307   H     0.31030   0.12433   0.53957   0.00000  Uiso   1.00
H308   H     0.21193   0.46389   0.43258   0.00000  Uiso   1.00
H309   H     0.18762   0.03594   0.46101   0.00000  Uiso   1.00
H310   H     0.28818   0.46401   0.56737   0.00000  Uiso   1.00
H311   H     0.11178   0.30708   0.34296   0.00000  Uiso   1.00
H312   H     0.38571   0.14489   0.37171   0.00000  Uiso   1.00
H313   H     0.33658   0.30343   0.62708   0.00000  Uiso   1.00
H314   H     0.11188   0.19274   0.65619   0.00000  Uiso   1.00
H315   H     0.21147   0.37561   0.43499   0.00000  Uiso   1.00
H316   H     0.18973   0.12418   0.46038   0.00000  Uiso   1.00
H317   H     0.28859   0.37571   0.56497   0.00000  Uiso   1.00
H318   H     0.02883   0.27092   0.42350   0.00000  Uiso   1.00
H319   H     0.47065   0.20497   0.43505   0.00000  Uiso   1.00
H320   H     0.47189   0.29543   0.56259   0.00000  Uiso   1.00
H321   H     0.02889   0.22845   0.57461   0.00000  Uiso   1.00
H322   H     0.31245   0.03609   0.53893   0.00000  Uiso   1.00
N323   N     0.25000   0.12935   0.50000   0.00000  Uiso   1.00
N324   N     0.25000   0.37066   0.50000   0.00000  Uiso   1.00
O325   O     0.18573   0.29072   0.50000   0.00000  Uiso   1.00
O326   O     0.09374   0.30209   0.37382   0.00000  Uiso   1.00
O327   O     0.34926   0.21458   0.40402   0.00000  Uiso   1.00
O328   O     0.40372   0.15869   0.39991   0.00000  Uiso   1.00
O329   O     0.40132   0.33943   0.59269   0.00000  Uiso   1.00
O330   O     0.34778   0.28266   0.59913   0.00000  Uiso   1.00
O331   O     0.15172   0.24327   0.60056   0.00000  Uiso   1.00
O332   O     0.09387   0.19755   0.62506   0.00000  Uiso   1.00
O333   O     0.31427   0.20929   0.50000   0.00000  Uiso   1.00
O334   O     0.31427   0.29072   0.50000   0.00000  Uiso   1.00
O335   O     0.18573   0.20929   0.50000   0.00000  Uiso   1.00
O336   O     0.25000   0.29071   0.42946   0.00000  Uiso   1.00
O337   O     0.25000   0.20929   0.57054   0.00000  Uiso   1.00
O338   O     0.25000   0.29071   0.57054   0.00000  Uiso   1.00
O339   O     0.25000   0.20929   0.42946   0.00000  Uiso   1.00
O340   O     0.15184   0.25691   0.39912   0.00000  Uiso   1.00
C341   C     0.66507   0.24998   0.49989   0.00000  Uiso   1.00
C342   C     0.77165   0.44604   0.53718   0.00000  Uiso   1.00
C343   C     0.75043   0.24999   0.40686   0.00000  Uiso   1.00
C344   C     0.75031   0.25000   0.59315   0.00000  Uiso   1.00
C345   C     0.75004   0.02733   0.49998   0.00000  Uiso   1.00
C346   C     0.75004   0.47264   0.49998   0.00000  Uiso   1.00
C347   C     0.75051   0.24998   0.35518   0.00000  Uiso   1.00
C348   C     0.75045   0.24999   0.64483   0.00000  Uiso   1.00
C349   C     0.54725   0.26176   0.45646   0.00000  Uiso   1.00
C350   C     0.95259   0.22451   0.46300   0.00000  Uiso   1.00
C351   C     0.95332   0.27583   0.53487   0.00000  Uiso   1.00
C352   C     0.83499   0.25003   0.49996   0.00000  Uiso   1.00
C353   C     0.54728   0.23761   0.54184   0.00000  Uiso   1.00
C354   C     0.59339   0.26174   0.45585   0.00000  Uiso   1.00
C355   C     0.90644   0.22466   0.46224   0.00000  Uiso   1.00
C356   C     0.90721   0.27593   0.53602   0.00000  Uiso   1.00
C357   C     0.59341   0.23788   0.54302   0.00000  Uiso   1.00
C358   C     0.61680   0.24991   0.49960   0.00000  Uiso   1.00
C359   C     0.88336   0.25012   0.49946   0.00000  Uiso   1.00
C360   C     0.52430   0.24968   0.49903   0.00000  Uiso   1.00
C361   C     0.97593   0.24999   0.49894   0.00000  Uiso   1.00
C362   C     0.61546   0.27336   0.40856   0.00000  Uiso   1.00
C363   C     0.78368   0.10472   0.52202   0.00000  Uiso   1.00
C364   C     0.88400   0.19930   0.42090   0.00000  Uiso   1.00
C365   C     0.88540   0.30187   0.57704   0.00000  Uiso   1.00
C366   C     0.61547   0.22647   0.59062   0.00000  Uiso   1.00
C367   C     0.72854   0.39526   0.46369   0.00000  Uiso   1.00
C368   C     0.71635   0.10463   0.47794   0.00000  Uiso   1.00
C369   C     0.77151   0.39533   0.53629   0.00000  Uiso   1.00
C370   C     0.78451   0.05400   0.52210   0.00000  Uiso   1.00
C371   C     0.72843   0.44598   0.46278   0.00000  Uiso   1.00
C372   C     0.71555   0.05392   0.47785   0.00000  Uiso   1.00
Cu373  Cu    0.75000   0.29822   0.50000   0.00000  Uiso   1.00
Cu374  Cu    0.75000   0.20179   0.50000   0.00000  Uiso   1.00
H375   H     0.81030   0.12433   0.53957   0.00000  Uiso   1.00
H376   H     0.71193   0.46389   0.43258   0.00000  Uiso   1.00
H377   H     0.68762   0.03594   0.46101   0.00000  Uiso   1.00
H378   H     0.78818   0.46401   0.56737   0.00000  Uiso   1.00
H379   H     0.61178   0.30708   0.34296   0.00000  Uiso   1.00
H380   H     0.88571   0.14489   0.37171   0.00000  Uiso   1.00
H381   H     0.83658   0.30343   0.62708   0.00000  Uiso   1.00
H382   H     0.61188   0.19274   0.65619   0.00000  Uiso   1.00
H383   H     0.71147   0.37561   0.43499   0.00000  Uiso   1.00
H384   H     0.68973   0.12418   0.46038   0.00000  Uiso   1.00
H385   H     0.78859   0.37571   0.56497   0.00000  Uiso   1.00
H386   H     0.52883   0.27092   0.42350   0.00000  Uiso   1.00
H387   H     0.97065   0.20497   0.43505   0.00000  Uiso   1.00
H388   H     0.97189   0.29543   0.56259   0.00000  Uiso   1.00
H389   H     0.52889   0.22845   0.57461   0.00000  Uiso   1.00
H390   H     0.81245   0.03609   0.53893   0.00000  Uiso   1.00
N391   N     0.75000   0.12935   0.50000   0.00000  Uiso   1.00
N392   N     0.75000   0.37066   0.50000   0.00000  Uiso   1.00
O393   O     0.68573   0.29072   0.50000   0.00000  Uiso   1.00
O394   O     0.59374   0.30209   0.37382   0.00000  Uiso   1.00
O395   O     0.84926   0.21458   0.40402   0.00000  Uiso   1.00
O396   O     0.90372   0.15869   0.39991   0.00000  Uiso   1.00
O397   O     0.90132   0.33943   0.59269   0.00000  Uiso   1.00
O398   O     0.84778   0.28266   0.59913   0.00000  Uiso   1.00
O399   O     0.65172   0.24327   0.60056   0.00000  Uiso   1.00
O400   O     0.59387   0.19755   0.62506   0.00000  Uiso   1.00
O401   O     0.81427   0.20929   0.50000   0.00000  Uiso   1.00
O402   O     0.81427   0.29072   0.50000   0.00000  Uiso   1.00
O403   O     0.68573   0.20929   0.50000   0.00000  Uiso   1.00
O404   O     0.75000   0.29071   0.42946   0.00000  Uiso   1.00
O405   O     0.75000   0.20929   0.57054   0.00000  Uiso   1.00
O406   O     0.75000   0.29071   0.57054   0.00000  Uiso   1.00
O407   O     0.75000   0.20929   0.42946   0.00000  Uiso   1.00
O408   O     0.65184   0.25691   0.39912   0.00000  Uiso   1.00
C409   C     0.16507   0.74998   0.49989   0.00000  Uiso   1.00
C410   C     0.27165   0.94604   0.53718   0.00000  Uiso   1.00
C411   C     0.25043   0.74999   0.40686   0.00000  Uiso   1.00
C412   C     0.25031   0.75000   0.59315   0.00000  Uiso   1.00
C413   C     0.25004   0.52733   0.49998   0.00000  Uiso   1.00
C414   C     0.25004   0.97264   0.49998   0.00000  Uiso   1.00
C415   C     0.25051   0.74998   0.35518   0.00000  Uiso   1.00
C416   C     0.25045   0.74999   0.64483   0.00000  Uiso   1.00
C417   C     0.04725   0.76176   0.45646   0.00000  Uiso   1.00
C418   C     0.45259   0.72451   0.46300   0.00000  Uiso   1.00
C419   C     0.45332   0.77583   0.53487   0.00000  Uiso   1.00
C420   C     0.33499   0.75003   0.49996   0.00000  Uiso   1.00
C421   C     0.04728   0.73761   0.54184   0.00000  Uiso   1.00
C422   C     0.09339   0.76174   0.45585   0.00000  Uiso   1.00
C423   C     0.40644   0.72466   0.46224   0.00000  Uiso   1.00
C424   C     0.40721   0.77593   0.53602   0.00000  Uiso   1.00
C425   C     0.09341   0.73788   0.54302   0.00000  Uiso   1.00
C426   C     0.11680   0.74991   0.49960   0.00000  Uiso   1.00
C427   C     0.38336   0.75012   0.49946   0.00000  Uiso   1.00
C428   C     0.02430   0.74968   0.49903   0.00000  Uiso   1.00
C429   C     0.47593   0.74999   0.49894   0.00000  Uiso   1.00
C430   C     0.11546   0.77336   0.40856   0.00000  Uiso   1.00
C431   C     0.28368   0.60472   0.52202   0.00000  Uiso   1.00
C432   C     0.38400   0.69930   0.42090   0.00000  Uiso   1.00
C433   C     0.38540   0.80187   0.57704   0.00000  Uiso   1.00
C434   C     0.11547   0.72647   0.59062   0.00000  Uiso   1.00
C435   C     0.22854   0.89526   0.46369   0.00000  Uiso   1.00
C436   C     0.21635   0.60463   0.47794   0.00000  Uiso   1.00
C437   C     0.27151   0.89533   0.53629   0.00000  Uiso   1.00
C438   C     0.28451   0.55400   0.52210   0.00000  Uiso   1.00
C439   C     0.22843   0.94598   0.46278   0.00000  Uiso   1.00
C440   C     0.21555   0.55392   0.47785   0.00000  Uiso   1.00
Cu441  Cu    0.25000   0.79822   0.50000   0.00000  Uiso   1.00
Cu442  Cu    0.25000   0.70179   0.50000   0.00000  Uiso   1.00
H443   H     0.31030   0.62433   0.53957   0.00000  Uiso   1.00
H444   H     0.21193   0.96389   0.43258   0.00000  Uiso   1.00
H445   H     0.18762   0.53594   0.46101   0.00000  Uiso   1.00
H446   H     0.28818   0.96401   0.56737   0.00000  Uiso   1.00
H447   H     0.11178   0.80708   0.34296   0.00000  Uiso   1.00
H448   H     0.38571   0.64489   0.37171   0.00000  Uiso   1.00
H449   H     0.33658   0.80343   0.62708   0.00000  Uiso   1.00
H450   H     0.11188   0.69274   0.65619   0.00000  Uiso   1.00
H451   H     0.21147   0.87561   0.43499   0.00000  Uiso   1.00
H452   H     0.18973   0.62418   0.46038   0.00000  Uiso   1.00
H453   H     0.28859   0.87571   0.56497   0.00000  Uiso   1.00
H454   H     0.02883   0.77092   0.42350   0.00000  Uiso   1.00
H455   H     0.47065   0.70497   0.43505   0.00000  Uiso   1.00
H456   H     0.47189   0.79543   0.56259   0.00000  Uiso   1.00
H457   H     0.02889   0.72845   0.57461   0.00000  Uiso   1.00
H458   H     0.31245   0.53609   0.53893   0.00000  Uiso   1.00
N459   N     0.25000   0.62935   0.50000   0.00000  Uiso   1.00
N460   N     0.25000   0.87066   0.50000   0.00000  Uiso   1.00
O461   O     0.18573   0.79072   0.50000   0.00000  Uiso   1.00
O462   O     0.09374   0.80209   0.37382   0.00000  Uiso   1.00
O463   O     0.34926   0.71458   0.40402   0.00000  Uiso   1.00
O464   O     0.40372   0.65869   0.39991   0.00000  Uiso   1.00
O465   O     0.40132   0.83943   0.59269   0.00000  Uiso   1.00
O466   O     0.34778   0.78266   0.59913   0.00000  Uiso   1.00
O467   O     0.15172   0.74327   0.60056   0.00000  Uiso   1.00
O468   O     0.09387   0.69755   0.62506   0.00000  Uiso   1.00
O469   O     0.31427   0.70929   0.50000   0.00000  Uiso   1.00
O470   O     0.31427   0.79072   0.50000   0.00000  Uiso   1.00
O471   O     0.18573   0.70929   0.50000   0.00000  Uiso   1.00
O472   O     0.25000   0.79071   0.42946   0.00000  Uiso   1.00
O473   O     0.25000   0.70929   0.57054   0.00000  Uiso   1.00
O474   O     0.25000   0.79071   0.57054   0.00000  Uiso   1.00
O475   O     0.25000   0.70929   0.42946   0.00000  Uiso   1.00
O476   O     0.15184   0.75691   0.39912   0.00000  Uiso   1.00
C477   C     0.66507   0.74998   0.49989   0.00000  Uiso   1.00
C478   C     0.77165   0.94604   0.53718   0.00000  Uiso   1.00
C479   C     0.75043   0.74999   0.40686   0.00000  Uiso   1.00
C480   C     0.75031   0.75000   0.59315   0.00000  Uiso   1.00
C481   C     0.75004   0.52733   0.49998   0.00000  Uiso   1.00
C482   C     0.75004   0.97264   0.49998   0.00000  Uiso   1.00
C483   C     0.75051   0.74998   0.35518   0.00000  Uiso   1.00
C484   C     0.75045   0.74999   0.64483   0.00000  Uiso   1.00
C485   C     0.54725   0.76176   0.45646   0.00000  Uiso   1.00
C486   C     0.95259   0.72451   0.46300   0.00000  Uiso   1.00
C487   C     0.95332   0.77583   0.53487   0.00000  Uiso   1.00
C488   C     0.83499   0.75003   0.49996   0.00000  Uiso   1.00
C489   C     0.54728   0.73761   0.54184   0.00000  Uiso   1.00
C490   C     0.59339   0.76174   0.45585   0.00000  Uiso   1.00
C491   C     0.90644   0.72466   0.46224   0.00000  Uiso   1.00
C492   C     0.90721   0.77593   0.53602   0.00000  Uiso   1.00
C493   C     0.59341   0.73788   0.54302   0.00000  Uiso   1.00
C494   C     0.61680   0.74991   0.49960   0.00000  Uiso   1.00
C495   C     0.88336   0.75012   0.49946   0.00000  Uiso   1.00
C496   C     0.52430   0.74968   0.49903   0.00000  Uiso   1.00
C497   C     0.97593   0.74999   0.49894   0.00000  Uiso   1.00
C498   C     0.61546   0.77336   0.40856   0.00000  Uiso   1.00
C499   C     0.78368   0.60472   0.52202   0.00000  Uiso   1.00
C500   C     0.88400   0.69930   0.42090   0.00000  Uiso   1.00
C501   C     0.88540   0.80187   0.57704   0.00000  Uiso   1.00
C502   C     0.61547   0.72647   0.59062   0.00000  Uiso   1.00
C503   C     0.72854   0.89526   0.46369   0.00000  Uiso   1.00
C504   C     0.71635   0.60463   0.47794   0.00000  Uiso   1.00
C505   C     0.77151   0.89533   0.53629   0.00000  Uiso   1.00
C506   C     0.78451   0.55400   0.52210   0.00000  Uiso   1.00
C507   C     0.72843   0.94598   0.46278   0.00000  Uiso   1.00
C508   C     0.71555   0.55392   0.47785   0.00000  Uiso   1.00
Cu509  Cu    0.75000   0.79822   0.50000   0.00000  Uiso   1.00
Cu510  Cu    0.75000   0.70179   0.50000   0.00000  Uiso   1.00
H511   H     0.81030   0.62433   0.53957   0.00000  Uiso   1.00
H512   H     0.71193   0.96389   0.43258   0.00000  Uiso   1.00
H513   H     0.68762   0.53594   0.46101   0.00000  Uiso   1.00
H514   H     0.78818   0.96401   0.56737   0.00000  Uiso   1.00
H515   H     0.61178   0.80708   0.34296   0.00000  Uiso   1.00
H516   H     0.88571   0.64489   0.37171   0.00000  Uiso   1.00
H517   H     0.83658   0.80343   0.62708   0.00000  Uiso   1.00
H518   H     0.61188   0.69274   0.65619   0.00000  Uiso   1.00
H519   H     0.71147   0.87561   0.43499   0.00000  Uiso   1.00
H520   H     0.68973   0.62418   0.46038   0.00000  Uiso   1.00
H521   H     0.78859   0.87571   0.56497   0.00000  Uiso   1.00
H522   H     0.52883   0.77092   0.42350   0.00000  Uiso   1.00
H523   H     0.97065   0.70497   0.43505   0.00000  Uiso   1.00
H524   H     0.97189   0.79543   0.56259   0.00000  Uiso   1.00
H525   H     0.52889   0.72845   0.57461   0.00000  Uiso   1.00
H526   H     0.81245   0.53609   0.53893   0.00000  Uiso   1.00
N527   N     0.75000   0.62935   0.50000   0.00000  Uiso   1.00
N528   N     0.75000   0.87066   0.50000   0.00000  Uiso   1.00
O529   O     0.68573   0.79072   0.50000   0.00000  Uiso   1.00
O530   O     0.59374   0.80209   0.37382   0.00000  Uiso   1.00
O531   O     0.84926   0.71458   0.40402   0.00000  Uiso   1.00
O532   O     0.90372   0.65869   0.39991   0.00000  Uiso   1.00
O533   O     0.90132   0.83943   0.59269   0.00000  Uiso   1.00
O534   O     0.84778   0.78266   0.59913   0.00000  Uiso   1.00
O535   O     0.65172   0.74327   0.60056   0.00000  Uiso   1.00
O536   O     0.59387   0.69755   0.62506   0.00000  Uiso   1.00
O537   O     0.81427   0.70929   0.50000   0.00000  Uiso   1.00
O538   O     0.81427   0.79072   0.50000   0.00000  Uiso   1.00
O539   O     0.68573   0.70929   0.50000   0.00000  Uiso   1.00
O540   O     0.75000   0.79071   0.42946   0.00000  Uiso   1.00
O541   O     0.75000   0.70929   0.57054   0.00000  Uiso   1.00
O542   O     0.75000   0.79071   0.57054   0.00000  Uiso   1.00
O543   O     0.75000   0.70929   0.42946   0.00000  Uiso   1.00
O544   O     0.65184   0.75691   0.39912   0.00000  Uiso   1.00
C545   C     0.16507   0.24998   0.83323   0.00000  Uiso   1.00
C546   C     0.27165   0.44604   0.87051   0.00000  Uiso   1.00
C547   C     0.25043   0.24999   0.74019   0.00000  Uiso   1.00
C548   C     0.25031   0.25000   0.92648   0.00000  Uiso   1.00
C549   C     0.25004   0.02733   0.83331   0.00000  Uiso   1.00
C550   C     0.25004   0.47264   0.83332   0.00000  Uiso   1.00
C551   C     0.25051   0.24998   0.68851   0.00000  Uiso   1.00
C552   C     0.25045   0.24999   0.97817   0.00000  Uiso   1.00
C553   C     0.04725   0.26176   0.78979   0.00000  Uiso   1.00
C554   C     0.45259   0.22451   0.79633   0.00000  Uiso   1.00
C555   C     0.45332   0.27583   0.86820   0.00000  Uiso   1.00
C556   C     0.33499   0.25003   0.83330   0.00000  Uiso   1.00
C557   C     0.04728   0.23761   0.87517   0.00000  Uiso   1.00
C558   C     0.09339   0.26174   0.78919   0.00000  Uiso   1.00
C559   C     0.40644   0.22466   0.79557   0.00000  Uiso   1.00
C560   C     0.40721   0.27593   0.86936   0.00000  Uiso   1.00
C561   C     0.09341   0.23788   0.87636   0.00000  Uiso   1.00
C562   C     0.11680   0.24991   0.83293   0.00000  Uiso   1.00
C563   C     0.38336   0.25012   0.83279   0.00000  Uiso   1.00
C564   C     0.02430   0.24968   0.83236   0.00000  Uiso   1.00
C565   C     0.47593   0.24999   0.83227   0.00000  Uiso   1.00
C566   C     0.11546   0.27336   0.74189   0.00000  Uiso   1.00
C567   C     0.28368   0.10472   0.85535   0.00000  Uiso   1.00
C568   C     0.38400   0.19930   0.75424   0.00000  Uiso   1.00
C569   C     0.38540   0.30187   0.91038   0.00000  Uiso   1.00
C570   C     0.11547   0.22647   0.92395   0.00000  Uiso   1.00
C571   C     0.22854   0.39526   0.79702   0.00000  Uiso   1.00
C572   C     0.21635   0.10463   0.81128   0.00000  Uiso   1.00
C573   C     0.27151   0.39533   0.86962   0.00000  Uiso   1.00
C574   C     0.28451   0.05400   0.85544   0.00000  Uiso   1.00
C575   C     0.22843   0.44598   0.79612   0.00000  Uiso   1.00
C576   C     0.21555   0.05392   0.81118   0.00000  Uiso   1.00
Cu577  Cu    0.25000   0.29822   0.83333   0.00000  Uiso   1.00
Cu578  Cu    0.25000   0.20179   0.83333   0.00000  Uiso   1.00
H579   H     0.31030   0.12433   0.87290   0.00000  Uiso   1.00
H580   H     0.21193   0.46389   0.76591   0.00000  Uiso   1.00
H581   H     0.18762   0.03594   0.79435   0.00000  Uiso   1.00
H582   H     0.28818   0.46401   0.90070   0.00000  Uiso   1.00
H583   H     0.11178   0.30708   0.67629   0.00000  Uiso   1.00
H584   H     0.38571   0.14489   0.70504   0.00000  Uiso   1.00
H585   H     0.33658   0.30343   0.96041   0.00000  Uiso   1.00
H586   H     0.11188   0.19274   0.98952   0.00000  Uiso   1.00
H587   H     0.21147   0.37561   0.76833   0.00000  Uiso   1.00
H588   H     0.18973   0.12418   0.79372   0.00000  Uiso   1.00
H589   H     0.28859   0.37571   0.89831   0.00000  Uiso   1.00
H590   H     0.02883   0.27092   0.75683   0.00000  Uiso   1.00
H591   H     0.47065   0.20497   0.76838   0.00000  Uiso   1.00
H592   H     0.47189   0.29543   0.89592   0.00000  Uiso   1.00
H593   H     0.02889   0.22845   0.90795   0.00000  Uiso   1.00
H594   H     0.31245   0.03609   0.87226   0.00000  Uiso   1.00
N595   N     0.25000   0.12935   0.83333   0.00000  Uiso   1.00
N596   N     0.25000   0.37066   0.83333   0.00000  Uiso   1.00
O597   O     0.18573   0.29072   0.83334   0.00000  Uiso   1.00
O598   O     0.09374   0.30209   0.70716   0.00000  Uiso   1.00
O599   O     0.34926   0.21458   0.73736   0.00000  Uiso   1.00
O600   O     0.40372   0.15869   0.73324   0.00000  Uiso   1.00
O601   O     0.40132   0.33943   0.92603   0.00000  Uiso   1.00
O602   O     0.34778   0.28266   0.93247   0.00000  Uiso   1.00
O603   O     0.15172   0.24327   0.93389   0.00000  Uiso   1.00
O604   O     0.09387   0.19755   0.95840   0.00000  Uiso   1.00
O605   O     0.31427   0.20929   0.83333   0.00000  Uiso   1.00
O606   O     0.31427   0.29072   0.83333   0.00000  Uiso   1.00
O607   O     0.18573   0.20929   0.83334   0.00000  Uiso   1.00
O608   O     0.25000   0.29071   0.76280   0.00000  Uiso   1.00
O609   O     0.25000   0.20929   0.90387   0.00000  Uiso   1.00
O610   O     0.25000   0.29071   0.90387   0.00000  Uiso   1.00
O611   O     0.25000   0.20929   0.76280   0.00000  Uiso   1.00
O612   O     0.15184   0.25691   0.73245   0.00000  Uiso   1.00
C613   C     0.66507   0.24998   0.83323   0.00000  Uiso   1.00
C614   C     0.77165   0.44604   0.87051   0.00000  Uiso   1.00
C615   C     0.75043   0.24999   0.74019   0.00000  Uiso   1.00
C616   C     0.75031   0.25000   0.92648   0.00000  Uiso   1.00
C617   C     0.75004   0.02733   0.83331   0.00000  Uiso   1.00
C618   C     0.75004   0.47264   0.83332   0.00000  Uiso   1.00
C619   C     0.75051   0.24998   0.68851   0.00000  Uiso   1.00
C620   C     0.75045   0.24999   0.97817   0.00000  Uiso   1.00
C621   C     0.54725   0.26176   0.78979   0.00000  Uiso   1.00
C622   C     0.95259   0.22451   0.79633   0.00000  Uiso   1.00
C623   C     0.95332   0.27583   0.86820   0.00000  Uiso   1.00
C624   C     0.83499   0.25003   0.83330   0.00000  Uiso   1.00
C625   C     0.54728   0.23761   0.87517   0.00000  Uiso   1.00
C626   C     0.59339   0.26174   0.78919   0.00000  Uiso   1.00
C627   C     0.90644   0.22466   0.79557   0.00000  Uiso   1.00
C628   C     0.90721   0.27593   0.86936   0.00000  Uiso   1.00
C629   C     0.59341   0.23788   0.87636   0.00000  Uiso   1.00
C630   C     0.61680   0.24991   0.83293   0.00000  Uiso   1.00
C631   C     0.88336   0.25012   0.83279   0.00000  Uiso   1.00
C632   C     0.52430   0.24968   0.83236   0.00000  Uiso   1.00
C633   C     0.97593   0.24999   0.83227   0.00000  Uiso   1.00
C634   C     0.61546   0.27336   0.74189   0.00000  Uiso   1.00
C635   C     0.78368   0.10472   0.85535   0.00000  Uiso   1.00
C636   C     0.88400   0.19930   0.75424   0.00000  Uiso   1.00
C637   C     0.88540   0.30187   0.91038   0.00000  Uiso   1.00
C638   C     0.61547   0.22647   0.92395   0.00000  Uiso   1.00
C639   C     0.72854   0.39526   0.79702   0.00000  Uiso   1.00
C640   C     0.71635   0.10463   0.81128   0.00000  Uiso   1.00
C641   C     0.77151   0.39533   0.86962   0.00000  Uiso   1.00
C642   C     0.78451   0.05400   0.85544   0.00000  Uiso   1.00
C643   C     0.72843   0.44598   0.79612   0.00000  Uiso   1.00
C644   C     0.71555   0.05392   0.81118   0.00000  Uiso   1.00
Cu645  Cu    0.75000   0.29822   0.83333   0.00000  Uiso   1.00
Cu646  Cu    0.75000   0.20179   0.83333   0.00000  Uiso   1.00
H647   H     0.81030   0.12433   0.87290   0.00000  Uiso   1.00
H648   H     0.71193   0.46389   0.76591   0.00000  Uiso   1.00
H649   H     0.68762   0.03594   0.79435   0.00000  Uiso   1.00
H650   H     0.78818   0.46401   0.90070   0.00000  Uiso   1.00
H651   H     0.61178   0.30708   0.67629   0.00000  Uiso   1.00
H652   H     0.88571   0.14489   0.70504   0.00000  Uiso   1.00
H653   H     0.83658   0.30343   0.96041   0.00000  Uiso   1.00
H654   H     0.61188   0.19274   0.98952   0.00000  Uiso   1.00
H655   H     0.71147   0.37561   0.76833   0.00000  Uiso   1.00
H656   H     0.68973   0.12418   0.79372   0.00000  Uiso   1.00
H657   H     0.78859   0.37571   0.89831   0.00000  Uiso   1.00
H658   H     0.52883   0.27092   0.75683   0.00000  Uiso   1.00
H659   H     0.97065   0.20497   0.76838   0.00000  Uiso   1.00
H660   H     0.97189   0.29543   0.89592   0.00000  Uiso   1.00
H661   H     0.52889   0.22845   0.90795   0.00000  Uiso   1.00
H662   H     0.81245   0.03609   0.87226   0.00000  Uiso   1.00
N663   N     0.75000   0.12935   0.83333   0.00000  Uiso   1.00
N664   N     0.75000   0.37066   0.83333   0.00000  Uiso   1.00
O665   O     0.68573   0.29072   0.83334   0.00000  Uiso   1.00
O666   O     0.59374   0.30209   0.70716   0.00000  Uiso   1.00
O667   O     0.84926   0.21458   0.73736   0.00000  Uiso   1.00
O668   O     0.90372   0.15869   0.73324   0.00000  Uiso   1.00
O669   O     0.90132   0.33943   0.92603   0.00000  Uiso   1.00
O670   O     0.84778   0.28266   0.93247   0.00000  Uiso   1.00
O671   O     0.65172   0.24327   0.93389   0.00000  Uiso   1.00
O672   O     0.59387   0.19755   0.95840   0.00000  Uiso   1.00
O673   O     0.81427   0.20929   0.83333   0.00000  Uiso   1.00
O674   O     0.81427   0.29072   0.83333   0.00000  Uiso   1.00
O675   O     0.68573   0.20929   0.83334   0.00000  Uiso   1.00
O676   O     0.75000   0.29071   0.76280   0.00000  Uiso   1.00
O677   O     0.75000   0.20929   0.90387   0.00000  Uiso   1.00
O678   O     0.75000   0.29071   0.90387   0.00000  Uiso   1.00
O679   O     0.75000   0.20929   0.76280   0.00000  Uiso   1.00
O680   O     0.65184   0.25691   0.73245   0.00000  Uiso   1.00
C681   C     0.16507   0.74998   0.83323   0.00000  Uiso   1.00
C682   C     0.27165   0.94604   0.87051   0.00000  Uiso   1.00
C683   C     0.25043   0.74999   0.74019   0.00000  Uiso   1.00
C684   C     0.25031   0.75000   0.92648   0.00000  Uiso   1.00
C685   C     0.25004   0.52733   0.83331   0.00000  Uiso   1.00
C686   C     0.25004   0.97264   0.83332   0.00000  Uiso   1.00
C687   C     0.25051   0.74998   0.68851   0.00000  Uiso   1.00
C688   C     0.25045   0.74999   0.97817   0.00000  Uiso   1.00
C689   C     0.04725   0.76176   0.78979   0.00000  Uiso   1.00
C690   C     0.45259   0.72451   0.79633   0.00000  Uiso   1.00
C691   C     0.45332   0.77583   0.86820   0.00000  Uiso   1.00
C692   C     0.33499   0.75003   0.83330   0.00000  Uiso   1.00
C693   C     0.04728   0.73761   0.87517   0.00000  Uiso   1.00
C694   C     0.09339   0.76174   0.78919   0.00000  Uiso   1.00
C695   C     0.40644   0.72466   0.79557   0.00000  Uiso   1.00
C696   C     0.40721   0.77593   0.86936   0.00000  Uiso   1.00
C697   C     0.09341   0.73788   0.87636   0.00000  Uiso   1.00
C698   C     0.11680   0.74991   0.83293   0.00000  Uiso   1.00
C699   C     0.38336   0.75012   0.83279   0.00000  Uiso   1.00
C700   C     0.02430   0.74968   0.83236   0.00000  Uiso   1.00
C701   C     0.47593   0.74999   0.83227   0.00000  Uiso   1.00
C702   C     0.11546   0.77336   0.74189   0.00000  Uiso   1.00
C703   C     0.28368   0.60472   0.85535   0.00000  Uiso   1.00
C704   C     0.38400   0.69930   0.75424   0.00000  Uiso   1.00
C705   C     0.38540   0.80187   0.91038   0.00000  Uiso   1.00
C706   C     0.11547   0.72647   0.92395   0.00000  Uiso   1.00
C707   C     0.22854   0.89526   0.79702   0.00000  Uiso   1.00
C708   C     0.21635   0.60463   0.81128   0.00000  Uiso   1.00
C709   C     0.27151   0.89533   0.86962   0.00000  Uiso   1.00
C710   C     0.28451   0.55400   0.85544   0.00000  Uiso   1.00
C711   C     0.22843   0.94598   0.79612   0.00000  Uiso   1.00
C712   C     0.21555   0.55392   0.81118   0.00000  Uiso   1.00
Cu713  Cu    0.25000   0.79822   0.83333   0.00000  Uiso   1.00
Cu714  Cu    0.25000   0.70179   0.83333   0.00000  Uiso   1.00
H715   H     0.31030   0.62433   0.87290   0.00000  Uiso   1.00
H716   H     0.21193   0.96389   0.76591   0.00000  Uiso   1.00
H717   H     0.18762   0.53594   0.79435   0.00000  Uiso   1.00
H718   H     0.28818   0.96401   0.90070   0.00000  Uiso   1.00
H719   H     0.11178   0.80708   0.67629   0.00000  Uiso   1.00
H720   H     0.38571   0.64489   0.70504   0.00000  Uiso   1.00
H721   H     0.33658   0.80343   0.96041   0.00000  Uiso   1.00
H722   H     0.11188   0.69274   0.98952   0.00000  Uiso   1.00
H723   H     0.21147   0.87561   0.76833   0.00000  Uiso   1.00
H724   H     0.18973   0.62418   0.79372   0.00000  Uiso   1.00
H725   H     0.28859   0.87571   0.89831   0.00000  Uiso   1.00
H726   H     0.02883   0.77092   0.75683   0.00000  Uiso   1.00
H727   H     0.47065   0.70497   0.76838   0.00000  Uiso   1.00
H728   H     0.47189   0.79543   0.89592   0.00000  Uiso   1.00
H729   H     0.02889   0.72845   0.90795   0.00000  Uiso   1.00
H730   H     0.31245   0.53609   0.87226   0.00000  Uiso   1.00
N731   N     0.25000   0.62935   0.83333   0.00000  Uiso   1.00
N732   N     0.25000   0.87066   0.83333   0.00000  Uiso   1.00
O733   O     0.18573   0.79072   0.83334   0.00000  Uiso   1.00
O734   O     0.09374   0.80209   0.70716   0.00000  Uiso   1.00
O735   O     0.34926   0.71458   0.73736   0.00000  Uiso   1.00
O736   O     0.40372   0.65869   0.73324   0.00000  Uiso   1.00
O737   O     0.40132   0.83943   0.92603   0.00000  Uiso   1.00
O738   O     0.34778   0.78266   0.93247   0.00000  Uiso   1.00
O739   O     0.15172   0.74327   0.93389   0.00000  Uiso   1.00
O740   O     0.09387   0.69755   0.95840   0.00000  Uiso   1.00
O741   O     0.31427   0.70929   0.83333   0.00000  Uiso   1.00
O742   O     0.31427   0.79072   0.83333   0.00000  Uiso   1.00
O743   O     0.18573   0.70929   0.83334   0.00000  Uiso   1.00
O744   O     0.25000   0.79071   0.76280   0.00000  Uiso   1.00
O745   O     0.25000   0.70929   0.90387   0.00000  Uiso   1.00
O746   O     0.25000   0.79071   0.90387   0.00000  Uiso   1.00
O747   O     0.25000   0.70929   0.76280   0.00000  Uiso   1.00
O748   O     0.15184   0.75691   0.73245   0.00000  Uiso   1.00
C749   C     0.66507   0.74998   0.83323   0.00000  Uiso   1.00
C750   C     0.77165   0.94604   0.87051   0.00000  Uiso   1.00
C751   C     0.75043   0.74999   0.74019   0.00000  Uiso   1.00
C752   C     0.75031   0.75000   0.92648   0.00000  Uiso   1.00
C753   C     0.75004   0.52733   0.83331   0.00000  Uiso   1.00
C754   C     0.75004   0.97264   0.83332   0.00000  Uiso   1.00
C755   C     0.75051   0.74998   0.68851   0.00000  Uiso   1.00
C756   C     0.75045   0.74999   0.97817   0.00000  Uiso   1.00
C757   C     0.54725   0.76176   0.78979   0.00000  Uiso   1.00
C758   C     0.95259   0.72451   0.79633   0.00000  Uiso   1.00
C759   C     0.95332   0.77583   0.86820   0.00000  Uiso   1.00
C760   C     0.83499   0.75003   0.83330   0.00000  Uiso   1.00
C761   C     0.54728   0.73761   0.87517   0.00000  Uiso   1.00
C762   C     0.59339   0.76174   0.78919   0.00000  Uiso   1.00
C763   C     0.90644   0.72466   0.79557   0.00000  Uiso   1.00
C764   C     0.90721   0.77593   0.86936   0.00000  Uiso   1.00
C765   C     0.59341   0.73788   0.87636   0.00000  Uiso   1.00
C766   C     0.61680   0.74991   0.83293   0.00000  Uiso   1.00
C767   C     0.88336   0.75012   0.83279   0.00000  Uiso   1.00
C768   C     0.52430   0.74968   0.83236   0.00000  Uiso   1.00
C769   C     0.97593   0.74999   0.83227   0.00000  Uiso   1.00
C770   C     0.61546   0.77336   0.74189   0.00000  Uiso   1.00
C771   C     0.78368   0.60472   0.85535   0.00000  Uiso   1.00
C772   C     0.88400   0.69930   0.75424   0.00000  Uiso   1.00
C773   C     0.88540   0.80187   0.91038   0.00000  Uiso   1.00
C774   C     0.61547   0.72647   0.92395   0.00000  Uiso   1.00
C775   C     0.72854   0.89526   0.79702   0.00000  Uiso   1.00
C776   C     0.71635   0.60463   0.81128   0.00000  Uiso   1.00
C777   C     0.77151   0.89533   0.86962   0.00000  Uiso   1.00
C778   C     0.78451   0.55400   0.85544   0.00000  Uiso   1.00
C779   C     0.72843   0.94598   0.79612   0.00000  Uiso   1.00
C780   C     0.71555   0.55392   0.81118   0.00000  Uiso   1.00
Cu781  Cu    0.75000   0.79822   0.83333   0.00000  Uiso   1.00
Cu782  Cu    0.75000   0.70179   0.83333   0.00000  Uiso   1.00
H783   H     0.81030   0.62433   0.87290   0.00000  Uiso   1.00
H784   H     0.71193   0.96389   0.76591   0.00000  Uiso   1.00
H785   H     0.68762   0.53594   0.79435   0.00000  Uiso   1.00
H786   H     0.78818   0.96401   0.90070   0.00000  Uiso   1.00
H787   H     0.61178   0.80708   0.67629   0.00000  Uiso   1.00
H788   H     0.88571   0.64489   0.70504   0.00000  Uiso   1.00
H789   H     0.83658   0.80343   0.96041   0.00000  Uiso   1.00
H790   H     0.61188   0.69274   0.98952   0.00000  Uiso   1.00
H791   H     0.71147   0.87561   0.76833   0.00000  Uiso   1.00
H792   H     0.68973   0.62418   0.79372   0.00000  Uiso   1.00
H793   H     0.78859   0.87571   0.89831   0.00000  Uiso   1.00
H794   H     0.52883   0.77092   0.75683   0.00000  Uiso   1.00
H795   H     0.97065   0.70497   0.76838   0.00000  Uiso   1.00
H796   H     0.97189   0.79543   0.89592   0.00000  Uiso   1.00
H797   H     0.52889   0.72845   0.90795   0.00000  Uiso   1.00
H798   H     0.81245   0.53609   0.87226   0.00000  Uiso   1.00
N799   N     0.75000   0.62935   0.83333   0.00000  Uiso   1.00
N800   N     0.75000   0.87066   0.83333   0.00000  Uiso   1.00
O801   O     0.68573   0.79072   0.83334   0.00000  Uiso   1.00
O802   O     0.59374   0.80209   0.70716   0.00000  Uiso   1.00
O803   O     0.84926   0.71458   0.73736   0.00000  Uiso   1.00
O804   O     0.90372   0.65869   0.73324   0.00000  Uiso   1.00
O805   O     0.90132   0.83943   0.92603   0.00000  Uiso   1.00
O806   O     0.84778   0.78266   0.93247   0.00000  Uiso   1.00
O807   O     0.65172   0.74327   0.93389   0.00000  Uiso   1.00
O808   O     0.59387   0.69755   0.95840   0.00000  Uiso   1.00
O809   O     0.81427   0.70929   0.83333   0.00000  Uiso   1.00
O810   O     0.81427   0.79072   0.83333   0.00000  Uiso   1.00
O811   O     0.68573   0.70929   0.83334   0.00000  Uiso   1.00
O812   O     0.75000   0.79071   0.76280   0.00000  Uiso   1.00
O813   O     0.75000   0.70929   0.90387   0.00000  Uiso   1.00
O814   O     0.75000   0.79071   0.90387   0.00000  Uiso   1.00
O815   O     0.75000   0.70929   0.76280   0.00000  Uiso   1.00
O816   O     0.65184   0.75691   0.73245   0.00000  Uiso   1.00
loop_
_geom_bond_atom_site_label_1
_geom_bond_atom_site_label_2
_geom_bond_distance
_geom_bond_site_symmetry_2
_ccdc_geom_bond_type
C1     C18     1.461   .     S
C1     O63     1.291   .     A
C1     O53     1.292   .     A
C2     H38     1.081   .     S
C2     C6      1.412   .     A
C2     C29     1.407   .     A
C3     O64     1.286   .     A
C3     C7      1.407   .     S
C3     O67     1.287   .     A
C4     C8      1.407   .     S
C4     O66     1.287   .     A
C4     O65     1.286   .     A
C5     C32     1.411   .     A
C5     C30     1.411   .     A
C5     C142    1.518   1_545 S
C6     C31     1.411   .     A
C6     C141    1.518   .     S
C7     C552    1.189   1_554 S
C8     C279    1.189   .     S
C9     C14     1.397   .     A
C9     C20     1.395   .     A
C9     H46     1.084   .     S
C10    C15     1.397   .     A
C10    C21     1.396   .     A
C10    H47     1.084   .     S
C11    C21     1.395   .     A
C11    C16     1.397   .     A
C11    H48     1.085   .     S
C12    O62     1.292   .     A
C12    O61     1.293   .     A
C12    C19     1.465   .     S
C13    C17     1.397   .     A
C13    H49     1.084   .     S
C13    C20     1.395   .     A
C14    C18     1.421   .     A
C14    C22     1.489   .     S
C15    C19     1.422   .     A
C15    C24     1.488   .     S
C16    C19     1.420   .     A
C16    C25     1.486   .     S
C17    C18     1.421   .     A
C17    C26     1.489   .     S
C20    C89     1.465   1_455 S
C21    C88     1.465   .     S
C22    O54     1.399   .     S
C22    O68     1.221   .     D
C23    N51     1.364   .     A
C23    H35     1.081   .     S
C23    C30     1.407   .     A
C24    O56     1.399   .     S
C24    O55     1.222   .     D
C25    O57     1.223   .     D
C25    O58     1.396   .     S
C26    O59     1.221   .     D
C26    O60     1.399   .     S
C27    C31     1.407   .     A
C27    H43     1.082   .     S
C27    N52     1.364   .     A
C28    N51     1.364   .     A
C28    C32     1.407   .     A
C28    H44     1.081   .     S
C29    H45     1.082   .     S
C29    N52     1.364   .     A
C30    H50     1.081   .     S
C31    H36     1.081   .     S
C32    H37     1.081   .     S
Cu33   O66     1.931   .     S
Cu33   Cu34    2.676   .     S
Cu33   O64     1.931   .     S
Cu33   O53     1.957   .     S
Cu33   N52     2.010   .     S
Cu33   O62     1.957   .     S
Cu34   O67     1.931   .     S
Cu34   N51     2.010   .     S
Cu34   O63     1.957   .     S
Cu34   O65     1.931   .     S
Cu34   O61     1.957   .     S
H39    O54     1.014   .     S
H40    O56     1.014   .     S
H41    O58     1.014   .     S
H42    O60     1.014   .     S
C69    C86     1.461   .     S
C69    O131    1.291   .     A
C69    O121    1.292   .     A
C70    H106    1.081   .     S
C70    C74     1.412   .     A
C70    C97     1.407   .     A
C71    O132    1.286   .     A
C71    C75     1.407   .     S
C71    O135    1.287   .     A
C72    C76     1.407   .     S
C72    O134    1.287   .     A
C72    O133    1.286   .     A
C73    C100    1.411   .     A
C73    C98     1.411   .     A
C73    C210    1.518   1_545 S
C74    C99     1.411   .     A
C74    C209    1.518   .     S
C75    C620    1.189   1_554 S
C76    C347    1.189   .     S
C77    C82     1.397   .     A
C77    C88     1.395   .     A
C77    H114    1.084   .     S
C78    C83     1.397   .     A
C78    C89     1.396   .     A
C78    H115    1.084   .     S
C79    C89     1.395   .     A
C79    C84     1.397   .     A
C79    H116    1.085   .     S
C80    O130    1.292   .     A
C80    O129    1.293   .     A
C80    C87     1.465   .     S
C81    C85     1.397   .     A
C81    H117    1.084   .     S
C81    C88     1.395   .     A
C82    C86     1.421   .     A
C82    C90     1.489   .     S
C83    C87     1.422   .     A
C83    C92     1.488   .     S
C84    C87     1.420   .     A
C84    C93     1.486   .     S
C85    C86     1.421   .     A
C85    C94     1.489   .     S
C89    C20     1.465   1_655 S
C90    O122    1.399   .     S
C90    O136    1.221   .     D
C91    N119    1.364   .     A
C91    H103    1.081   .     S
C91    C98     1.407   .     A
C92    O124    1.399   .     S
C92    O123    1.222   .     D
C93    O125    1.223   .     D
C93    O126    1.396   .     S
C94    O127    1.221   .     D
C94    O128    1.399   .     S
C95    C99     1.407   .     A
C95    H111    1.082   .     S
C95    N120    1.364   .     A
C96    N119    1.364   .     A
C96    C100    1.407   .     A
C96    H112    1.081   .     S
C97    H113    1.082   .     S
C97    N120    1.364   .     A
C98    H118    1.081   .     S
C99    H104    1.081   .     S
C100   H105    1.081   .     S
Cu101  O134    1.931   .     S
Cu101  Cu102   2.676   .     S
Cu101  O132    1.931   .     S
Cu101  O121    1.957   .     S
Cu101  N120    2.010   .     S
Cu101  O130    1.957   .     S
Cu102  O135    1.931   .     S
Cu102  N119    2.010   .     S
Cu102  O131    1.957   .     S
Cu102  O133    1.931   .     S
Cu102  O129    1.957   .     S
H107   O122    1.014   .     S
H108   O124    1.014   .     S
H109   O126    1.014   .     S
H110   O128    1.014   .     S
C137   C154    1.461   .     S
C137   O199    1.291   .     A
C137   O189    1.292   .     A
C138   H174    1.081   .     S
C138   C142    1.412   .     A
C138   C165    1.407   .     A
C139   O200    1.286   .     A
C139   C143    1.407   .     S
C139   O203    1.287   .     A
C140   C144    1.407   .     S
C140   O202    1.287   .     A
C140   O201    1.286   .     A
C141   C168    1.411   .     A
C141   C166    1.411   .     A
C142   C167    1.411   .     A
C142   C5      1.518   1_565 S
C143   C688    1.189   1_554 S
C144   C415    1.189   .     S
C145   C150    1.397   .     A
C145   C156    1.395   .     A
C145   H182    1.084   .     S
C146   C151    1.397   .     A
C146   C157    1.396   .     A
C146   H183    1.084   .     S
C147   C157    1.395   .     A
C147   C152    1.397   .     A
C147   H184    1.085   .     S
C148   O198    1.292   .     A
C148   O197    1.293   .     A
C148   C155    1.465   .     S
C149   C153    1.397   .     A
C149   H185    1.084   .     S
C149   C156    1.395   .     A
C150   C154    1.421   .     A
C150   C158    1.489   .     S
C151   C155    1.422   .     A
C151   C160    1.488   .     S
C152   C155    1.420   .     A
C152   C161    1.486   .     S
C153   C154    1.421   .     A
C153   C162    1.489   .     S
C156   C225    1.465   1_455 S
C157   C224    1.465   .     S
C158   O190    1.399   .     S
C158   O204    1.221   .     D
C159   N187    1.364   .     A
C159   H171    1.081   .     S
C159   C166    1.407   .     A
C160   O192    1.399   .     S
C160   O191    1.222   .     D
C161   O193    1.223   .     D
C161   O194    1.396   .     S
C162   O195    1.221   .     D
C162   O196    1.399   .     S
C163   C167    1.407   .     A
C163   H179    1.082   .     S
C163   N188    1.364   .     A
C164   N187    1.364   .     A
C164   C168    1.407   .     A
C164   H180    1.081   .     S
C165   H181    1.082   .     S
C165   N188    1.364   .     A
C166   H186    1.081   .     S
C167   H172    1.081   .     S
C168   H173    1.081   .     S
Cu169  O202    1.931   .     S
Cu169  Cu170   2.676   .     S
Cu169  O200    1.931   .     S
Cu169  O189    1.957   .     S
Cu169  N188    2.010   .     S
Cu169  O198    1.957   .     S
Cu170  O203    1.931   .     S
Cu170  N187    2.010   .     S
Cu170  O199    1.957   .     S
Cu170  O201    1.931   .     S
Cu170  O197    1.957   .     S
H175   O190    1.014   .     S
H176   O192    1.014   .     S
H177   O194    1.014   .     S
H178   O196    1.014   .     S
C205   C222    1.461   .     S
C205   O267    1.291   .     A
C205   O257    1.292   .     A
C206   H242    1.081   .     S
C206   C210    1.412   .     A
C206   C233    1.407   .     A
C207   O268    1.286   .     A
C207   C211    1.407   .     S
C207   O271    1.287   .     A
C208   C212    1.407   .     S
C208   O270    1.287   .     A
C208   O269    1.286   .     A
C209   C236    1.411   .     A
C209   C234    1.411   .     A
C210   C235    1.411   .     A
C210   C73     1.518   1_565 S
C211   C756    1.189   1_554 S
C212   C483    1.189   .     S
C213   C218    1.397   .     A
C213   C224    1.395   .     A
C213   H250    1.084   .     S
C214   C219    1.397   .     A
C214   C225    1.396   .     A
C214   H251    1.084   .     S
C215   C225    1.395   .     A
C215   C220    1.397   .     A
C215   H252    1.085   .     S
C216   O266    1.292   .     A
C216   O265    1.293   .     A
C216   C223    1.465   .     S
C217   C221    1.397   .     A
C217   H253    1.084   .     S
C217   C224    1.395   .     A
C218   C222    1.421   .     A
C218   C226    1.489   .     S
C219   C223    1.422   .     A
C219   C228    1.488   .     S
C220   C223    1.420   .     A
C220   C229    1.486   .     S
C221   C222    1.421   .     A
C221   C230    1.489   .     S
C225   C156    1.465   1_655 S
C226   O258    1.399   .     S
C226   O272    1.221   .     D
C227   N255    1.364   .     A
C227   H239    1.081   .     S
C227   C234    1.407   .     A
C228   O260    1.399   .     S
C228   O259    1.222   .     D
C229   O261    1.223   .     D
C229   O262    1.396   .     S
C230   O263    1.221   .     D
C230   O264    1.399   .     S
C231   C235    1.407   .     A
C231   H247    1.082   .     S
C231   N256    1.364   .     A
C232   N255    1.364   .     A
C232   C236    1.407   .     A
C232   H248    1.081   .     S
C233   H249    1.082   .     S
C233   N256    1.364   .     A
C234   H254    1.081   .     S
C235   H240    1.081   .     S
C236   H241    1.081   .     S
Cu237  O270    1.931   .     S
Cu237  Cu238   2.676   .     S
Cu237  O268    1.931   .     S
Cu237  O257    1.957   .     S
Cu237  N256    2.010   .     S
Cu237  O266    1.957   .     S
Cu238  O271    1.931   .     S
Cu238  N255    2.010   .     S
Cu238  O267    1.957   .     S
Cu238  O269    1.931   .     S
Cu238  O265    1.957   .     S
H243   O258    1.014   .     S
H244   O260    1.014   .     S
H245   O262    1.014   .     S
H246   O264    1.014   .     S
C273   C290    1.461   .     S
C273   O335    1.291   .     A
C273   O325    1.292   .     A
C274   H310    1.081   .     S
C274   C278    1.412   .     A
C274   C301    1.407   .     A
C275   O336    1.286   .     A
C275   C279    1.407   .     S
C275   O339    1.287   .     A
C276   C280    1.407   .     S
C276   O338    1.287   .     A
C276   O337    1.286   .     A
C277   C304    1.411   .     A
C277   C302    1.411   .     A
C277   C414    1.518   1_545 S
C278   C303    1.411   .     A
C278   C413    1.518   .     S
C280   C551    1.189   .     S
C281   C286    1.397   .     A
C281   C292    1.395   .     A
C281   H318    1.084   .     S
C282   C287    1.397   .     A
C282   C293    1.396   .     A
C282   H319    1.084   .     S
C283   C293    1.395   .     A
C283   C288    1.397   .     A
C283   H320    1.085   .     S
C284   O334    1.292   .     A
C284   O333    1.293   .     A
C284   C291    1.465   .     S
C285   C289    1.397   .     A
C285   H321    1.084   .     S
C285   C292    1.395   .     A
C286   C290    1.421   .     A
C286   C294    1.489   .     S
C287   C291    1.422   .     A
C287   C296    1.488   .     S
C288   C291    1.420   .     A
C288   C297    1.486   .     S
C289   C290    1.421   .     A
C289   C298    1.489   .     S
C292   C361    1.465   1_455 S
C293   C360    1.465   .     S
C294   O326    1.399   .     S
C294   O340    1.221   .     D
C295   N323    1.364   .     A
C295   H307    1.081   .     S
C295   C302    1.407   .     A
C296   O328    1.399   .     S
C296   O327    1.222   .     D
C297   O329    1.223   .     D
C297   O330    1.396   .     S
C298   O331    1.221   .     D
C298   O332    1.399   .     S
C299   C303    1.407   .     A
C299   H315    1.082   .     S
C299   N324    1.364   .     A
C300   N323    1.364   .     A
C300   C304    1.407   .     A
C300   H316    1.081   .     S
C301   H317    1.082   .     S
C301   N324    1.364   .     A
C302   H322    1.081   .     S
C303   H308    1.081   .     S
C304   H309    1.081   .     S
Cu305  O338    1.931   .     S
Cu305  Cu306   2.676   .     S
Cu305  O336    1.931   .     S
Cu305  O325    1.957   .     S
Cu305  N324    2.010   .     S
Cu305  O334    1.957   .     S
Cu306  O339    1.931   .     S
Cu306  N323    2.010   .     S
Cu306  O335    1.957   .     S
Cu306  O337    1.931   .     S
Cu306  O333    1.957   .     S
H311   O326    1.014   .     S
H312   O328    1.014   .     S
H313   O330    1.014   .     S
H314   O332    1.014   .     S
C341   C358    1.461   .     S
C341   O403    1.291   .     A
C341   O393    1.292   .     A
C342   H378    1.081   .     S
C342   C346    1.412   .     A
C342   C369    1.407   .     A
C343   O404    1.286   .     A
C343   C347    1.407   .     S
C343   O407    1.287   .     A
C344   C348    1.407   .     S
C344   O406    1.287   .     A
C344   O405    1.286   .     A
C345   C372    1.411   .     A
C345   C370    1.411   .     A
C345   C482    1.518   1_545 S
C346   C371    1.411   .     A
C346   C481    1.518   .     S
C348   C619    1.189   .     S
C349   C354    1.397   .     A
C349   C360    1.395   .     A
C349   H386    1.084   .     S
C350   C355    1.397   .     A
C350   C361    1.396   .     A
C350   H387    1.084   .     S
C351   C361    1.395   .     A
C351   C356    1.397   .     A
C351   H388    1.085   .     S
C352   O402    1.292   .     A
C352   O401    1.293   .     A
C352   C359    1.465   .     S
C353   C357    1.397   .     A
C353   H389    1.084   .     S
C353   C360    1.395   .     A
C354   C358    1.421   .     A
C354   C362    1.489   .     S
C355   C359    1.422   .     A
C355   C364    1.488   .     S
C356   C359    1.420   .     A
C356   C365    1.486   .     S
C357   C358    1.421   .     A
C357   C366    1.489   .     S
C361   C292    1.465   1_655 S
C362   O394    1.399   .     S
C362   O408    1.221   .     D
C363   N391    1.364   .     A
C363   H375    1.081   .     S
C363   C370    1.407   .     A
C364   O396    1.399   .     S
C364   O395    1.222   .     D
C365   O397    1.223   .     D
C365   O398    1.396   .     S
C366   O399    1.221   .     D
C366   O400    1.399   .     S
C367   C371    1.407   .     A
C367   H383    1.082   .     S
C367   N392    1.364   .     A
C368   N391    1.364   .     A
C368   C372    1.407   .     A
C368   H384    1.081   .     S
C369   H385    1.082   .     S
C369   N392    1.364   .     A
C370   H390    1.081   .     S
C371   H376    1.081   .     S
C372   H377    1.081   .     S
Cu373  O406    1.931   .     S
Cu373  Cu374   2.676   .     S
Cu373  O404    1.931   .     S
Cu373  O393    1.957   .     S
Cu373  N392    2.010   .     S
Cu373  O402    1.957   .     S
Cu374  O407    1.931   .     S
Cu374  N391    2.010   .     S
Cu374  O403    1.957   .     S
Cu374  O405    1.931   .     S
Cu374  O401    1.957   .     S
H379   O394    1.014   .     S
H380   O396    1.014   .     S
H381   O398    1.014   .     S
H382   O400    1.014   .     S
C409   C426    1.461   .     S
C409   O471    1.291   .     A
C409   O461    1.292   .     A
C410   H446    1.081   .     S
C410   C414    1.412   .     A
C410   C437    1.407   .     A
C411   O472    1.286   .     A
C411   C415    1.407   .     S
C411   O475    1.287   .     A
C412   C416    1.407   .     S
C412   O474    1.287   .     A
C412   O473    1.286   .     A
C413   C440    1.411   .     A
C413   C438    1.411   .     A
C414   C439    1.411   .     A
C414   C277    1.518   1_565 S
C416   C687    1.189   .     S
C417   C422    1.397   .     A
C417   C428    1.395   .     A
C417   H454    1.084   .     S
C418   C423    1.397   .     A
C418   C429    1.396   .     A
C418   H455    1.084   .     S
C419   C429    1.395   .     A
C419   C424    1.397   .     A
C419   H456    1.085   .     S
C420   O470    1.292   .     A
C420   O469    1.293   .     A
C420   C427    1.465   .     S
C421   C425    1.397   .     A
C421   H457    1.084   .     S
C421   C428    1.395   .     A
C422   C426    1.421   .     A
C422   C430    1.489   .     S
C423   C427    1.422   .     A
C423   C432    1.488   .     S
C424   C427    1.420   .     A
C424   C433    1.486   .     S
C425   C426    1.421   .     A
C425   C434    1.489   .     S
C428   C497    1.465   1_455 S
C429   C496    1.465   .     S
C430   O462    1.399   .     S
C430   O476    1.221   .     D
C431   N459    1.364   .     A
C431   H443    1.081   .     S
C431   C438    1.407   .     A
C432   O464    1.399   .     S
C432   O463    1.222   .     D
C433   O465    1.223   .     D
C433   O466    1.396   .     S
C434   O467    1.221   .     D
C434   O468    1.399   .     S
C435   C439    1.407   .     A
C435   H451    1.082   .     S
C435   N460    1.364   .     A
C436   N459    1.364   .     A
C436   C440    1.407   .     A
C436   H452    1.081   .     S
C437   H453    1.082   .     S
C437   N460    1.364   .     A
C438   H458    1.081   .     S
C439   H444    1.081   .     S
C440   H445    1.081   .     S
Cu441  O474    1.931   .     S
Cu441  Cu442   2.676   .     S
Cu441  O472    1.931   .     S
Cu441  O461    1.957   .     S
Cu441  N460    2.010   .     S
Cu441  O470    1.957   .     S
Cu442  O475    1.931   .     S
Cu442  N459    2.010   .     S
Cu442  O471    1.957   .     S
Cu442  O473    1.931   .     S
Cu442  O469    1.957   .     S
H447   O462    1.014   .     S
H448   O464    1.014   .     S
H449   O466    1.014   .     S
H450   O468    1.014   .     S
C477   C494    1.461   .     S
C477   O539    1.291   .     A
C477   O529    1.292   .     A
C478   H514    1.081   .     S
C478   C482    1.412   .     A
C478   C505    1.407   .     A
C479   O540    1.286   .     A
C479   C483    1.407   .     S
C479   O543    1.287   .     A
C480   C484    1.407   .     S
C480   O542    1.287   .     A
C480   O541    1.286   .     A
C481   C508    1.411   .     A
C481   C506    1.411   .     A
C482   C507    1.411   .     A
C482   C345    1.518   1_565 S
C484   C755    1.189   .     S
C485   C490    1.397   .     A
C485   C496    1.395   .     A
C485   H522    1.084   .     S
C486   C491    1.397   .     A
C486   C497    1.396   .     A
C486   H523    1.084   .     S
C487   C497    1.395   .     A
C487   C492    1.397   .     A
C487   H524    1.085   .     S
C488   O538    1.292   .     A
C488   O537    1.293   .     A
C488   C495    1.465   .     S
C489   C493    1.397   .     A
C489   H525    1.084   .     S
C489   C496    1.395   .     A
C490   C494    1.421   .     A
C490   C498    1.489   .     S
C491   C495    1.422   .     A
C491   C500    1.488   .     S
C492   C495    1.420   .     A
C492   C501    1.486   .     S
C493   C494    1.421   .     A
C493   C502    1.489   .     S
C497   C428    1.465   1_655 S
C498   O530    1.399   .     S
C498   O544    1.221   .     D
C499   N527    1.364   .     A
C499   H511    1.081   .     S
C499   C506    1.407   .     A
C500   O532    1.399   .     S
C500   O531    1.222   .     D
C501   O533    1.223   .     D
C501   O534    1.396   .     S
C502   O535    1.221   .     D
C502   O536    1.399   .     S
C503   C507    1.407   .     A
C503   H519    1.082   .     S
C503   N528    1.364   .     A
C504   N527    1.364   .     A
C504   C508    1.407   .     A
C504   H520    1.081   .     S
C505   H521    1.082   .     S
C505   N528    1.364   .     A
C506   H526    1.081   .     S
C507   H512    1.081   .     S
C508   H513    1.081   .     S
Cu509  O542    1.931   .     S
Cu509  Cu510   2.676   .     S
Cu509  O540    1.931   .     S
Cu509  O529    1.957   .     S
Cu509  N528    2.010   .     S
Cu509  O538    1.957   .     S
Cu510  O543    1.931   .     S
Cu510  N527    2.010   .     S
Cu510  O539    1.957   .     S
Cu510  O541    1.931   .     S
Cu510  O537    1.957   .     S
H515   O530    1.014   .     S
H516   O532    1.014   .     S
H517   O534    1.014   .     S
H518   O536    1.014   .     S
C545   C562    1.461   .     S
C545   O607    1.291   .     A
C545   O597    1.292   .     A
C546   H582    1.081   .     S
C546   C550    1.412   .     A
C546   C573    1.407   .     A
C547   O608    1.286   .     A
C547   C551    1.407   .     S
C547   O611    1.287   .     A
C548   C552    1.407   .     S
C548   O610    1.287   .     A
C548   O609    1.286   .     A
C549   C576    1.411   .     A
C549   C574    1.411   .     A
C549   C686    1.518   1_545 S
C550   C575    1.411   .     A
C550   C685    1.518   .     S
C552   C7      1.189   1_556 S
C553   C558    1.397   .     A
C553   C564    1.395   .     A
C553   H590    1.084   .     S
C554   C559    1.397   .     A
C554   C565    1.396   .     A
C554   H591    1.084   .     S
C555   C565    1.395   .     A
C555   C560    1.397   .     A
C555   H592    1.085   .     S
C556   O606    1.292   .     A
C556   O605    1.293   .     A
C556   C563    1.465   .     S
C557   C561    1.397   .     A
C557   H593    1.084   .     S
C557   C564    1.395   .     A
C558   C562    1.421   .     A
C558   C566    1.489   .     S
C559   C563    1.422   .     A
C559   C568    1.488   .     S
C560   C563    1.420   .     A
C560   C569    1.486   .     S
C561   C562    1.421   .     A
C561   C570    1.489   .     S
C564   C633    1.465   1_455 S
C565   C632    1.465   .     S
C566   O598    1.399   .     S
C566   O612    1.221   .     D
C567   N595    1.364   .     A
C567   H579    1.081   .     S
C567   C574    1.407   .     A
C568   O600    1.399   .     S
C568   O599    1.222   .     D
C569   O601    1.223   .     D
C569   O602    1.396   .     S
C570   O603    1.221   .     D
C570   O604    1.399   .     S
C571   C575    1.407   .     A
C571   H587    1.082   .     S
C571   N596    1.364   .     A
C572   N595    1.364   .     A
C572   C576    1.407   .     A
C572   H588    1.081   .     S
C573   H589    1.082   .     S
C573   N596    1.364   .     A
C574   H594    1.081   .     S
C575   H580    1.081   .     S
C576   H581    1.081   .     S
Cu577  O610    1.931   .     S
Cu577  Cu578   2.676   .     S
Cu577  O608    1.931   .     S
Cu577  O597    1.957   .     S
Cu577  N596    2.010   .     S
Cu577  O606    1.957   .     S
Cu578  O611    1.931   .     S
Cu578  N595    2.010   .     S
Cu578  O607    1.957   .     S
Cu578  O609    1.931   .     S
Cu578  O605    1.957   .     S
H583   O598    1.014   .     S
H584   O600    1.014   .     S
H585   O602    1.014   .     S
H586   O604    1.014   .     S
C613   C630    1.461   .     S
C613   O675    1.291   .     A
C613   O665    1.292   .     A
C614   H650    1.081   .     S
C614   C618    1.412   .     A
C614   C641    1.407   .     A
C615   O676    1.286   .     A
C615   C619    1.407   .     S
C615   O679    1.287   .     A
C616   C620    1.407   .     S
C616   O678    1.287   .     A
C616   O677    1.286   .     A
C617   C644    1.411   .     A
C617   C642    1.411   .     A
C617   C754    1.518   1_545 S
C618   C643    1.411   .     A
C618   C753    1.518   .     S
C620   C75     1.189   1_556 S
C621   C626    1.397   .     A
C621   C632    1.395   .     A
C621   H658    1.084   .     S
C622   C627    1.397   .     A
C622   C633    1.396   .     A
C622   H659    1.084   .     S
C623   C633    1.395   .     A
C623   C628    1.397   .     A
C623   H660    1.085   .     S
C624   O674    1.292   .     A
C624   O673    1.293   .     A
C624   C631    1.465   .     S
C625   C629    1.397   .     A
C625   H661    1.084   .     S
C625   C632    1.395   .     A
C626   C630    1.421   .     A
C626   C634    1.489   .     S
C627   C631    1.422   .     A
C627   C636    1.488   .     S
C628   C631    1.420   .     A
C628   C637    1.486   .     S
C629   C630    1.421   .     A
C629   C638    1.489   .     S
C633   C564    1.465   1_655 S
C634   O666    1.399   .     S
C634   O680    1.221   .     D
C635   N663    1.364   .     A
C635   H647    1.081   .     S
C635   C642    1.407   .     A
C636   O668    1.399   .     S
C636   O667    1.222   .     D
C637   O669    1.223   .     D
C637   O670    1.396   .     S
C638   O671    1.221   .     D
C638   O672    1.399   .     S
C639   C643    1.407   .     A
C639   H655    1.082   .     S
C639   N664    1.364   .     A
C640   N663    1.364   .     A
C640   C644    1.407   .     A
C640   H656    1.081   .     S
C641   H657    1.082   .     S
C641   N664    1.364   .     A
C642   H662    1.081   .     S
C643   H648    1.081   .     S
C644   H649    1.081   .     S
Cu645  O678    1.931   .     S
Cu645  Cu646   2.676   .     S
Cu645  O676    1.931   .     S
Cu645  O665    1.957   .     S
Cu645  N664    2.010   .     S
Cu645  O674    1.957   .     S
Cu646  O679    1.931   .     S
Cu646  N663    2.010   .     S
Cu646  O675    1.957   .     S
Cu646  O677    1.931   .     S
Cu646  O673    1.957   .     S
H651   O666    1.014   .     S
H652   O668    1.014   .     S
H653   O670    1.014   .     S
H654   O672    1.014   .     S
C681   C698    1.461   .     S
C681   O743    1.291   .     A
C681   O733    1.292   .     A
C682   H718    1.081   .     S
C682   C686    1.412   .     A
C682   C709    1.407   .     A
C683   O744    1.286   .     A
C683   C687    1.407   .     S
C683   O747    1.287   .     A
C684   C688    1.407   .     S
C684   O746    1.287   .     A
C684   O745    1.286   .     A
C685   C712    1.411   .     A
C685   C710    1.411   .     A
C686   C711    1.411   .     A
C686   C549    1.518   1_565 S
C688   C143    1.189   1_556 S
C689   C694    1.397   .     A
C689   C700    1.395   .     A
C689   H726    1.084   .     S
C690   C695    1.397   .     A
C690   C701    1.396   .     A
C690   H727    1.084   .     S
C691   C701    1.395   .     A
C691   C696    1.397   .     A
C691   H728    1.085   .     S
C692   O742    1.292   .     A
C692   O741    1.293   .     A
C692   C699    1.465   .     S
C693   C697    1.397   .     A
C693   H729    1.084   .     S
C693   C700    1.395   .     A
C694   C698    1.421   .     A
C694   C702    1.489   .     S
C695   C699    1.422   .     A
C695   C704    1.488   .     S
C696   C699    1.420   .     A
C696   C705    1.486   .     S
C697   C698    1.421   .     A
C697   C706    1.489   .     S
C700   C769    1.465   1_455 S
C701   C768    1.465   .     S
C702   O734    1.399   .     S
C702   O748    1.221   .     D
C703   N731    1.364   .     A
C703   H715    1.081   .     S
C703   C710    1.407   .     A
C704   O736    1.399   .     S
C704   O735    1.222   .     D
C705   O737    1.223   .     D
C705   O738    1.396   .     S
C706   O739    1.221   .     D
C706   O740    1.399   .     S
C707   C711    1.407   .     A
C707   H723    1.082   .     S
C707   N732    1.364   .     A
C708   N731    1.364   .     A
C708   C712    1.407   .     A
C708   H724    1.081   .     S
C709   H725    1.082   .     S
C709   N732    1.364   .     A
C710   H730    1.081   .     S
C711   H716    1.081   .     S
C712   H717    1.081   .     S
Cu713  O746    1.931   .     S
Cu713  Cu714   2.676   .     S
Cu713  O744    1.931   .     S
Cu713  O733    1.957   .     S
Cu713  N732    2.010   .     S
Cu713  O742    1.957   .     S
Cu714  O747    1.931   .     S
Cu714  N731    2.010   .     S
Cu714  O743    1.957   .     S
Cu714  O745    1.931   .     S
Cu714  O741    1.957   .     S
H719   O734    1.014   .     S
H720   O736    1.014   .     S
H721   O738    1.014   .     S
H722   O740    1.014   .     S
C749   C766    1.461   .     S
C749   O811    1.291   .     A
C749   O801    1.292   .     A
C750   H786    1.081   .     S
C750   C754    1.412   .     A
C750   C777    1.407   .     A
C751   O812    1.286   .     A
C751   C755    1.407   .     S
C751   O815    1.287   .     A
C752   C756    1.407   .     S
C752   O814    1.287   .     A
C752   O813    1.286   .     A
C753   C780    1.411   .     A
C753   C778    1.411   .     A
C754   C779    1.411   .     A
C754   C617    1.518   1_565 S
C756   C211    1.189   1_556 S
C757   C762    1.397   .     A
C757   C768    1.395   .     A
C757   H794    1.084   .     S
C758   C763    1.397   .     A
C758   C769    1.396   .     A
C758   H795    1.084   .     S
C759   C769    1.395   .     A
C759   C764    1.397   .     A
C759   H796    1.085   .     S
C760   O810    1.292   .     A
C760   O809    1.293   .     A
C760   C767    1.465   .     S
C761   C765    1.397   .     A
C761   H797    1.084   .     S
C761   C768    1.395   .     A
C762   C766    1.421   .     A
C762   C770    1.489   .     S
C763   C767    1.422   .     A
C763   C772    1.488   .     S
C764   C767    1.420   .     A
C764   C773    1.486   .     S
C765   C766    1.421   .     A
C765   C774    1.489   .     S
C769   C700    1.465   1_655 S
C770   O802    1.399   .     S
C770   O816    1.221   .     D
C771   N799    1.364   .     A
C771   H783    1.081   .     S
C771   C778    1.407   .     A
C772   O804    1.399   .     S
C772   O803    1.222   .     D
C773   O805    1.223   .     D
C773   O806    1.396   .     S
C774   O807    1.221   .     D
C774   O808    1.399   .     S
C775   C779    1.407   .     A
C775   H791    1.082   .     S
C775   N800    1.364   .     A
C776   N799    1.364   .     A
C776   C780    1.407   .     A
C776   H792    1.081   .     S
C777   H793    1.082   .     S
C777   N800    1.364   .     A
C778   H798    1.081   .     S
C779   H784    1.081   .     S
C780   H785    1.081   .     S
Cu781  O814    1.931   .     S
Cu781  Cu782   2.676   .     S
Cu781  O812    1.931   .     S
Cu781  O801    1.957   .     S
Cu781  N800    2.010   .     S
Cu781  O810    1.957   .     S
Cu782  O815    1.931   .     S
Cu782  N799    2.010   .     S
Cu782  O811    1.957   .     S
Cu782  O813    1.931   .     S
Cu782  O809    1.957   .     S
H787   O802    1.014   .     S
H788   O804    1.014   .     S
H789   O806    1.014   .     S
H790   O808    1.014   .     S
