data_str_m2_o5_o17_pcu_sym.15
_audit_creation_date              2020-01-03
_audit_creation_method            'Materials Studio'
_symmetry_space_group_name_H-M    'P1'
_symmetry_Int_Tables_number       1
_symmetry_cell_setting            triclinic
loop_
_symmetry_equiv_pos_as_xyz
  x,y,z
_cell_length_a                    30.2052
_cell_length_b                    27.2947
_cell_length_c                    23.3844
_cell_angle_alpha                 90.0481
_cell_angle_beta                  90.2700
_cell_angle_gamma                 90.3180
loop_
_atom_site_label
_atom_site_type_symbol
_atom_site_fract_x
_atom_site_fract_y
_atom_site_fract_z
_atom_site_U_iso_or_equiv
_atom_site_adp_type
_atom_site_occupancy
O1     O     0.25000   0.09613   0.21425   0.00000  Uiso   1.00
O2     O     0.25000   0.23720   0.11908   0.00000  Uiso   1.00
O3     O     0.25000   0.23720   0.21425   0.00000  Uiso   1.00
O4     O     0.25000   0.09613   0.11908   0.00000  Uiso   1.00
H5     H     0.45948   0.04317   0.15393   0.00000  Uiso   1.00
H6     H     0.04052   0.29017   0.17917   0.00000  Uiso   1.00
H7     H     0.46210   0.29070   0.17917   0.00000  Uiso   1.00
H8     H     0.03790   0.04264   0.15396   0.00000  Uiso   1.00
C9     C     0.25026   0.07335   0.16666   0.00000  Uiso   1.00
C10    C     0.24974   0.25998   0.16667   0.00000  Uiso   1.00
O11    O     0.18513   0.16667   0.21427   0.00000  Uiso   1.00
O12    O     0.31487   0.16667   0.11907   0.00000  Uiso   1.00
O13    O     0.31487   0.16667   0.21427   0.00000  Uiso   1.00
O14    O     0.18513   0.16667   0.11907   0.00000  Uiso   1.00
C15    C     0.16442   0.16609   0.16651   0.00000  Uiso   1.00
C16    C     0.33558   0.16724   0.16682   0.00000  Uiso   1.00
Cu17   Cu    0.25000   0.16667   0.22303   0.00000  Uiso   1.00
Cu18   Cu    0.25000   0.16667   0.11031   0.00000  Uiso   1.00
N19    N     0.25000   0.16667   0.02561   0.00000  Uiso   1.00
N20    N     0.25000   0.16667   0.30773   0.00000  Uiso   1.00
C21    C     0.40697   0.21224   0.16767   0.00000  Uiso   1.00
C22    C     0.09302   0.12109   0.16562   0.00000  Uiso   1.00
C23    C     0.40606   0.12213   0.16814   0.00000  Uiso   1.00
C24    C     0.09393   0.21119   0.16516   0.00000  Uiso   1.00
C25    C     0.38372   0.16727   0.16738   0.00000  Uiso   1.00
C26    C     0.11628   0.16605   0.16594   0.00000  Uiso   1.00
C27    C     0.45271   0.12189   0.16549   0.00000  Uiso   1.00
C28    C     0.04729   0.21143   0.16774   0.00000  Uiso   1.00
C29    C     0.45362   0.21188   0.16899   0.00000  Uiso   1.00
C30    C     0.04637   0.12145   0.16424   0.00000  Uiso   1.00
C31    C     0.47652   0.16677   0.16692   0.00000  Uiso   1.00
C32    C     0.02348   0.16655   0.16631   0.00000  Uiso   1.00
C33    C     0.47616   0.07793   0.15960   0.00000  Uiso   1.00
C34    C     0.02384   0.25540   0.17356   0.00000  Uiso   1.00
C35    C     0.47803   0.25566   0.17391   0.00000  Uiso   1.00
C36    C     0.02197   0.07767   0.15927   0.00000  Uiso   1.00
C37    C     0.25010   0.02179   0.16666   0.00000  Uiso   1.00
C38    C     0.24990   0.31155   0.16668   0.00000  Uiso   1.00
C39    C     0.38265   0.25957   0.16555   0.00000  Uiso   1.00
H40    H     0.39394   0.28875   0.13761   0.00000  Uiso   1.00
O41    O     0.35067   0.26681   0.19605   0.00000  Uiso   1.00
C42    C     0.11734   0.07376   0.16778   0.00000  Uiso   1.00
H43    H     0.10601   0.04456   0.19569   0.00000  Uiso   1.00
O44    O     0.14938   0.06652   0.13738   0.00000  Uiso   1.00
C45    C     0.37982   0.07587   0.17276   0.00000  Uiso   1.00
H46    H     0.34958   0.07122   0.14807   0.00000  Uiso   1.00
O47    O     0.39051   0.04384   0.20645   0.00000  Uiso   1.00
C48    C     0.12017   0.25745   0.16062   0.00000  Uiso   1.00
H49    H     0.15027   0.26219   0.18555   0.00000  Uiso   1.00
O50    O     0.10964   0.28937   0.12672   0.00000  Uiso   1.00
O51    O     0.75000   0.09613   0.21425   0.00000  Uiso   1.00
O52    O     0.75000   0.23720   0.11908   0.00000  Uiso   1.00
O53    O     0.75000   0.23720   0.21425   0.00000  Uiso   1.00
O54    O     0.75000   0.09613   0.11908   0.00000  Uiso   1.00
H55    H     0.95948   0.04317   0.15393   0.00000  Uiso   1.00
H56    H     0.54052   0.29017   0.17917   0.00000  Uiso   1.00
H57    H     0.96210   0.29070   0.17917   0.00000  Uiso   1.00
H58    H     0.53790   0.04264   0.15396   0.00000  Uiso   1.00
C59    C     0.75026   0.07335   0.16666   0.00000  Uiso   1.00
C60    C     0.74974   0.25998   0.16667   0.00000  Uiso   1.00
O61    O     0.68513   0.16667   0.21427   0.00000  Uiso   1.00
O62    O     0.81487   0.16667   0.11907   0.00000  Uiso   1.00
O63    O     0.81487   0.16667   0.21427   0.00000  Uiso   1.00
O64    O     0.68513   0.16667   0.11907   0.00000  Uiso   1.00
C65    C     0.66442   0.16609   0.16651   0.00000  Uiso   1.00
C66    C     0.83558   0.16724   0.16682   0.00000  Uiso   1.00
Cu67   Cu    0.75000   0.16667   0.22303   0.00000  Uiso   1.00
Cu68   Cu    0.75000   0.16667   0.11031   0.00000  Uiso   1.00
N69    N     0.75000   0.16667   0.02561   0.00000  Uiso   1.00
N70    N     0.75000   0.16667   0.30773   0.00000  Uiso   1.00
C71    C     0.90697   0.21224   0.16767   0.00000  Uiso   1.00
C72    C     0.59302   0.12109   0.16562   0.00000  Uiso   1.00
C73    C     0.90606   0.12213   0.16814   0.00000  Uiso   1.00
C74    C     0.59393   0.21119   0.16516   0.00000  Uiso   1.00
C75    C     0.88372   0.16727   0.16738   0.00000  Uiso   1.00
C76    C     0.61628   0.16605   0.16594   0.00000  Uiso   1.00
C77    C     0.95271   0.12189   0.16549   0.00000  Uiso   1.00
C78    C     0.54729   0.21143   0.16774   0.00000  Uiso   1.00
C79    C     0.95362   0.21188   0.16899   0.00000  Uiso   1.00
C80    C     0.54637   0.12145   0.16424   0.00000  Uiso   1.00
C81    C     0.97652   0.16677   0.16692   0.00000  Uiso   1.00
C82    C     0.52348   0.16655   0.16631   0.00000  Uiso   1.00
C83    C     0.97616   0.07793   0.15960   0.00000  Uiso   1.00
C84    C     0.52384   0.25540   0.17356   0.00000  Uiso   1.00
C85    C     0.97803   0.25566   0.17391   0.00000  Uiso   1.00
C86    C     0.52197   0.07767   0.15927   0.00000  Uiso   1.00
C87    C     0.75010   0.02179   0.16666   0.00000  Uiso   1.00
C88    C     0.74990   0.31155   0.16668   0.00000  Uiso   1.00
C89    C     0.88265   0.25957   0.16555   0.00000  Uiso   1.00
H90    H     0.89394   0.28875   0.13761   0.00000  Uiso   1.00
O91    O     0.85067   0.26681   0.19605   0.00000  Uiso   1.00
C92    C     0.61734   0.07376   0.16778   0.00000  Uiso   1.00
H93    H     0.60601   0.04456   0.19569   0.00000  Uiso   1.00
O94    O     0.64938   0.06652   0.13738   0.00000  Uiso   1.00
C95    C     0.87982   0.07587   0.17276   0.00000  Uiso   1.00
H96    H     0.84958   0.07122   0.14807   0.00000  Uiso   1.00
O97    O     0.89051   0.04384   0.20645   0.00000  Uiso   1.00
C98    C     0.62017   0.25745   0.16062   0.00000  Uiso   1.00
H99    H     0.65027   0.26219   0.18555   0.00000  Uiso   1.00
O100   O     0.60964   0.28937   0.12672   0.00000  Uiso   1.00
O101   O     0.25000   0.42946   0.21425   0.00000  Uiso   1.00
O102   O     0.25000   0.57054   0.11908   0.00000  Uiso   1.00
O103   O     0.25000   0.57054   0.21425   0.00000  Uiso   1.00
O104   O     0.25000   0.42946   0.11908   0.00000  Uiso   1.00
H105   H     0.45948   0.37650   0.15393   0.00000  Uiso   1.00
H106   H     0.04052   0.62350   0.17917   0.00000  Uiso   1.00
H107   H     0.46210   0.62403   0.17917   0.00000  Uiso   1.00
H108   H     0.03790   0.37597   0.15396   0.00000  Uiso   1.00
C109   C     0.25026   0.40668   0.16666   0.00000  Uiso   1.00
C110   C     0.24974   0.59332   0.16667   0.00000  Uiso   1.00
O111   O     0.18513   0.50000   0.21427   0.00000  Uiso   1.00
O112   O     0.31487   0.50000   0.11907   0.00000  Uiso   1.00
O113   O     0.31487   0.50000   0.21427   0.00000  Uiso   1.00
O114   O     0.18513   0.50000   0.11907   0.00000  Uiso   1.00
C115   C     0.16442   0.49942   0.16651   0.00000  Uiso   1.00
C116   C     0.33558   0.50058   0.16682   0.00000  Uiso   1.00
Cu117  Cu    0.25000   0.50000   0.22303   0.00000  Uiso   1.00
Cu118  Cu    0.25000   0.50000   0.11031   0.00000  Uiso   1.00
N119   N     0.25000   0.50000   0.02561   0.00000  Uiso   1.00
N120   N     0.25000   0.50000   0.30773   0.00000  Uiso   1.00
C121   C     0.40697   0.54557   0.16767   0.00000  Uiso   1.00
C122   C     0.09302   0.45442   0.16562   0.00000  Uiso   1.00
C123   C     0.40606   0.45546   0.16814   0.00000  Uiso   1.00
C124   C     0.09393   0.54453   0.16516   0.00000  Uiso   1.00
C125   C     0.38372   0.50060   0.16738   0.00000  Uiso   1.00
C126   C     0.11628   0.49939   0.16594   0.00000  Uiso   1.00
C127   C     0.45271   0.45523   0.16549   0.00000  Uiso   1.00
C128   C     0.04729   0.54476   0.16774   0.00000  Uiso   1.00
C129   C     0.45362   0.54521   0.16899   0.00000  Uiso   1.00
C130   C     0.04637   0.45478   0.16424   0.00000  Uiso   1.00
C131   C     0.47652   0.50011   0.16692   0.00000  Uiso   1.00
C132   C     0.02348   0.49989   0.16631   0.00000  Uiso   1.00
C133   C     0.47616   0.41126   0.15960   0.00000  Uiso   1.00
C134   C     0.02384   0.58873   0.17356   0.00000  Uiso   1.00
C135   C     0.47803   0.58899   0.17391   0.00000  Uiso   1.00
C136   C     0.02197   0.41101   0.15927   0.00000  Uiso   1.00
C137   C     0.25010   0.35512   0.16666   0.00000  Uiso   1.00
C138   C     0.24990   0.64488   0.16668   0.00000  Uiso   1.00
C139   C     0.38265   0.59290   0.16555   0.00000  Uiso   1.00
H140   H     0.39394   0.62209   0.13761   0.00000  Uiso   1.00
O141   O     0.35067   0.60014   0.19605   0.00000  Uiso   1.00
C142   C     0.11734   0.40709   0.16778   0.00000  Uiso   1.00
H143   H     0.10601   0.37790   0.19569   0.00000  Uiso   1.00
O144   O     0.14938   0.39986   0.13738   0.00000  Uiso   1.00
C145   C     0.37982   0.40921   0.17276   0.00000  Uiso   1.00
H146   H     0.34958   0.40455   0.14807   0.00000  Uiso   1.00
O147   O     0.39051   0.37718   0.20645   0.00000  Uiso   1.00
C148   C     0.12017   0.59078   0.16062   0.00000  Uiso   1.00
H149   H     0.15027   0.59552   0.18555   0.00000  Uiso   1.00
O150   O     0.10964   0.62270   0.12672   0.00000  Uiso   1.00
O151   O     0.75000   0.42946   0.21425   0.00000  Uiso   1.00
O152   O     0.75000   0.57054   0.11908   0.00000  Uiso   1.00
O153   O     0.75000   0.57054   0.21425   0.00000  Uiso   1.00
O154   O     0.75000   0.42946   0.11908   0.00000  Uiso   1.00
H155   H     0.95948   0.37650   0.15393   0.00000  Uiso   1.00
H156   H     0.54052   0.62350   0.17917   0.00000  Uiso   1.00
H157   H     0.96210   0.62403   0.17917   0.00000  Uiso   1.00
H158   H     0.53790   0.37597   0.15396   0.00000  Uiso   1.00
C159   C     0.75026   0.40668   0.16666   0.00000  Uiso   1.00
C160   C     0.74974   0.59332   0.16667   0.00000  Uiso   1.00
O161   O     0.68513   0.50000   0.21427   0.00000  Uiso   1.00
O162   O     0.81487   0.50000   0.11907   0.00000  Uiso   1.00
O163   O     0.81487   0.50000   0.21427   0.00000  Uiso   1.00
O164   O     0.68513   0.50000   0.11907   0.00000  Uiso   1.00
C165   C     0.66442   0.49942   0.16651   0.00000  Uiso   1.00
C166   C     0.83558   0.50058   0.16682   0.00000  Uiso   1.00
Cu167  Cu    0.75000   0.50000   0.22303   0.00000  Uiso   1.00
Cu168  Cu    0.75000   0.50000   0.11031   0.00000  Uiso   1.00
N169   N     0.75000   0.50000   0.02561   0.00000  Uiso   1.00
N170   N     0.75000   0.50000   0.30773   0.00000  Uiso   1.00
C171   C     0.90697   0.54557   0.16767   0.00000  Uiso   1.00
C172   C     0.59302   0.45442   0.16562   0.00000  Uiso   1.00
C173   C     0.90606   0.45546   0.16814   0.00000  Uiso   1.00
C174   C     0.59393   0.54453   0.16516   0.00000  Uiso   1.00
C175   C     0.88372   0.50060   0.16738   0.00000  Uiso   1.00
C176   C     0.61628   0.49939   0.16594   0.00000  Uiso   1.00
C177   C     0.95271   0.45523   0.16549   0.00000  Uiso   1.00
C178   C     0.54729   0.54476   0.16774   0.00000  Uiso   1.00
C179   C     0.95362   0.54521   0.16899   0.00000  Uiso   1.00
C180   C     0.54637   0.45478   0.16424   0.00000  Uiso   1.00
C181   C     0.97652   0.50011   0.16692   0.00000  Uiso   1.00
C182   C     0.52348   0.49989   0.16631   0.00000  Uiso   1.00
C183   C     0.97616   0.41126   0.15960   0.00000  Uiso   1.00
C184   C     0.52384   0.58873   0.17356   0.00000  Uiso   1.00
C185   C     0.97803   0.58899   0.17391   0.00000  Uiso   1.00
C186   C     0.52197   0.41101   0.15927   0.00000  Uiso   1.00
C187   C     0.75010   0.35512   0.16666   0.00000  Uiso   1.00
C188   C     0.74990   0.64488   0.16668   0.00000  Uiso   1.00
C189   C     0.88265   0.59290   0.16555   0.00000  Uiso   1.00
H190   H     0.89394   0.62209   0.13761   0.00000  Uiso   1.00
O191   O     0.85067   0.60014   0.19605   0.00000  Uiso   1.00
C192   C     0.61734   0.40709   0.16778   0.00000  Uiso   1.00
H193   H     0.60601   0.37790   0.19569   0.00000  Uiso   1.00
O194   O     0.64938   0.39986   0.13738   0.00000  Uiso   1.00
C195   C     0.87982   0.40921   0.17276   0.00000  Uiso   1.00
H196   H     0.84958   0.40455   0.14807   0.00000  Uiso   1.00
O197   O     0.89051   0.37718   0.20645   0.00000  Uiso   1.00
C198   C     0.62017   0.59078   0.16062   0.00000  Uiso   1.00
H199   H     0.65027   0.59552   0.18555   0.00000  Uiso   1.00
O200   O     0.60964   0.62270   0.12672   0.00000  Uiso   1.00
O201   O     0.25000   0.76280   0.21425   0.00000  Uiso   1.00
O202   O     0.25000   0.90387   0.11908   0.00000  Uiso   1.00
O203   O     0.25000   0.90387   0.21425   0.00000  Uiso   1.00
O204   O     0.25000   0.76280   0.11908   0.00000  Uiso   1.00
H205   H     0.45948   0.70983   0.15393   0.00000  Uiso   1.00
H206   H     0.04052   0.95684   0.17917   0.00000  Uiso   1.00
H207   H     0.46210   0.95736   0.17917   0.00000  Uiso   1.00
H208   H     0.03790   0.70930   0.15396   0.00000  Uiso   1.00
C209   C     0.25026   0.74002   0.16666   0.00000  Uiso   1.00
C210   C     0.24974   0.92665   0.16667   0.00000  Uiso   1.00
O211   O     0.18513   0.83333   0.21427   0.00000  Uiso   1.00
O212   O     0.31487   0.83333   0.11907   0.00000  Uiso   1.00
O213   O     0.31487   0.83333   0.21427   0.00000  Uiso   1.00
O214   O     0.18513   0.83333   0.11907   0.00000  Uiso   1.00
C215   C     0.16442   0.83276   0.16651   0.00000  Uiso   1.00
C216   C     0.33558   0.83391   0.16682   0.00000  Uiso   1.00
Cu217  Cu    0.25000   0.83333   0.22303   0.00000  Uiso   1.00
Cu218  Cu    0.25000   0.83333   0.11031   0.00000  Uiso   1.00
N219   N     0.25000   0.83333   0.02561   0.00000  Uiso   1.00
N220   N     0.25000   0.83333   0.30773   0.00000  Uiso   1.00
C221   C     0.40697   0.87890   0.16767   0.00000  Uiso   1.00
C222   C     0.09302   0.78775   0.16562   0.00000  Uiso   1.00
C223   C     0.40606   0.78879   0.16814   0.00000  Uiso   1.00
C224   C     0.09393   0.87786   0.16516   0.00000  Uiso   1.00
C225   C     0.38372   0.83394   0.16738   0.00000  Uiso   1.00
C226   C     0.11628   0.83272   0.16594   0.00000  Uiso   1.00
C227   C     0.45271   0.78856   0.16549   0.00000  Uiso   1.00
C228   C     0.04729   0.87809   0.16774   0.00000  Uiso   1.00
C229   C     0.45362   0.87855   0.16899   0.00000  Uiso   1.00
C230   C     0.04637   0.78811   0.16424   0.00000  Uiso   1.00
C231   C     0.47652   0.83344   0.16692   0.00000  Uiso   1.00
C232   C     0.02348   0.83322   0.16631   0.00000  Uiso   1.00
C233   C     0.47616   0.74459   0.15960   0.00000  Uiso   1.00
C234   C     0.02384   0.92207   0.17356   0.00000  Uiso   1.00
C235   C     0.47803   0.92232   0.17391   0.00000  Uiso   1.00
C236   C     0.02197   0.74434   0.15927   0.00000  Uiso   1.00
C237   C     0.25010   0.68845   0.16666   0.00000  Uiso   1.00
C238   C     0.24990   0.97821   0.16668   0.00000  Uiso   1.00
C239   C     0.38265   0.92623   0.16555   0.00000  Uiso   1.00
H240   H     0.39394   0.95542   0.13761   0.00000  Uiso   1.00
O241   O     0.35067   0.93347   0.19605   0.00000  Uiso   1.00
C242   C     0.11734   0.74042   0.16778   0.00000  Uiso   1.00
H243   H     0.10601   0.71123   0.19569   0.00000  Uiso   1.00
O244   O     0.14938   0.73319   0.13738   0.00000  Uiso   1.00
C245   C     0.37982   0.74254   0.17276   0.00000  Uiso   1.00
H246   H     0.34958   0.73788   0.14807   0.00000  Uiso   1.00
O247   O     0.39051   0.71051   0.20645   0.00000  Uiso   1.00
C248   C     0.12017   0.92411   0.16062   0.00000  Uiso   1.00
H249   H     0.15027   0.92885   0.18555   0.00000  Uiso   1.00
O250   O     0.10964   0.95604   0.12672   0.00000  Uiso   1.00
O251   O     0.75000   0.76280   0.21425   0.00000  Uiso   1.00
O252   O     0.75000   0.90387   0.11908   0.00000  Uiso   1.00
O253   O     0.75000   0.90387   0.21425   0.00000  Uiso   1.00
O254   O     0.75000   0.76280   0.11908   0.00000  Uiso   1.00
H255   H     0.95948   0.70983   0.15393   0.00000  Uiso   1.00
H256   H     0.54052   0.95684   0.17917   0.00000  Uiso   1.00
H257   H     0.96210   0.95736   0.17917   0.00000  Uiso   1.00
H258   H     0.53790   0.70930   0.15396   0.00000  Uiso   1.00
C259   C     0.75026   0.74002   0.16666   0.00000  Uiso   1.00
C260   C     0.74974   0.92665   0.16667   0.00000  Uiso   1.00
O261   O     0.68513   0.83333   0.21427   0.00000  Uiso   1.00
O262   O     0.81487   0.83333   0.11907   0.00000  Uiso   1.00
O263   O     0.81487   0.83333   0.21427   0.00000  Uiso   1.00
O264   O     0.68513   0.83333   0.11907   0.00000  Uiso   1.00
C265   C     0.66442   0.83276   0.16651   0.00000  Uiso   1.00
C266   C     0.83558   0.83391   0.16682   0.00000  Uiso   1.00
Cu267  Cu    0.75000   0.83333   0.22303   0.00000  Uiso   1.00
Cu268  Cu    0.75000   0.83333   0.11031   0.00000  Uiso   1.00
N269   N     0.75000   0.83333   0.02561   0.00000  Uiso   1.00
N270   N     0.75000   0.83333   0.30773   0.00000  Uiso   1.00
C271   C     0.90697   0.87890   0.16767   0.00000  Uiso   1.00
C272   C     0.59302   0.78775   0.16562   0.00000  Uiso   1.00
C273   C     0.90606   0.78879   0.16814   0.00000  Uiso   1.00
C274   C     0.59393   0.87786   0.16516   0.00000  Uiso   1.00
C275   C     0.88372   0.83394   0.16738   0.00000  Uiso   1.00
C276   C     0.61628   0.83272   0.16594   0.00000  Uiso   1.00
C277   C     0.95271   0.78856   0.16549   0.00000  Uiso   1.00
C278   C     0.54729   0.87809   0.16774   0.00000  Uiso   1.00
C279   C     0.95362   0.87855   0.16899   0.00000  Uiso   1.00
C280   C     0.54637   0.78811   0.16424   0.00000  Uiso   1.00
C281   C     0.97652   0.83344   0.16692   0.00000  Uiso   1.00
C282   C     0.52348   0.83322   0.16631   0.00000  Uiso   1.00
C283   C     0.97616   0.74459   0.15960   0.00000  Uiso   1.00
C284   C     0.52384   0.92207   0.17356   0.00000  Uiso   1.00
C285   C     0.97803   0.92232   0.17391   0.00000  Uiso   1.00
C286   C     0.52197   0.74434   0.15927   0.00000  Uiso   1.00
C287   C     0.75010   0.68845   0.16666   0.00000  Uiso   1.00
C288   C     0.74990   0.97821   0.16668   0.00000  Uiso   1.00
C289   C     0.88265   0.92623   0.16555   0.00000  Uiso   1.00
H290   H     0.89394   0.95542   0.13761   0.00000  Uiso   1.00
O291   O     0.85067   0.93347   0.19605   0.00000  Uiso   1.00
C292   C     0.61734   0.74042   0.16778   0.00000  Uiso   1.00
H293   H     0.60601   0.71123   0.19569   0.00000  Uiso   1.00
O294   O     0.64938   0.73319   0.13738   0.00000  Uiso   1.00
C295   C     0.87982   0.74254   0.17276   0.00000  Uiso   1.00
H296   H     0.84958   0.73788   0.14807   0.00000  Uiso   1.00
O297   O     0.89051   0.71051   0.20645   0.00000  Uiso   1.00
C298   C     0.62017   0.92411   0.16062   0.00000  Uiso   1.00
H299   H     0.65027   0.92885   0.18555   0.00000  Uiso   1.00
O300   O     0.60964   0.95604   0.12672   0.00000  Uiso   1.00
O301   O     0.25000   0.09613   0.54759   0.00000  Uiso   1.00
O302   O     0.25000   0.23720   0.45241   0.00000  Uiso   1.00
O303   O     0.25000   0.23720   0.54759   0.00000  Uiso   1.00
O304   O     0.25000   0.09613   0.45241   0.00000  Uiso   1.00
H305   H     0.45948   0.04317   0.48726   0.00000  Uiso   1.00
H306   H     0.04052   0.29017   0.51250   0.00000  Uiso   1.00
H307   H     0.46210   0.29070   0.51251   0.00000  Uiso   1.00
H308   H     0.03790   0.04264   0.48729   0.00000  Uiso   1.00
C309   C     0.25026   0.07335   0.49999   0.00000  Uiso   1.00
C310   C     0.24974   0.25998   0.50001   0.00000  Uiso   1.00
O311   O     0.18513   0.16667   0.54760   0.00000  Uiso   1.00
O312   O     0.31487   0.16667   0.45240   0.00000  Uiso   1.00
O313   O     0.31487   0.16667   0.54760   0.00000  Uiso   1.00
O314   O     0.18513   0.16667   0.45240   0.00000  Uiso   1.00
C315   C     0.16442   0.16609   0.49984   0.00000  Uiso   1.00
C316   C     0.33558   0.16724   0.50016   0.00000  Uiso   1.00
Cu317  Cu    0.25000   0.16667   0.55636   0.00000  Uiso   1.00
Cu318  Cu    0.25000   0.16667   0.44364   0.00000  Uiso   1.00
N319   N     0.25000   0.16667   0.35894   0.00000  Uiso   1.00
N320   N     0.25000   0.16667   0.64106   0.00000  Uiso   1.00
C321   C     0.40697   0.21224   0.50100   0.00000  Uiso   1.00
C322   C     0.09302   0.12109   0.49895   0.00000  Uiso   1.00
C323   C     0.40606   0.12213   0.50148   0.00000  Uiso   1.00
C324   C     0.09393   0.21119   0.49849   0.00000  Uiso   1.00
C325   C     0.38372   0.16727   0.50072   0.00000  Uiso   1.00
C326   C     0.11628   0.16605   0.49927   0.00000  Uiso   1.00
C327   C     0.45271   0.12189   0.49883   0.00000  Uiso   1.00
C328   C     0.04729   0.21143   0.50108   0.00000  Uiso   1.00
C329   C     0.45362   0.21188   0.50232   0.00000  Uiso   1.00
C330   C     0.04637   0.12145   0.49758   0.00000  Uiso   1.00
C331   C     0.47652   0.16677   0.50026   0.00000  Uiso   1.00
C332   C     0.02348   0.16655   0.49964   0.00000  Uiso   1.00
C333   C     0.47616   0.07793   0.49294   0.00000  Uiso   1.00
C334   C     0.02384   0.25540   0.50689   0.00000  Uiso   1.00
C335   C     0.47803   0.25566   0.50724   0.00000  Uiso   1.00
C336   C     0.02197   0.07767   0.49260   0.00000  Uiso   1.00
C337   C     0.25010   0.02179   0.49999   0.00000  Uiso   1.00
C338   C     0.24990   0.31155   0.50001   0.00000  Uiso   1.00
C339   C     0.38265   0.25957   0.49888   0.00000  Uiso   1.00
H340   H     0.39394   0.28875   0.47094   0.00000  Uiso   1.00
O341   O     0.35067   0.26681   0.52938   0.00000  Uiso   1.00
C342   C     0.11734   0.07376   0.50112   0.00000  Uiso   1.00
H343   H     0.10601   0.04456   0.52902   0.00000  Uiso   1.00
O344   O     0.14938   0.06652   0.47071   0.00000  Uiso   1.00
C345   C     0.37982   0.07587   0.50609   0.00000  Uiso   1.00
H346   H     0.34958   0.07122   0.48141   0.00000  Uiso   1.00
O347   O     0.39051   0.04384   0.53979   0.00000  Uiso   1.00
C348   C     0.12017   0.25745   0.49395   0.00000  Uiso   1.00
H349   H     0.15027   0.26219   0.51889   0.00000  Uiso   1.00
O350   O     0.10964   0.28937   0.46006   0.00000  Uiso   1.00
O351   O     0.75000   0.09613   0.54759   0.00000  Uiso   1.00
O352   O     0.75000   0.23720   0.45241   0.00000  Uiso   1.00
O353   O     0.75000   0.23720   0.54759   0.00000  Uiso   1.00
O354   O     0.75000   0.09613   0.45241   0.00000  Uiso   1.00
H355   H     0.95948   0.04317   0.48726   0.00000  Uiso   1.00
H356   H     0.54052   0.29017   0.51250   0.00000  Uiso   1.00
H357   H     0.96210   0.29070   0.51251   0.00000  Uiso   1.00
H358   H     0.53790   0.04264   0.48729   0.00000  Uiso   1.00
C359   C     0.75026   0.07335   0.49999   0.00000  Uiso   1.00
C360   C     0.74974   0.25998   0.50001   0.00000  Uiso   1.00
O361   O     0.68513   0.16667   0.54760   0.00000  Uiso   1.00
O362   O     0.81487   0.16667   0.45240   0.00000  Uiso   1.00
O363   O     0.81487   0.16667   0.54760   0.00000  Uiso   1.00
O364   O     0.68513   0.16667   0.45240   0.00000  Uiso   1.00
C365   C     0.66442   0.16609   0.49984   0.00000  Uiso   1.00
C366   C     0.83558   0.16724   0.50016   0.00000  Uiso   1.00
Cu367  Cu    0.75000   0.16667   0.55636   0.00000  Uiso   1.00
Cu368  Cu    0.75000   0.16667   0.44364   0.00000  Uiso   1.00
N369   N     0.75000   0.16667   0.35894   0.00000  Uiso   1.00
N370   N     0.75000   0.16667   0.64106   0.00000  Uiso   1.00
C371   C     0.90697   0.21224   0.50100   0.00000  Uiso   1.00
C372   C     0.59302   0.12109   0.49895   0.00000  Uiso   1.00
C373   C     0.90606   0.12213   0.50148   0.00000  Uiso   1.00
C374   C     0.59393   0.21119   0.49849   0.00000  Uiso   1.00
C375   C     0.88372   0.16727   0.50072   0.00000  Uiso   1.00
C376   C     0.61628   0.16605   0.49927   0.00000  Uiso   1.00
C377   C     0.95271   0.12189   0.49883   0.00000  Uiso   1.00
C378   C     0.54729   0.21143   0.50108   0.00000  Uiso   1.00
C379   C     0.95362   0.21188   0.50232   0.00000  Uiso   1.00
C380   C     0.54637   0.12145   0.49758   0.00000  Uiso   1.00
C381   C     0.97652   0.16677   0.50026   0.00000  Uiso   1.00
C382   C     0.52348   0.16655   0.49964   0.00000  Uiso   1.00
C383   C     0.97616   0.07793   0.49294   0.00000  Uiso   1.00
C384   C     0.52384   0.25540   0.50689   0.00000  Uiso   1.00
C385   C     0.97803   0.25566   0.50724   0.00000  Uiso   1.00
C386   C     0.52197   0.07767   0.49260   0.00000  Uiso   1.00
C387   C     0.75010   0.02179   0.49999   0.00000  Uiso   1.00
C388   C     0.74990   0.31155   0.50001   0.00000  Uiso   1.00
C389   C     0.88265   0.25957   0.49888   0.00000  Uiso   1.00
H390   H     0.89394   0.28875   0.47094   0.00000  Uiso   1.00
O391   O     0.85067   0.26681   0.52938   0.00000  Uiso   1.00
C392   C     0.61734   0.07376   0.50112   0.00000  Uiso   1.00
H393   H     0.60601   0.04456   0.52902   0.00000  Uiso   1.00
O394   O     0.64938   0.06652   0.47071   0.00000  Uiso   1.00
C395   C     0.87982   0.07587   0.50609   0.00000  Uiso   1.00
H396   H     0.84958   0.07122   0.48141   0.00000  Uiso   1.00
O397   O     0.89051   0.04384   0.53979   0.00000  Uiso   1.00
C398   C     0.62017   0.25745   0.49395   0.00000  Uiso   1.00
H399   H     0.65027   0.26219   0.51889   0.00000  Uiso   1.00
O400   O     0.60964   0.28937   0.46006   0.00000  Uiso   1.00
O401   O     0.25000   0.42946   0.54759   0.00000  Uiso   1.00
O402   O     0.25000   0.57054   0.45241   0.00000  Uiso   1.00
O403   O     0.25000   0.57054   0.54759   0.00000  Uiso   1.00
O404   O     0.25000   0.42946   0.45241   0.00000  Uiso   1.00
H405   H     0.45948   0.37650   0.48726   0.00000  Uiso   1.00
H406   H     0.04052   0.62350   0.51250   0.00000  Uiso   1.00
H407   H     0.46210   0.62403   0.51251   0.00000  Uiso   1.00
H408   H     0.03790   0.37597   0.48729   0.00000  Uiso   1.00
C409   C     0.25026   0.40668   0.49999   0.00000  Uiso   1.00
C410   C     0.24974   0.59332   0.50001   0.00000  Uiso   1.00
O411   O     0.18513   0.50000   0.54760   0.00000  Uiso   1.00
O412   O     0.31487   0.50000   0.45240   0.00000  Uiso   1.00
O413   O     0.31487   0.50000   0.54760   0.00000  Uiso   1.00
O414   O     0.18513   0.50000   0.45240   0.00000  Uiso   1.00
C415   C     0.16442   0.49942   0.49984   0.00000  Uiso   1.00
C416   C     0.33558   0.50058   0.50016   0.00000  Uiso   1.00
Cu417  Cu    0.25000   0.50000   0.55636   0.00000  Uiso   1.00
Cu418  Cu    0.25000   0.50000   0.44364   0.00000  Uiso   1.00
N419   N     0.25000   0.50000   0.35894   0.00000  Uiso   1.00
N420   N     0.25000   0.50000   0.64106   0.00000  Uiso   1.00
C421   C     0.40697   0.54557   0.50100   0.00000  Uiso   1.00
C422   C     0.09302   0.45442   0.49895   0.00000  Uiso   1.00
C423   C     0.40606   0.45546   0.50148   0.00000  Uiso   1.00
C424   C     0.09393   0.54453   0.49849   0.00000  Uiso   1.00
C425   C     0.38372   0.50060   0.50072   0.00000  Uiso   1.00
C426   C     0.11628   0.49939   0.49927   0.00000  Uiso   1.00
C427   C     0.45271   0.45523   0.49883   0.00000  Uiso   1.00
C428   C     0.04729   0.54476   0.50108   0.00000  Uiso   1.00
C429   C     0.45362   0.54521   0.50232   0.00000  Uiso   1.00
C430   C     0.04637   0.45478   0.49758   0.00000  Uiso   1.00
C431   C     0.47652   0.50011   0.50026   0.00000  Uiso   1.00
C432   C     0.02348   0.49989   0.49964   0.00000  Uiso   1.00
C433   C     0.47616   0.41126   0.49294   0.00000  Uiso   1.00
C434   C     0.02384   0.58873   0.50689   0.00000  Uiso   1.00
C435   C     0.47803   0.58899   0.50724   0.00000  Uiso   1.00
C436   C     0.02197   0.41101   0.49260   0.00000  Uiso   1.00
C437   C     0.25010   0.35512   0.49999   0.00000  Uiso   1.00
C438   C     0.24990   0.64488   0.50001   0.00000  Uiso   1.00
C439   C     0.38265   0.59290   0.49888   0.00000  Uiso   1.00
H440   H     0.39394   0.62209   0.47094   0.00000  Uiso   1.00
O441   O     0.35067   0.60014   0.52938   0.00000  Uiso   1.00
C442   C     0.11734   0.40709   0.50112   0.00000  Uiso   1.00
H443   H     0.10601   0.37790   0.52902   0.00000  Uiso   1.00
O444   O     0.14938   0.39986   0.47071   0.00000  Uiso   1.00
C445   C     0.37982   0.40921   0.50609   0.00000  Uiso   1.00
H446   H     0.34958   0.40455   0.48141   0.00000  Uiso   1.00
O447   O     0.39051   0.37718   0.53979   0.00000  Uiso   1.00
C448   C     0.12017   0.59078   0.49395   0.00000  Uiso   1.00
H449   H     0.15027   0.59552   0.51889   0.00000  Uiso   1.00
O450   O     0.10964   0.62270   0.46006   0.00000  Uiso   1.00
O451   O     0.75000   0.42946   0.54759   0.00000  Uiso   1.00
O452   O     0.75000   0.57054   0.45241   0.00000  Uiso   1.00
O453   O     0.75000   0.57054   0.54759   0.00000  Uiso   1.00
O454   O     0.75000   0.42946   0.45241   0.00000  Uiso   1.00
H455   H     0.95948   0.37650   0.48726   0.00000  Uiso   1.00
H456   H     0.54052   0.62350   0.51250   0.00000  Uiso   1.00
H457   H     0.96210   0.62403   0.51251   0.00000  Uiso   1.00
H458   H     0.53790   0.37597   0.48729   0.00000  Uiso   1.00
C459   C     0.75026   0.40668   0.49999   0.00000  Uiso   1.00
C460   C     0.74974   0.59332   0.50001   0.00000  Uiso   1.00
O461   O     0.68513   0.50000   0.54760   0.00000  Uiso   1.00
O462   O     0.81487   0.50000   0.45240   0.00000  Uiso   1.00
O463   O     0.81487   0.50000   0.54760   0.00000  Uiso   1.00
O464   O     0.68513   0.50000   0.45240   0.00000  Uiso   1.00
C465   C     0.66442   0.49942   0.49984   0.00000  Uiso   1.00
C466   C     0.83558   0.50058   0.50016   0.00000  Uiso   1.00
Cu467  Cu    0.75000   0.50000   0.55636   0.00000  Uiso   1.00
Cu468  Cu    0.75000   0.50000   0.44364   0.00000  Uiso   1.00
N469   N     0.75000   0.50000   0.35894   0.00000  Uiso   1.00
N470   N     0.75000   0.50000   0.64106   0.00000  Uiso   1.00
C471   C     0.90697   0.54557   0.50100   0.00000  Uiso   1.00
C472   C     0.59302   0.45442   0.49895   0.00000  Uiso   1.00
C473   C     0.90606   0.45546   0.50148   0.00000  Uiso   1.00
C474   C     0.59393   0.54453   0.49849   0.00000  Uiso   1.00
C475   C     0.88372   0.50060   0.50072   0.00000  Uiso   1.00
C476   C     0.61628   0.49939   0.49927   0.00000  Uiso   1.00
C477   C     0.95271   0.45523   0.49883   0.00000  Uiso   1.00
C478   C     0.54729   0.54476   0.50108   0.00000  Uiso   1.00
C479   C     0.95362   0.54521   0.50232   0.00000  Uiso   1.00
C480   C     0.54637   0.45478   0.49758   0.00000  Uiso   1.00
C481   C     0.97652   0.50011   0.50026   0.00000  Uiso   1.00
C482   C     0.52348   0.49989   0.49964   0.00000  Uiso   1.00
C483   C     0.97616   0.41126   0.49294   0.00000  Uiso   1.00
C484   C     0.52384   0.58873   0.50689   0.00000  Uiso   1.00
C485   C     0.97803   0.58899   0.50724   0.00000  Uiso   1.00
C486   C     0.52197   0.41101   0.49260   0.00000  Uiso   1.00
C487   C     0.75010   0.35512   0.49999   0.00000  Uiso   1.00
C488   C     0.74990   0.64488   0.50001   0.00000  Uiso   1.00
C489   C     0.88265   0.59290   0.49888   0.00000  Uiso   1.00
H490   H     0.89394   0.62209   0.47094   0.00000  Uiso   1.00
O491   O     0.85067   0.60014   0.52938   0.00000  Uiso   1.00
C492   C     0.61734   0.40709   0.50112   0.00000  Uiso   1.00
H493   H     0.60601   0.37790   0.52902   0.00000  Uiso   1.00
O494   O     0.64938   0.39986   0.47071   0.00000  Uiso   1.00
C495   C     0.87982   0.40921   0.50609   0.00000  Uiso   1.00
H496   H     0.84958   0.40455   0.48141   0.00000  Uiso   1.00
O497   O     0.89051   0.37718   0.53979   0.00000  Uiso   1.00
C498   C     0.62017   0.59078   0.49395   0.00000  Uiso   1.00
H499   H     0.65027   0.59552   0.51889   0.00000  Uiso   1.00
O500   O     0.60964   0.62270   0.46006   0.00000  Uiso   1.00
O501   O     0.25000   0.76280   0.54759   0.00000  Uiso   1.00
O502   O     0.25000   0.90387   0.45241   0.00000  Uiso   1.00
O503   O     0.25000   0.90387   0.54759   0.00000  Uiso   1.00
O504   O     0.25000   0.76280   0.45241   0.00000  Uiso   1.00
H505   H     0.45948   0.70983   0.48726   0.00000  Uiso   1.00
H506   H     0.04052   0.95684   0.51250   0.00000  Uiso   1.00
H507   H     0.46210   0.95736   0.51251   0.00000  Uiso   1.00
H508   H     0.03790   0.70930   0.48729   0.00000  Uiso   1.00
C509   C     0.25026   0.74002   0.49999   0.00000  Uiso   1.00
C510   C     0.24974   0.92665   0.50001   0.00000  Uiso   1.00
O511   O     0.18513   0.83333   0.54760   0.00000  Uiso   1.00
O512   O     0.31487   0.83333   0.45240   0.00000  Uiso   1.00
O513   O     0.31487   0.83333   0.54760   0.00000  Uiso   1.00
O514   O     0.18513   0.83333   0.45240   0.00000  Uiso   1.00
C515   C     0.16442   0.83276   0.49984   0.00000  Uiso   1.00
C516   C     0.33558   0.83391   0.50016   0.00000  Uiso   1.00
Cu517  Cu    0.25000   0.83333   0.55636   0.00000  Uiso   1.00
Cu518  Cu    0.25000   0.83333   0.44364   0.00000  Uiso   1.00
N519   N     0.25000   0.83333   0.35894   0.00000  Uiso   1.00
N520   N     0.25000   0.83333   0.64106   0.00000  Uiso   1.00
C521   C     0.40697   0.87890   0.50100   0.00000  Uiso   1.00
C522   C     0.09302   0.78775   0.49895   0.00000  Uiso   1.00
C523   C     0.40606   0.78879   0.50148   0.00000  Uiso   1.00
C524   C     0.09393   0.87786   0.49849   0.00000  Uiso   1.00
C525   C     0.38372   0.83394   0.50072   0.00000  Uiso   1.00
C526   C     0.11628   0.83272   0.49927   0.00000  Uiso   1.00
C527   C     0.45271   0.78856   0.49883   0.00000  Uiso   1.00
C528   C     0.04729   0.87809   0.50108   0.00000  Uiso   1.00
C529   C     0.45362   0.87855   0.50232   0.00000  Uiso   1.00
C530   C     0.04637   0.78811   0.49758   0.00000  Uiso   1.00
C531   C     0.47652   0.83344   0.50026   0.00000  Uiso   1.00
C532   C     0.02348   0.83322   0.49964   0.00000  Uiso   1.00
C533   C     0.47616   0.74459   0.49294   0.00000  Uiso   1.00
C534   C     0.02384   0.92207   0.50689   0.00000  Uiso   1.00
C535   C     0.47803   0.92232   0.50724   0.00000  Uiso   1.00
C536   C     0.02197   0.74434   0.49260   0.00000  Uiso   1.00
C537   C     0.25010   0.68845   0.49999   0.00000  Uiso   1.00
C538   C     0.24990   0.97821   0.50001   0.00000  Uiso   1.00
C539   C     0.38265   0.92623   0.49888   0.00000  Uiso   1.00
H540   H     0.39394   0.95542   0.47094   0.00000  Uiso   1.00
O541   O     0.35067   0.93347   0.52938   0.00000  Uiso   1.00
C542   C     0.11734   0.74042   0.50112   0.00000  Uiso   1.00
H543   H     0.10601   0.71123   0.52902   0.00000  Uiso   1.00
O544   O     0.14938   0.73319   0.47071   0.00000  Uiso   1.00
C545   C     0.37982   0.74254   0.50609   0.00000  Uiso   1.00
H546   H     0.34958   0.73788   0.48141   0.00000  Uiso   1.00
O547   O     0.39051   0.71051   0.53979   0.00000  Uiso   1.00
C548   C     0.12017   0.92411   0.49395   0.00000  Uiso   1.00
H549   H     0.15027   0.92885   0.51889   0.00000  Uiso   1.00
O550   O     0.10964   0.95604   0.46006   0.00000  Uiso   1.00
O551   O     0.75000   0.76280   0.54759   0.00000  Uiso   1.00
O552   O     0.75000   0.90387   0.45241   0.00000  Uiso   1.00
O553   O     0.75000   0.90387   0.54759   0.00000  Uiso   1.00
O554   O     0.75000   0.76280   0.45241   0.00000  Uiso   1.00
H555   H     0.95948   0.70983   0.48726   0.00000  Uiso   1.00
H556   H     0.54052   0.95684   0.51250   0.00000  Uiso   1.00
H557   H     0.96210   0.95736   0.51251   0.00000  Uiso   1.00
H558   H     0.53790   0.70930   0.48729   0.00000  Uiso   1.00
C559   C     0.75026   0.74002   0.49999   0.00000  Uiso   1.00
C560   C     0.74974   0.92665   0.50001   0.00000  Uiso   1.00
O561   O     0.68513   0.83333   0.54760   0.00000  Uiso   1.00
O562   O     0.81487   0.83333   0.45240   0.00000  Uiso   1.00
O563   O     0.81487   0.83333   0.54760   0.00000  Uiso   1.00
O564   O     0.68513   0.83333   0.45240   0.00000  Uiso   1.00
C565   C     0.66442   0.83276   0.49984   0.00000  Uiso   1.00
C566   C     0.83558   0.83391   0.50016   0.00000  Uiso   1.00
Cu567  Cu    0.75000   0.83333   0.55636   0.00000  Uiso   1.00
Cu568  Cu    0.75000   0.83333   0.44364   0.00000  Uiso   1.00
N569   N     0.75000   0.83333   0.35894   0.00000  Uiso   1.00
N570   N     0.75000   0.83333   0.64106   0.00000  Uiso   1.00
C571   C     0.90697   0.87890   0.50100   0.00000  Uiso   1.00
C572   C     0.59302   0.78775   0.49895   0.00000  Uiso   1.00
C573   C     0.90606   0.78879   0.50148   0.00000  Uiso   1.00
C574   C     0.59393   0.87786   0.49849   0.00000  Uiso   1.00
C575   C     0.88372   0.83394   0.50072   0.00000  Uiso   1.00
C576   C     0.61628   0.83272   0.49927   0.00000  Uiso   1.00
C577   C     0.95271   0.78856   0.49883   0.00000  Uiso   1.00
C578   C     0.54729   0.87809   0.50108   0.00000  Uiso   1.00
C579   C     0.95362   0.87855   0.50232   0.00000  Uiso   1.00
C580   C     0.54637   0.78811   0.49758   0.00000  Uiso   1.00
C581   C     0.97652   0.83344   0.50026   0.00000  Uiso   1.00
C582   C     0.52348   0.83322   0.49964   0.00000  Uiso   1.00
C583   C     0.97616   0.74459   0.49294   0.00000  Uiso   1.00
C584   C     0.52384   0.92207   0.50689   0.00000  Uiso   1.00
C585   C     0.97803   0.92232   0.50724   0.00000  Uiso   1.00
C586   C     0.52197   0.74434   0.49260   0.00000  Uiso   1.00
C587   C     0.75010   0.68845   0.49999   0.00000  Uiso   1.00
C588   C     0.74990   0.97821   0.50001   0.00000  Uiso   1.00
C589   C     0.88265   0.92623   0.49888   0.00000  Uiso   1.00
H590   H     0.89394   0.95542   0.47094   0.00000  Uiso   1.00
O591   O     0.85067   0.93347   0.52938   0.00000  Uiso   1.00
C592   C     0.61734   0.74042   0.50112   0.00000  Uiso   1.00
H593   H     0.60601   0.71123   0.52902   0.00000  Uiso   1.00
O594   O     0.64938   0.73319   0.47071   0.00000  Uiso   1.00
C595   C     0.87982   0.74254   0.50609   0.00000  Uiso   1.00
H596   H     0.84958   0.73788   0.48141   0.00000  Uiso   1.00
O597   O     0.89051   0.71051   0.53979   0.00000  Uiso   1.00
C598   C     0.62017   0.92411   0.49395   0.00000  Uiso   1.00
H599   H     0.65027   0.92885   0.51889   0.00000  Uiso   1.00
O600   O     0.60964   0.95604   0.46006   0.00000  Uiso   1.00
O601   O     0.25000   0.09613   0.88092   0.00000  Uiso   1.00
O602   O     0.25000   0.23720   0.78575   0.00000  Uiso   1.00
O603   O     0.25000   0.23720   0.88092   0.00000  Uiso   1.00
O604   O     0.25000   0.09613   0.78575   0.00000  Uiso   1.00
H605   H     0.45948   0.04317   0.82059   0.00000  Uiso   1.00
H606   H     0.04052   0.29017   0.84584   0.00000  Uiso   1.00
H607   H     0.46210   0.29070   0.84584   0.00000  Uiso   1.00
H608   H     0.03790   0.04264   0.82062   0.00000  Uiso   1.00
C609   C     0.25026   0.07335   0.83333   0.00000  Uiso   1.00
C610   C     0.24974   0.25998   0.83334   0.00000  Uiso   1.00
O611   O     0.18513   0.16667   0.88093   0.00000  Uiso   1.00
O612   O     0.31487   0.16667   0.78573   0.00000  Uiso   1.00
O613   O     0.31487   0.16667   0.88093   0.00000  Uiso   1.00
O614   O     0.18513   0.16667   0.78573   0.00000  Uiso   1.00
C615   C     0.16442   0.16609   0.83318   0.00000  Uiso   1.00
C616   C     0.33558   0.16724   0.83349   0.00000  Uiso   1.00
Cu617  Cu    0.25000   0.16667   0.88969   0.00000  Uiso   1.00
Cu618  Cu    0.25000   0.16667   0.77697   0.00000  Uiso   1.00
N619   N     0.25000   0.16667   0.69227   0.00000  Uiso   1.00
N620   N     0.25000   0.16667   0.97439   0.00000  Uiso   1.00
C621   C     0.40697   0.21224   0.83433   0.00000  Uiso   1.00
C622   C     0.09302   0.12109   0.83228   0.00000  Uiso   1.00
C623   C     0.40606   0.12213   0.83481   0.00000  Uiso   1.00
C624   C     0.09393   0.21119   0.83183   0.00000  Uiso   1.00
C625   C     0.38372   0.16727   0.83405   0.00000  Uiso   1.00
C626   C     0.11628   0.16605   0.83261   0.00000  Uiso   1.00
C627   C     0.45271   0.12189   0.83216   0.00000  Uiso   1.00
C628   C     0.04729   0.21143   0.83441   0.00000  Uiso   1.00
C629   C     0.45362   0.21188   0.83566   0.00000  Uiso   1.00
C630   C     0.04637   0.12145   0.83091   0.00000  Uiso   1.00
C631   C     0.47652   0.16677   0.83359   0.00000  Uiso   1.00
C632   C     0.02348   0.16655   0.83298   0.00000  Uiso   1.00
C633   C     0.47616   0.07793   0.82627   0.00000  Uiso   1.00
C634   C     0.02384   0.25540   0.84023   0.00000  Uiso   1.00
C635   C     0.47803   0.25566   0.84057   0.00000  Uiso   1.00
C636   C     0.02197   0.07767   0.82593   0.00000  Uiso   1.00
C637   C     0.25010   0.02179   0.83332   0.00000  Uiso   1.00
C638   C     0.24990   0.31155   0.83334   0.00000  Uiso   1.00
C639   C     0.38265   0.25957   0.83221   0.00000  Uiso   1.00
H640   H     0.39394   0.28875   0.80427   0.00000  Uiso   1.00
O641   O     0.35067   0.26681   0.86272   0.00000  Uiso   1.00
C642   C     0.11734   0.07376   0.83445   0.00000  Uiso   1.00
H643   H     0.10601   0.04456   0.86235   0.00000  Uiso   1.00
O644   O     0.14938   0.06652   0.80405   0.00000  Uiso   1.00
C645   C     0.37982   0.07587   0.83942   0.00000  Uiso   1.00
H646   H     0.34958   0.07122   0.81474   0.00000  Uiso   1.00
O647   O     0.39051   0.04384   0.87312   0.00000  Uiso   1.00
C648   C     0.12017   0.25745   0.82729   0.00000  Uiso   1.00
H649   H     0.15027   0.26219   0.85222   0.00000  Uiso   1.00
O650   O     0.10964   0.28937   0.79339   0.00000  Uiso   1.00
O651   O     0.75000   0.09613   0.88092   0.00000  Uiso   1.00
O652   O     0.75000   0.23720   0.78575   0.00000  Uiso   1.00
O653   O     0.75000   0.23720   0.88092   0.00000  Uiso   1.00
O654   O     0.75000   0.09613   0.78575   0.00000  Uiso   1.00
H655   H     0.95948   0.04317   0.82059   0.00000  Uiso   1.00
H656   H     0.54052   0.29017   0.84584   0.00000  Uiso   1.00
H657   H     0.96210   0.29070   0.84584   0.00000  Uiso   1.00
H658   H     0.53790   0.04264   0.82062   0.00000  Uiso   1.00
C659   C     0.75026   0.07335   0.83333   0.00000  Uiso   1.00
C660   C     0.74974   0.25998   0.83334   0.00000  Uiso   1.00
O661   O     0.68513   0.16667   0.88093   0.00000  Uiso   1.00
O662   O     0.81487   0.16667   0.78573   0.00000  Uiso   1.00
O663   O     0.81487   0.16667   0.88093   0.00000  Uiso   1.00
O664   O     0.68513   0.16667   0.78573   0.00000  Uiso   1.00
C665   C     0.66442   0.16609   0.83318   0.00000  Uiso   1.00
C666   C     0.83558   0.16724   0.83349   0.00000  Uiso   1.00
Cu667  Cu    0.75000   0.16667   0.88969   0.00000  Uiso   1.00
Cu668  Cu    0.75000   0.16667   0.77697   0.00000  Uiso   1.00
N669   N     0.75000   0.16667   0.69227   0.00000  Uiso   1.00
N670   N     0.75000   0.16667   0.97439   0.00000  Uiso   1.00
C671   C     0.90697   0.21224   0.83433   0.00000  Uiso   1.00
C672   C     0.59302   0.12109   0.83228   0.00000  Uiso   1.00
C673   C     0.90606   0.12213   0.83481   0.00000  Uiso   1.00
C674   C     0.59393   0.21119   0.83183   0.00000  Uiso   1.00
C675   C     0.88372   0.16727   0.83405   0.00000  Uiso   1.00
C676   C     0.61628   0.16605   0.83261   0.00000  Uiso   1.00
C677   C     0.95271   0.12189   0.83216   0.00000  Uiso   1.00
C678   C     0.54729   0.21143   0.83441   0.00000  Uiso   1.00
C679   C     0.95362   0.21188   0.83566   0.00000  Uiso   1.00
C680   C     0.54637   0.12145   0.83091   0.00000  Uiso   1.00
C681   C     0.97652   0.16677   0.83359   0.00000  Uiso   1.00
C682   C     0.52348   0.16655   0.83298   0.00000  Uiso   1.00
C683   C     0.97616   0.07793   0.82627   0.00000  Uiso   1.00
C684   C     0.52384   0.25540   0.84023   0.00000  Uiso   1.00
C685   C     0.97803   0.25566   0.84057   0.00000  Uiso   1.00
C686   C     0.52197   0.07767   0.82593   0.00000  Uiso   1.00
C687   C     0.75010   0.02179   0.83332   0.00000  Uiso   1.00
C688   C     0.74990   0.31155   0.83334   0.00000  Uiso   1.00
C689   C     0.88265   0.25957   0.83221   0.00000  Uiso   1.00
H690   H     0.89394   0.28875   0.80427   0.00000  Uiso   1.00
O691   O     0.85067   0.26681   0.86272   0.00000  Uiso   1.00
C692   C     0.61734   0.07376   0.83445   0.00000  Uiso   1.00
H693   H     0.60601   0.04456   0.86235   0.00000  Uiso   1.00
O694   O     0.64938   0.06652   0.80405   0.00000  Uiso   1.00
C695   C     0.87982   0.07587   0.83942   0.00000  Uiso   1.00
H696   H     0.84958   0.07122   0.81474   0.00000  Uiso   1.00
O697   O     0.89051   0.04384   0.87312   0.00000  Uiso   1.00
C698   C     0.62017   0.25745   0.82729   0.00000  Uiso   1.00
H699   H     0.65027   0.26219   0.85222   0.00000  Uiso   1.00
O700   O     0.60964   0.28937   0.79339   0.00000  Uiso   1.00
O701   O     0.25000   0.42946   0.88092   0.00000  Uiso   1.00
O702   O     0.25000   0.57054   0.78575   0.00000  Uiso   1.00
O703   O     0.25000   0.57054   0.88092   0.00000  Uiso   1.00
O704   O     0.25000   0.42946   0.78575   0.00000  Uiso   1.00
H705   H     0.45948   0.37650   0.82059   0.00000  Uiso   1.00
H706   H     0.04052   0.62350   0.84584   0.00000  Uiso   1.00
H707   H     0.46210   0.62403   0.84584   0.00000  Uiso   1.00
H708   H     0.03790   0.37597   0.82062   0.00000  Uiso   1.00
C709   C     0.25026   0.40668   0.83333   0.00000  Uiso   1.00
C710   C     0.24974   0.59332   0.83334   0.00000  Uiso   1.00
O711   O     0.18513   0.50000   0.88093   0.00000  Uiso   1.00
O712   O     0.31487   0.50000   0.78573   0.00000  Uiso   1.00
O713   O     0.31487   0.50000   0.88093   0.00000  Uiso   1.00
O714   O     0.18513   0.50000   0.78573   0.00000  Uiso   1.00
C715   C     0.16442   0.49942   0.83318   0.00000  Uiso   1.00
C716   C     0.33558   0.50058   0.83349   0.00000  Uiso   1.00
Cu717  Cu    0.25000   0.50000   0.88969   0.00000  Uiso   1.00
Cu718  Cu    0.25000   0.50000   0.77697   0.00000  Uiso   1.00
N719   N     0.25000   0.50000   0.69227   0.00000  Uiso   1.00
N720   N     0.25000   0.50000   0.97439   0.00000  Uiso   1.00
C721   C     0.40697   0.54557   0.83433   0.00000  Uiso   1.00
C722   C     0.09302   0.45442   0.83228   0.00000  Uiso   1.00
C723   C     0.40606   0.45546   0.83481   0.00000  Uiso   1.00
C724   C     0.09393   0.54453   0.83183   0.00000  Uiso   1.00
C725   C     0.38372   0.50060   0.83405   0.00000  Uiso   1.00
C726   C     0.11628   0.49939   0.83261   0.00000  Uiso   1.00
C727   C     0.45271   0.45523   0.83216   0.00000  Uiso   1.00
C728   C     0.04729   0.54476   0.83441   0.00000  Uiso   1.00
C729   C     0.45362   0.54521   0.83566   0.00000  Uiso   1.00
C730   C     0.04637   0.45478   0.83091   0.00000  Uiso   1.00
C731   C     0.47652   0.50011   0.83359   0.00000  Uiso   1.00
C732   C     0.02348   0.49989   0.83298   0.00000  Uiso   1.00
C733   C     0.47616   0.41126   0.82627   0.00000  Uiso   1.00
C734   C     0.02384   0.58873   0.84023   0.00000  Uiso   1.00
C735   C     0.47803   0.58899   0.84057   0.00000  Uiso   1.00
C736   C     0.02197   0.41101   0.82593   0.00000  Uiso   1.00
C737   C     0.25010   0.35512   0.83332   0.00000  Uiso   1.00
C738   C     0.24990   0.64488   0.83334   0.00000  Uiso   1.00
C739   C     0.38265   0.59290   0.83221   0.00000  Uiso   1.00
H740   H     0.39394   0.62209   0.80427   0.00000  Uiso   1.00
O741   O     0.35067   0.60014   0.86272   0.00000  Uiso   1.00
C742   C     0.11734   0.40709   0.83445   0.00000  Uiso   1.00
H743   H     0.10601   0.37790   0.86235   0.00000  Uiso   1.00
O744   O     0.14938   0.39986   0.80405   0.00000  Uiso   1.00
C745   C     0.37982   0.40921   0.83942   0.00000  Uiso   1.00
H746   H     0.34958   0.40455   0.81474   0.00000  Uiso   1.00
O747   O     0.39051   0.37718   0.87312   0.00000  Uiso   1.00
C748   C     0.12017   0.59078   0.82729   0.00000  Uiso   1.00
H749   H     0.15027   0.59552   0.85222   0.00000  Uiso   1.00
O750   O     0.10964   0.62270   0.79339   0.00000  Uiso   1.00
O751   O     0.75000   0.42946   0.88092   0.00000  Uiso   1.00
O752   O     0.75000   0.57054   0.78575   0.00000  Uiso   1.00
O753   O     0.75000   0.57054   0.88092   0.00000  Uiso   1.00
O754   O     0.75000   0.42946   0.78575   0.00000  Uiso   1.00
H755   H     0.95948   0.37650   0.82059   0.00000  Uiso   1.00
H756   H     0.54052   0.62350   0.84584   0.00000  Uiso   1.00
H757   H     0.96210   0.62403   0.84584   0.00000  Uiso   1.00
H758   H     0.53790   0.37597   0.82062   0.00000  Uiso   1.00
C759   C     0.75026   0.40668   0.83333   0.00000  Uiso   1.00
C760   C     0.74974   0.59332   0.83334   0.00000  Uiso   1.00
O761   O     0.68513   0.50000   0.88093   0.00000  Uiso   1.00
O762   O     0.81487   0.50000   0.78573   0.00000  Uiso   1.00
O763   O     0.81487   0.50000   0.88093   0.00000  Uiso   1.00
O764   O     0.68513   0.50000   0.78573   0.00000  Uiso   1.00
C765   C     0.66442   0.49942   0.83318   0.00000  Uiso   1.00
C766   C     0.83558   0.50058   0.83349   0.00000  Uiso   1.00
Cu767  Cu    0.75000   0.50000   0.88969   0.00000  Uiso   1.00
Cu768  Cu    0.75000   0.50000   0.77697   0.00000  Uiso   1.00
N769   N     0.75000   0.50000   0.69227   0.00000  Uiso   1.00
N770   N     0.75000   0.50000   0.97439   0.00000  Uiso   1.00
C771   C     0.90697   0.54557   0.83433   0.00000  Uiso   1.00
C772   C     0.59302   0.45442   0.83228   0.00000  Uiso   1.00
C773   C     0.90606   0.45546   0.83481   0.00000  Uiso   1.00
C774   C     0.59393   0.54453   0.83183   0.00000  Uiso   1.00
C775   C     0.88372   0.50060   0.83405   0.00000  Uiso   1.00
C776   C     0.61628   0.49939   0.83261   0.00000  Uiso   1.00
C777   C     0.95271   0.45523   0.83216   0.00000  Uiso   1.00
C778   C     0.54729   0.54476   0.83441   0.00000  Uiso   1.00
C779   C     0.95362   0.54521   0.83566   0.00000  Uiso   1.00
C780   C     0.54637   0.45478   0.83091   0.00000  Uiso   1.00
C781   C     0.97652   0.50011   0.83359   0.00000  Uiso   1.00
C782   C     0.52348   0.49989   0.83298   0.00000  Uiso   1.00
C783   C     0.97616   0.41126   0.82627   0.00000  Uiso   1.00
C784   C     0.52384   0.58873   0.84023   0.00000  Uiso   1.00
C785   C     0.97803   0.58899   0.84057   0.00000  Uiso   1.00
C786   C     0.52197   0.41101   0.82593   0.00000  Uiso   1.00
C787   C     0.75010   0.35512   0.83332   0.00000  Uiso   1.00
C788   C     0.74990   0.64488   0.83334   0.00000  Uiso   1.00
C789   C     0.88265   0.59290   0.83221   0.00000  Uiso   1.00
H790   H     0.89394   0.62209   0.80427   0.00000  Uiso   1.00
O791   O     0.85067   0.60014   0.86272   0.00000  Uiso   1.00
C792   C     0.61734   0.40709   0.83445   0.00000  Uiso   1.00
H793   H     0.60601   0.37790   0.86235   0.00000  Uiso   1.00
O794   O     0.64938   0.39986   0.80405   0.00000  Uiso   1.00
C795   C     0.87982   0.40921   0.83942   0.00000  Uiso   1.00
H796   H     0.84958   0.40455   0.81474   0.00000  Uiso   1.00
O797   O     0.89051   0.37718   0.87312   0.00000  Uiso   1.00
C798   C     0.62017   0.59078   0.82729   0.00000  Uiso   1.00
H799   H     0.65027   0.59552   0.85222   0.00000  Uiso   1.00
O800   O     0.60964   0.62270   0.79339   0.00000  Uiso   1.00
O801   O     0.25000   0.76280   0.88092   0.00000  Uiso   1.00
O802   O     0.25000   0.90387   0.78575   0.00000  Uiso   1.00
O803   O     0.25000   0.90387   0.88092   0.00000  Uiso   1.00
O804   O     0.25000   0.76280   0.78575   0.00000  Uiso   1.00
H805   H     0.45948   0.70983   0.82059   0.00000  Uiso   1.00
H806   H     0.04052   0.95684   0.84584   0.00000  Uiso   1.00
H807   H     0.46210   0.95736   0.84584   0.00000  Uiso   1.00
H808   H     0.03790   0.70930   0.82062   0.00000  Uiso   1.00
C809   C     0.25026   0.74002   0.83333   0.00000  Uiso   1.00
C810   C     0.24974   0.92665   0.83334   0.00000  Uiso   1.00
O811   O     0.18513   0.83333   0.88093   0.00000  Uiso   1.00
O812   O     0.31487   0.83333   0.78573   0.00000  Uiso   1.00
O813   O     0.31487   0.83333   0.88093   0.00000  Uiso   1.00
O814   O     0.18513   0.83333   0.78573   0.00000  Uiso   1.00
C815   C     0.16442   0.83276   0.83318   0.00000  Uiso   1.00
C816   C     0.33558   0.83391   0.83349   0.00000  Uiso   1.00
Cu817  Cu    0.25000   0.83333   0.88969   0.00000  Uiso   1.00
Cu818  Cu    0.25000   0.83333   0.77697   0.00000  Uiso   1.00
N819   N     0.25000   0.83333   0.69227   0.00000  Uiso   1.00
N820   N     0.25000   0.83333   0.97439   0.00000  Uiso   1.00
C821   C     0.40697   0.87890   0.83433   0.00000  Uiso   1.00
C822   C     0.09302   0.78775   0.83228   0.00000  Uiso   1.00
C823   C     0.40606   0.78879   0.83481   0.00000  Uiso   1.00
C824   C     0.09393   0.87786   0.83183   0.00000  Uiso   1.00
C825   C     0.38372   0.83394   0.83405   0.00000  Uiso   1.00
C826   C     0.11628   0.83272   0.83261   0.00000  Uiso   1.00
C827   C     0.45271   0.78856   0.83216   0.00000  Uiso   1.00
C828   C     0.04729   0.87809   0.83441   0.00000  Uiso   1.00
C829   C     0.45362   0.87855   0.83566   0.00000  Uiso   1.00
C830   C     0.04637   0.78811   0.83091   0.00000  Uiso   1.00
C831   C     0.47652   0.83344   0.83359   0.00000  Uiso   1.00
C832   C     0.02348   0.83322   0.83298   0.00000  Uiso   1.00
C833   C     0.47616   0.74459   0.82627   0.00000  Uiso   1.00
C834   C     0.02384   0.92207   0.84023   0.00000  Uiso   1.00
C835   C     0.47803   0.92232   0.84057   0.00000  Uiso   1.00
C836   C     0.02197   0.74434   0.82593   0.00000  Uiso   1.00
C837   C     0.25010   0.68845   0.83332   0.00000  Uiso   1.00
C838   C     0.24990   0.97821   0.83334   0.00000  Uiso   1.00
C839   C     0.38265   0.92623   0.83221   0.00000  Uiso   1.00
H840   H     0.39394   0.95542   0.80427   0.00000  Uiso   1.00
O841   O     0.35067   0.93347   0.86272   0.00000  Uiso   1.00
C842   C     0.11734   0.74042   0.83445   0.00000  Uiso   1.00
H843   H     0.10601   0.71123   0.86235   0.00000  Uiso   1.00
O844   O     0.14938   0.73319   0.80405   0.00000  Uiso   1.00
C845   C     0.37982   0.74254   0.83942   0.00000  Uiso   1.00
H846   H     0.34958   0.73788   0.81474   0.00000  Uiso   1.00
O847   O     0.39051   0.71051   0.87312   0.00000  Uiso   1.00
C848   C     0.12017   0.92411   0.82729   0.00000  Uiso   1.00
H849   H     0.15027   0.92885   0.85222   0.00000  Uiso   1.00
O850   O     0.10964   0.95604   0.79339   0.00000  Uiso   1.00
O851   O     0.75000   0.76280   0.88092   0.00000  Uiso   1.00
O852   O     0.75000   0.90387   0.78575   0.00000  Uiso   1.00
O853   O     0.75000   0.90387   0.88092   0.00000  Uiso   1.00
O854   O     0.75000   0.76280   0.78575   0.00000  Uiso   1.00
H855   H     0.95948   0.70983   0.82059   0.00000  Uiso   1.00
H856   H     0.54052   0.95684   0.84584   0.00000  Uiso   1.00
H857   H     0.96210   0.95736   0.84584   0.00000  Uiso   1.00
H858   H     0.53790   0.70930   0.82062   0.00000  Uiso   1.00
C859   C     0.75026   0.74002   0.83333   0.00000  Uiso   1.00
C860   C     0.74974   0.92665   0.83334   0.00000  Uiso   1.00
O861   O     0.68513   0.83333   0.88093   0.00000  Uiso   1.00
O862   O     0.81487   0.83333   0.78573   0.00000  Uiso   1.00
O863   O     0.81487   0.83333   0.88093   0.00000  Uiso   1.00
O864   O     0.68513   0.83333   0.78573   0.00000  Uiso   1.00
C865   C     0.66442   0.83276   0.83318   0.00000  Uiso   1.00
C866   C     0.83558   0.83391   0.83349   0.00000  Uiso   1.00
Cu867  Cu    0.75000   0.83333   0.88969   0.00000  Uiso   1.00
Cu868  Cu    0.75000   0.83333   0.77697   0.00000  Uiso   1.00
N869   N     0.75000   0.83333   0.69227   0.00000  Uiso   1.00
N870   N     0.75000   0.83333   0.97439   0.00000  Uiso   1.00
C871   C     0.90697   0.87890   0.83433   0.00000  Uiso   1.00
C872   C     0.59302   0.78775   0.83228   0.00000  Uiso   1.00
C873   C     0.90606   0.78879   0.83481   0.00000  Uiso   1.00
C874   C     0.59393   0.87786   0.83183   0.00000  Uiso   1.00
C875   C     0.88372   0.83394   0.83405   0.00000  Uiso   1.00
C876   C     0.61628   0.83272   0.83261   0.00000  Uiso   1.00
C877   C     0.95271   0.78856   0.83216   0.00000  Uiso   1.00
C878   C     0.54729   0.87809   0.83441   0.00000  Uiso   1.00
C879   C     0.95362   0.87855   0.83566   0.00000  Uiso   1.00
C880   C     0.54637   0.78811   0.83091   0.00000  Uiso   1.00
C881   C     0.97652   0.83344   0.83359   0.00000  Uiso   1.00
C882   C     0.52348   0.83322   0.83298   0.00000  Uiso   1.00
C883   C     0.97616   0.74459   0.82627   0.00000  Uiso   1.00
C884   C     0.52384   0.92207   0.84023   0.00000  Uiso   1.00
C885   C     0.97803   0.92232   0.84057   0.00000  Uiso   1.00
C886   C     0.52197   0.74434   0.82593   0.00000  Uiso   1.00
C887   C     0.75010   0.68845   0.83332   0.00000  Uiso   1.00
C888   C     0.74990   0.97821   0.83334   0.00000  Uiso   1.00
C889   C     0.88265   0.92623   0.83221   0.00000  Uiso   1.00
H890   H     0.89394   0.95542   0.80427   0.00000  Uiso   1.00
O891   O     0.85067   0.93347   0.86272   0.00000  Uiso   1.00
C892   C     0.61734   0.74042   0.83445   0.00000  Uiso   1.00
H893   H     0.60601   0.71123   0.86235   0.00000  Uiso   1.00
O894   O     0.64938   0.73319   0.80405   0.00000  Uiso   1.00
C895   C     0.87982   0.74254   0.83942   0.00000  Uiso   1.00
H896   H     0.84958   0.73788   0.81474   0.00000  Uiso   1.00
O897   O     0.89051   0.71051   0.87312   0.00000  Uiso   1.00
C898   C     0.62017   0.92411   0.82729   0.00000  Uiso   1.00
H899   H     0.65027   0.92885   0.85222   0.00000  Uiso   1.00
O900   O     0.60964   0.95604   0.79339   0.00000  Uiso   1.00
loop_
_geom_bond_atom_site_label_1
_geom_bond_atom_site_label_2
_geom_bond_distance
_geom_bond_site_symmetry_2
_ccdc_geom_bond_type
O1     Cu17    1.936   .     S
O1     C9      1.274   .     A
O2     Cu18    1.936   .     S
O2     C10     1.274   .     A
O3     C10     1.275   .     A
O3     Cu17    1.936   .     S
O4     Cu18    1.936   .     S
O4     C9      1.275   .     A
H5     C33     1.080   .     S
H6     C34     1.080   .     S
H7     C35     1.080   .     S
H8     C36     1.080   .     S
C9     C37     1.407   .     S
C10    C38     1.407   .     S
O11    Cu17    1.969   .     S
O11    C15     1.277   .     A
O12    C16     1.277   .     A
O12    Cu18    1.969   .     S
O13    Cu17    1.971   .     S
O13    C16     1.276   .     A
O14    Cu18    1.971   .     S
O14    C15     1.276   .     A
C15    C26     1.454   .     S
C16    C25     1.454   .     S
Cu17   N20     1.981   .     S
Cu17   Cu18    2.636   .     S
Cu18   N19     1.981   .     S
N19    N620    1.198   1_554 S
N20    N319    1.198   .     S
C21    C39     1.490   .     S
C21    C29     1.409   .     A
C21    C25     1.411   .     A
C22    C42     1.490   .     S
C22    C26     1.411   .     A
C22    C30     1.409   .     A
C23    C45     1.491   .     S
C23    C27     1.411   .     A
C23    C25     1.408   .     A
C24    C28     1.411   .     A
C24    C26     1.408   .     A
C24    C48     1.491   .     S
C27    C33     1.404   .     A
C27    C31     1.417   .     A
C28    C34     1.404   .     A
C28    C32     1.417   .     A
C29    C31     1.416   .     A
C29    C35     1.405   .     A
C30    C36     1.405   .     A
C30    C32     1.416   .     A
C31    C82     1.418   .     S
C32    C81     1.418   1_455 S
C33    C86     1.384   .     S
C34    C85     1.384   1_455 S
C35    C84     1.384   .     S
C36    C83     1.384   1_455 S
C37    C238    1.189   1_545 S
C38    C137    1.189   .     S
C39    O41     1.220   .     D
C39    H40     1.085   .     S
C42    O44     1.220   .     D
C42    H43     1.085   .     S
C45    H46     1.085   .     S
C45    O47     1.221   .     D
C48    O50     1.221   .     D
C48    H49     1.085   .     S
O51    Cu67    1.936   .     S
O51    C59     1.274   .     A
O52    Cu68    1.936   .     S
O52    C60     1.274   .     A
O53    C60     1.275   .     A
O53    Cu67    1.936   .     S
O54    Cu68    1.936   .     S
O54    C59     1.275   .     A
H55    C83     1.080   .     S
H56    C84     1.080   .     S
H57    C85     1.080   .     S
H58    C86     1.080   .     S
C59    C87     1.407   .     S
C60    C88     1.407   .     S
O61    Cu67    1.969   .     S
O61    C65     1.277   .     A
O62    C66     1.277   .     A
O62    Cu68    1.969   .     S
O63    Cu67    1.971   .     S
O63    C66     1.276   .     A
O64    Cu68    1.971   .     S
O64    C65     1.276   .     A
C65    C76     1.454   .     S
C66    C75     1.454   .     S
Cu67   N70     1.981   .     S
Cu67   Cu68    2.636   .     S
Cu68   N69     1.981   .     S
N69    N670    1.198   1_554 S
N70    N369    1.198   .     S
C71    C89     1.490   .     S
C71    C79     1.409   .     A
C71    C75     1.411   .     A
C72    C92     1.490   .     S
C72    C76     1.411   .     A
C72    C80     1.409   .     A
C73    C95     1.491   .     S
C73    C77     1.411   .     A
C73    C75     1.408   .     A
C74    C78     1.411   .     A
C74    C76     1.408   .     A
C74    C98     1.491   .     S
C77    C83     1.404   .     A
C77    C81     1.417   .     A
C78    C84     1.404   .     A
C78    C82     1.417   .     A
C79    C81     1.416   .     A
C79    C85     1.405   .     A
C80    C86     1.405   .     A
C80    C82     1.416   .     A
C81    C32     1.418   1_655 S
C83    C36     1.384   1_655 S
C85    C34     1.384   1_655 S
C87    C288    1.189   1_545 S
C88    C187    1.189   .     S
C89    O91     1.220   .     D
C89    H90     1.085   .     S
C92    O94     1.220   .     D
C92    H93     1.085   .     S
C95    H96     1.085   .     S
C95    O97     1.221   .     D
C98    O100    1.221   .     D
C98    H99     1.085   .     S
O101   Cu117   1.936   .     S
O101   C109    1.274   .     A
O102   Cu118   1.936   .     S
O102   C110    1.274   .     A
O103   C110    1.275   .     A
O103   Cu117   1.936   .     S
O104   Cu118   1.936   .     S
O104   C109    1.275   .     A
H105   C133    1.080   .     S
H106   C134    1.080   .     S
H107   C135    1.080   .     S
H108   C136    1.080   .     S
C109   C137    1.407   .     S
C110   C138    1.407   .     S
O111   Cu117   1.969   .     S
O111   C115    1.277   .     A
O112   C116    1.277   .     A
O112   Cu118   1.969   .     S
O113   Cu117   1.971   .     S
O113   C116    1.276   .     A
O114   Cu118   1.971   .     S
O114   C115    1.276   .     A
C115   C126    1.454   .     S
C116   C125    1.454   .     S
Cu117  N120    1.981   .     S
Cu117  Cu118   2.636   .     S
Cu118  N119    1.981   .     S
N119   N720    1.198   1_554 S
N120   N419    1.198   .     S
C121   C139    1.490   .     S
C121   C129    1.409   .     A
C121   C125    1.411   .     A
C122   C142    1.490   .     S
C122   C126    1.411   .     A
C122   C130    1.409   .     A
C123   C145    1.491   .     S
C123   C127    1.411   .     A
C123   C125    1.408   .     A
C124   C128    1.411   .     A
C124   C126    1.408   .     A
C124   C148    1.491   .     S
C127   C133    1.404   .     A
C127   C131    1.417   .     A
C128   C134    1.404   .     A
C128   C132    1.417   .     A
C129   C131    1.416   .     A
C129   C135    1.405   .     A
C130   C136    1.405   .     A
C130   C132    1.416   .     A
C131   C182    1.418   .     S
C132   C181    1.418   1_455 S
C133   C186    1.384   .     S
C134   C185    1.384   1_455 S
C135   C184    1.384   .     S
C136   C183    1.384   1_455 S
C138   C237    1.189   .     S
C139   O141    1.220   .     D
C139   H140    1.085   .     S
C142   O144    1.220   .     D
C142   H143    1.085   .     S
C145   H146    1.085   .     S
C145   O147    1.221   .     D
C148   O150    1.221   .     D
C148   H149    1.085   .     S
O151   Cu167   1.936   .     S
O151   C159    1.274   .     A
O152   Cu168   1.936   .     S
O152   C160    1.274   .     A
O153   C160    1.275   .     A
O153   Cu167   1.936   .     S
O154   Cu168   1.936   .     S
O154   C159    1.275   .     A
H155   C183    1.080   .     S
H156   C184    1.080   .     S
H157   C185    1.080   .     S
H158   C186    1.080   .     S
C159   C187    1.407   .     S
C160   C188    1.407   .     S
O161   Cu167   1.969   .     S
O161   C165    1.277   .     A
O162   C166    1.277   .     A
O162   Cu168   1.969   .     S
O163   Cu167   1.971   .     S
O163   C166    1.276   .     A
O164   Cu168   1.971   .     S
O164   C165    1.276   .     A
C165   C176    1.454   .     S
C166   C175    1.454   .     S
Cu167  N170    1.981   .     S
Cu167  Cu168   2.636   .     S
Cu168  N169    1.981   .     S
N169   N770    1.198   1_554 S
N170   N469    1.198   .     S
C171   C189    1.490   .     S
C171   C179    1.409   .     A
C171   C175    1.411   .     A
C172   C192    1.490   .     S
C172   C176    1.411   .     A
C172   C180    1.409   .     A
C173   C195    1.491   .     S
C173   C177    1.411   .     A
C173   C175    1.408   .     A
C174   C178    1.411   .     A
C174   C176    1.408   .     A
C174   C198    1.491   .     S
C177   C183    1.404   .     A
C177   C181    1.417   .     A
C178   C184    1.404   .     A
C178   C182    1.417   .     A
C179   C181    1.416   .     A
C179   C185    1.405   .     A
C180   C186    1.405   .     A
C180   C182    1.416   .     A
C181   C132    1.418   1_655 S
C183   C136    1.384   1_655 S
C185   C134    1.384   1_655 S
C188   C287    1.189   .     S
C189   O191    1.220   .     D
C189   H190    1.085   .     S
C192   O194    1.220   .     D
C192   H193    1.085   .     S
C195   H196    1.085   .     S
C195   O197    1.221   .     D
C198   O200    1.221   .     D
C198   H199    1.085   .     S
O201   Cu217   1.936   .     S
O201   C209    1.274   .     A
O202   Cu218   1.936   .     S
O202   C210    1.274   .     A
O203   C210    1.275   .     A
O203   Cu217   1.936   .     S
O204   Cu218   1.936   .     S
O204   C209    1.275   .     A
H205   C233    1.080   .     S
H206   C234    1.080   .     S
H207   C235    1.080   .     S
H208   C236    1.080   .     S
C209   C237    1.407   .     S
C210   C238    1.407   .     S
O211   Cu217   1.969   .     S
O211   C215    1.277   .     A
O212   C216    1.277   .     A
O212   Cu218   1.969   .     S
O213   Cu217   1.971   .     S
O213   C216    1.276   .     A
O214   Cu218   1.971   .     S
O214   C215    1.276   .     A
C215   C226    1.454   .     S
C216   C225    1.454   .     S
Cu217  N220    1.981   .     S
Cu217  Cu218   2.636   .     S
Cu218  N219    1.981   .     S
N219   N820    1.198   1_554 S
N220   N519    1.198   .     S
C221   C239    1.490   .     S
C221   C229    1.409   .     A
C221   C225    1.411   .     A
C222   C242    1.490   .     S
C222   C226    1.411   .     A
C222   C230    1.409   .     A
C223   C245    1.491   .     S
C223   C227    1.411   .     A
C223   C225    1.408   .     A
C224   C228    1.411   .     A
C224   C226    1.408   .     A
C224   C248    1.491   .     S
C227   C233    1.404   .     A
C227   C231    1.417   .     A
C228   C234    1.404   .     A
C228   C232    1.417   .     A
C229   C231    1.416   .     A
C229   C235    1.405   .     A
C230   C236    1.405   .     A
C230   C232    1.416   .     A
C231   C282    1.418   .     S
C232   C281    1.418   1_455 S
C233   C286    1.384   .     S
C234   C285    1.384   1_455 S
C235   C284    1.384   .     S
C236   C283    1.384   1_455 S
C238   C37     1.189   1_565 S
C239   O241    1.220   .     D
C239   H240    1.085   .     S
C242   O244    1.220   .     D
C242   H243    1.085   .     S
C245   H246    1.085   .     S
C245   O247    1.221   .     D
C248   O250    1.221   .     D
C248   H249    1.085   .     S
O251   Cu267   1.936   .     S
O251   C259    1.274   .     A
O252   Cu268   1.936   .     S
O252   C260    1.274   .     A
O253   C260    1.275   .     A
O253   Cu267   1.936   .     S
O254   Cu268   1.936   .     S
O254   C259    1.275   .     A
H255   C283    1.080   .     S
H256   C284    1.080   .     S
H257   C285    1.080   .     S
H258   C286    1.080   .     S
C259   C287    1.407   .     S
C260   C288    1.407   .     S
O261   Cu267   1.969   .     S
O261   C265    1.277   .     A
O262   C266    1.277   .     A
O262   Cu268   1.969   .     S
O263   Cu267   1.971   .     S
O263   C266    1.276   .     A
O264   Cu268   1.971   .     S
O264   C265    1.276   .     A
C265   C276    1.454   .     S
C266   C275    1.454   .     S
Cu267  N270    1.981   .     S
Cu267  Cu268   2.636   .     S
Cu268  N269    1.981   .     S
N269   N870    1.198   1_554 S
N270   N569    1.198   .     S
C271   C289    1.490   .     S
C271   C279    1.409   .     A
C271   C275    1.411   .     A
C272   C292    1.490   .     S
C272   C276    1.411   .     A
C272   C280    1.409   .     A
C273   C295    1.491   .     S
C273   C277    1.411   .     A
C273   C275    1.408   .     A
C274   C278    1.411   .     A
C274   C276    1.408   .     A
C274   C298    1.491   .     S
C277   C283    1.404   .     A
C277   C281    1.417   .     A
C278   C284    1.404   .     A
C278   C282    1.417   .     A
C279   C281    1.416   .     A
C279   C285    1.405   .     A
C280   C286    1.405   .     A
C280   C282    1.416   .     A
C281   C232    1.418   1_655 S
C283   C236    1.384   1_655 S
C285   C234    1.384   1_655 S
C288   C87     1.189   1_565 S
C289   O291    1.220   .     D
C289   H290    1.085   .     S
C292   O294    1.220   .     D
C292   H293    1.085   .     S
C295   H296    1.085   .     S
C295   O297    1.221   .     D
C298   O300    1.221   .     D
C298   H299    1.085   .     S
O301   Cu317   1.936   .     S
O301   C309    1.274   .     A
O302   Cu318   1.936   .     S
O302   C310    1.274   .     A
O303   C310    1.275   .     A
O303   Cu317   1.936   .     S
O304   Cu318   1.936   .     S
O304   C309    1.275   .     A
H305   C333    1.080   .     S
H306   C334    1.080   .     S
H307   C335    1.080   .     S
H308   C336    1.080   .     S
C309   C337    1.407   .     S
C310   C338    1.407   .     S
O311   Cu317   1.969   .     S
O311   C315    1.277   .     A
O312   C316    1.277   .     A
O312   Cu318   1.969   .     S
O313   Cu317   1.971   .     S
O313   C316    1.276   .     A
O314   Cu318   1.971   .     S
O314   C315    1.276   .     A
C315   C326    1.454   .     S
C316   C325    1.454   .     S
Cu317  N320    1.981   .     S
Cu317  Cu318   2.636   .     S
Cu318  N319    1.981   .     S
N320   N619    1.198   .     S
C321   C339    1.490   .     S
C321   C329    1.409   .     A
C321   C325    1.411   .     A
C322   C342    1.490   .     S
C322   C326    1.411   .     A
C322   C330    1.409   .     A
C323   C345    1.491   .     S
C323   C327    1.411   .     A
C323   C325    1.408   .     A
C324   C328    1.411   .     A
C324   C326    1.408   .     A
C324   C348    1.491   .     S
C327   C333    1.404   .     A
C327   C331    1.417   .     A
C328   C334    1.404   .     A
C328   C332    1.417   .     A
C329   C331    1.416   .     A
C329   C335    1.405   .     A
C330   C336    1.405   .     A
C330   C332    1.416   .     A
C331   C382    1.418   .     S
C332   C381    1.418   1_455 S
C333   C386    1.384   .     S
C334   C385    1.384   1_455 S
C335   C384    1.384   .     S
C336   C383    1.384   1_455 S
C337   C538    1.189   1_545 S
C338   C437    1.189   .     S
C339   O341    1.220   .     D
C339   H340    1.085   .     S
C342   O344    1.220   .     D
C342   H343    1.085   .     S
C345   H346    1.085   .     S
C345   O347    1.221   .     D
C348   O350    1.221   .     D
C348   H349    1.085   .     S
O351   Cu367   1.936   .     S
O351   C359    1.274   .     A
O352   Cu368   1.936   .     S
O352   C360    1.274   .     A
O353   C360    1.275   .     A
O353   Cu367   1.936   .     S
O354   Cu368   1.936   .     S
O354   C359    1.275   .     A
H355   C383    1.080   .     S
H356   C384    1.080   .     S
H357   C385    1.080   .     S
H358   C386    1.080   .     S
C359   C387    1.407   .     S
C360   C388    1.407   .     S
O361   Cu367   1.969   .     S
O361   C365    1.277   .     A
O362   C366    1.277   .     A
O362   Cu368   1.969   .     S
O363   Cu367   1.971   .     S
O363   C366    1.276   .     A
O364   Cu368   1.971   .     S
O364   C365    1.276   .     A
C365   C376    1.454   .     S
C366   C375    1.454   .     S
Cu367  N370    1.981   .     S
Cu367  Cu368   2.636   .     S
Cu368  N369    1.981   .     S
N370   N669    1.198   .     S
C371   C389    1.490   .     S
C371   C379    1.409   .     A
C371   C375    1.411   .     A
C372   C392    1.490   .     S
C372   C376    1.411   .     A
C372   C380    1.409   .     A
C373   C395    1.491   .     S
C373   C377    1.411   .     A
C373   C375    1.408   .     A
C374   C378    1.411   .     A
C374   C376    1.408   .     A
C374   C398    1.491   .     S
C377   C383    1.404   .     A
C377   C381    1.417   .     A
C378   C384    1.404   .     A
C378   C382    1.417   .     A
C379   C381    1.416   .     A
C379   C385    1.405   .     A
C380   C386    1.405   .     A
C380   C382    1.416   .     A
C381   C332    1.418   1_655 S
C383   C336    1.384   1_655 S
C385   C334    1.384   1_655 S
C387   C588    1.189   1_545 S
C388   C487    1.189   .     S
C389   O391    1.220   .     D
C389   H390    1.085   .     S
C392   O394    1.220   .     D
C392   H393    1.085   .     S
C395   H396    1.085   .     S
C395   O397    1.221   .     D
C398   O400    1.221   .     D
C398   H399    1.085   .     S
O401   Cu417   1.936   .     S
O401   C409    1.274   .     A
O402   Cu418   1.936   .     S
O402   C410    1.274   .     A
O403   C410    1.275   .     A
O403   Cu417   1.936   .     S
O404   Cu418   1.936   .     S
O404   C409    1.275   .     A
H405   C433    1.080   .     S
H406   C434    1.080   .     S
H407   C435    1.080   .     S
H408   C436    1.080   .     S
C409   C437    1.407   .     S
C410   C438    1.407   .     S
O411   Cu417   1.969   .     S
O411   C415    1.277   .     A
O412   C416    1.277   .     A
O412   Cu418   1.969   .     S
O413   Cu417   1.971   .     S
O413   C416    1.276   .     A
O414   Cu418   1.971   .     S
O414   C415    1.276   .     A
C415   C426    1.454   .     S
C416   C425    1.454   .     S
Cu417  N420    1.981   .     S
Cu417  Cu418   2.636   .     S
Cu418  N419    1.981   .     S
N420   N719    1.198   .     S
C421   C439    1.490   .     S
C421   C429    1.409   .     A
C421   C425    1.411   .     A
C422   C442    1.490   .     S
C422   C426    1.411   .     A
C422   C430    1.409   .     A
C423   C445    1.491   .     S
C423   C427    1.411   .     A
C423   C425    1.408   .     A
C424   C428    1.411   .     A
C424   C426    1.408   .     A
C424   C448    1.491   .     S
C427   C433    1.404   .     A
C427   C431    1.417   .     A
C428   C434    1.404   .     A
C428   C432    1.417   .     A
C429   C431    1.416   .     A
C429   C435    1.405   .     A
C430   C436    1.405   .     A
C430   C432    1.416   .     A
C431   C482    1.418   .     S
C432   C481    1.418   1_455 S
C433   C486    1.384   .     S
C434   C485    1.384   1_455 S
C435   C484    1.384   .     S
C436   C483    1.384   1_455 S
C438   C537    1.189   .     S
C439   O441    1.220   .     D
C439   H440    1.085   .     S
C442   O444    1.220   .     D
C442   H443    1.085   .     S
C445   H446    1.085   .     S
C445   O447    1.221   .     D
C448   O450    1.221   .     D
C448   H449    1.085   .     S
O451   Cu467   1.936   .     S
O451   C459    1.274   .     A
O452   Cu468   1.936   .     S
O452   C460    1.274   .     A
O453   C460    1.275   .     A
O453   Cu467   1.936   .     S
O454   Cu468   1.936   .     S
O454   C459    1.275   .     A
H455   C483    1.080   .     S
H456   C484    1.080   .     S
H457   C485    1.080   .     S
H458   C486    1.080   .     S
C459   C487    1.407   .     S
C460   C488    1.407   .     S
O461   Cu467   1.969   .     S
O461   C465    1.277   .     A
O462   C466    1.277   .     A
O462   Cu468   1.969   .     S
O463   Cu467   1.971   .     S
O463   C466    1.276   .     A
O464   Cu468   1.971   .     S
O464   C465    1.276   .     A
C465   C476    1.454   .     S
C466   C475    1.454   .     S
Cu467  N470    1.981   .     S
Cu467  Cu468   2.636   .     S
Cu468  N469    1.981   .     S
N470   N769    1.198   .     S
C471   C489    1.490   .     S
C471   C479    1.409   .     A
C471   C475    1.411   .     A
C472   C492    1.490   .     S
C472   C476    1.411   .     A
C472   C480    1.409   .     A
C473   C495    1.491   .     S
C473   C477    1.411   .     A
C473   C475    1.408   .     A
C474   C478    1.411   .     A
C474   C476    1.408   .     A
C474   C498    1.491   .     S
C477   C483    1.404   .     A
C477   C481    1.417   .     A
C478   C484    1.404   .     A
C478   C482    1.417   .     A
C479   C481    1.416   .     A
C479   C485    1.405   .     A
C480   C486    1.405   .     A
C480   C482    1.416   .     A
C481   C432    1.418   1_655 S
C483   C436    1.384   1_655 S
C485   C434    1.384   1_655 S
C488   C587    1.189   .     S
C489   O491    1.220   .     D
C489   H490    1.085   .     S
C492   O494    1.220   .     D
C492   H493    1.085   .     S
C495   H496    1.085   .     S
C495   O497    1.221   .     D
C498   O500    1.221   .     D
C498   H499    1.085   .     S
O501   Cu517   1.936   .     S
O501   C509    1.274   .     A
O502   Cu518   1.936   .     S
O502   C510    1.274   .     A
O503   C510    1.275   .     A
O503   Cu517   1.936   .     S
O504   Cu518   1.936   .     S
O504   C509    1.275   .     A
H505   C533    1.080   .     S
H506   C534    1.080   .     S
H507   C535    1.080   .     S
H508   C536    1.080   .     S
C509   C537    1.407   .     S
C510   C538    1.407   .     S
O511   Cu517   1.969   .     S
O511   C515    1.277   .     A
O512   C516    1.277   .     A
O512   Cu518   1.969   .     S
O513   Cu517   1.971   .     S
O513   C516    1.276   .     A
O514   Cu518   1.971   .     S
O514   C515    1.276   .     A
C515   C526    1.454   .     S
C516   C525    1.454   .     S
Cu517  N520    1.981   .     S
Cu517  Cu518   2.636   .     S
Cu518  N519    1.981   .     S
N520   N819    1.198   .     S
C521   C539    1.490   .     S
C521   C529    1.409   .     A
C521   C525    1.411   .     A
C522   C542    1.490   .     S
C522   C526    1.411   .     A
C522   C530    1.409   .     A
C523   C545    1.491   .     S
C523   C527    1.411   .     A
C523   C525    1.408   .     A
C524   C528    1.411   .     A
C524   C526    1.408   .     A
C524   C548    1.491   .     S
C527   C533    1.404   .     A
C527   C531    1.417   .     A
C528   C534    1.404   .     A
C528   C532    1.417   .     A
C529   C531    1.416   .     A
C529   C535    1.405   .     A
C530   C536    1.405   .     A
C530   C532    1.416   .     A
C531   C582    1.418   .     S
C532   C581    1.418   1_455 S
C533   C586    1.384   .     S
C534   C585    1.384   1_455 S
C535   C584    1.384   .     S
C536   C583    1.384   1_455 S
C538   C337    1.189   1_565 S
C539   O541    1.220   .     D
C539   H540    1.085   .     S
C542   O544    1.220   .     D
C542   H543    1.085   .     S
C545   H546    1.085   .     S
C545   O547    1.221   .     D
C548   O550    1.221   .     D
C548   H549    1.085   .     S
O551   Cu567   1.936   .     S
O551   C559    1.274   .     A
O552   Cu568   1.936   .     S
O552   C560    1.274   .     A
O553   C560    1.275   .     A
O553   Cu567   1.936   .     S
O554   Cu568   1.936   .     S
O554   C559    1.275   .     A
H555   C583    1.080   .     S
H556   C584    1.080   .     S
H557   C585    1.080   .     S
H558   C586    1.080   .     S
C559   C587    1.407   .     S
C560   C588    1.407   .     S
O561   Cu567   1.969   .     S
O561   C565    1.277   .     A
O562   C566    1.277   .     A
O562   Cu568   1.969   .     S
O563   Cu567   1.971   .     S
O563   C566    1.276   .     A
O564   Cu568   1.971   .     S
O564   C565    1.276   .     A
C565   C576    1.454   .     S
C566   C575    1.454   .     S
Cu567  N570    1.981   .     S
Cu567  Cu568   2.636   .     S
Cu568  N569    1.981   .     S
N570   N869    1.198   .     S
C571   C589    1.490   .     S
C571   C579    1.409   .     A
C571   C575    1.411   .     A
C572   C592    1.490   .     S
C572   C576    1.411   .     A
C572   C580    1.409   .     A
C573   C595    1.491   .     S
C573   C577    1.411   .     A
C573   C575    1.408   .     A
C574   C578    1.411   .     A
C574   C576    1.408   .     A
C574   C598    1.491   .     S
C577   C583    1.404   .     A
C577   C581    1.417   .     A
C578   C584    1.404   .     A
C578   C582    1.417   .     A
C579   C581    1.416   .     A
C579   C585    1.405   .     A
C580   C586    1.405   .     A
C580   C582    1.416   .     A
C581   C532    1.418   1_655 S
C583   C536    1.384   1_655 S
C585   C534    1.384   1_655 S
C588   C387    1.189   1_565 S
C589   O591    1.220   .     D
C589   H590    1.085   .     S
C592   O594    1.220   .     D
C592   H593    1.085   .     S
C595   H596    1.085   .     S
C595   O597    1.221   .     D
C598   O600    1.221   .     D
C598   H599    1.085   .     S
O601   Cu617   1.936   .     S
O601   C609    1.274   .     A
O602   Cu618   1.936   .     S
O602   C610    1.274   .     A
O603   C610    1.275   .     A
O603   Cu617   1.936   .     S
O604   Cu618   1.936   .     S
O604   C609    1.275   .     A
H605   C633    1.080   .     S
H606   C634    1.080   .     S
H607   C635    1.080   .     S
H608   C636    1.080   .     S
C609   C637    1.407   .     S
C610   C638    1.407   .     S
O611   Cu617   1.969   .     S
O611   C615    1.277   .     A
O612   C616    1.277   .     A
O612   Cu618   1.969   .     S
O613   Cu617   1.971   .     S
O613   C616    1.276   .     A
O614   Cu618   1.971   .     S
O614   C615    1.276   .     A
C615   C626    1.454   .     S
C616   C625    1.454   .     S
Cu617  N620    1.981   .     S
Cu617  Cu618   2.636   .     S
Cu618  N619    1.981   .     S
N620   N19     1.198   1_556 S
C621   C639    1.490   .     S
C621   C629    1.409   .     A
C621   C625    1.411   .     A
C622   C642    1.490   .     S
C622   C626    1.411   .     A
C622   C630    1.409   .     A
C623   C645    1.491   .     S
C623   C627    1.411   .     A
C623   C625    1.408   .     A
C624   C628    1.411   .     A
C624   C626    1.408   .     A
C624   C648    1.491   .     S
C627   C633    1.404   .     A
C627   C631    1.417   .     A
C628   C634    1.404   .     A
C628   C632    1.417   .     A
C629   C631    1.416   .     A
C629   C635    1.405   .     A
C630   C636    1.405   .     A
C630   C632    1.416   .     A
C631   C682    1.418   .     S
C632   C681    1.418   1_455 S
C633   C686    1.384   .     S
C634   C685    1.384   1_455 S
C635   C684    1.384   .     S
C636   C683    1.384   1_455 S
C637   C838    1.189   1_545 S
C638   C737    1.189   .     S
C639   O641    1.220   .     D
C639   H640    1.085   .     S
C642   O644    1.220   .     D
C642   H643    1.085   .     S
C645   H646    1.085   .     S
C645   O647    1.221   .     D
C648   O650    1.221   .     D
C648   H649    1.085   .     S
O651   Cu667   1.936   .     S
O651   C659    1.274   .     A
O652   Cu668   1.936   .     S
O652   C660    1.274   .     A
O653   C660    1.275   .     A
O653   Cu667   1.936   .     S
O654   Cu668   1.936   .     S
O654   C659    1.275   .     A
H655   C683    1.080   .     S
H656   C684    1.080   .     S
H657   C685    1.080   .     S
H658   C686    1.080   .     S
C659   C687    1.407   .     S
C660   C688    1.407   .     S
O661   Cu667   1.969   .     S
O661   C665    1.277   .     A
O662   C666    1.277   .     A
O662   Cu668   1.969   .     S
O663   Cu667   1.971   .     S
O663   C666    1.276   .     A
O664   Cu668   1.971   .     S
O664   C665    1.276   .     A
C665   C676    1.454   .     S
C666   C675    1.454   .     S
Cu667  N670    1.981   .     S
Cu667  Cu668   2.636   .     S
Cu668  N669    1.981   .     S
N670   N69     1.198   1_556 S
C671   C689    1.490   .     S
C671   C679    1.409   .     A
C671   C675    1.411   .     A
C672   C692    1.490   .     S
C672   C676    1.411   .     A
C672   C680    1.409   .     A
C673   C695    1.491   .     S
C673   C677    1.411   .     A
C673   C675    1.408   .     A
C674   C678    1.411   .     A
C674   C676    1.408   .     A
C674   C698    1.491   .     S
C677   C683    1.404   .     A
C677   C681    1.417   .     A
C678   C684    1.404   .     A
C678   C682    1.417   .     A
C679   C681    1.416   .     A
C679   C685    1.405   .     A
C680   C686    1.405   .     A
C680   C682    1.416   .     A
C681   C632    1.418   1_655 S
C683   C636    1.384   1_655 S
C685   C634    1.384   1_655 S
C687   C888    1.189   1_545 S
C688   C787    1.189   .     S
C689   O691    1.220   .     D
C689   H690    1.085   .     S
C692   O694    1.220   .     D
C692   H693    1.085   .     S
C695   H696    1.085   .     S
C695   O697    1.221   .     D
C698   O700    1.221   .     D
C698   H699    1.085   .     S
O701   Cu717   1.936   .     S
O701   C709    1.274   .     A
O702   Cu718   1.936   .     S
O702   C710    1.274   .     A
O703   C710    1.275   .     A
O703   Cu717   1.936   .     S
O704   Cu718   1.936   .     S
O704   C709    1.275   .     A
H705   C733    1.080   .     S
H706   C734    1.080   .     S
H707   C735    1.080   .     S
H708   C736    1.080   .     S
C709   C737    1.407   .     S
C710   C738    1.407   .     S
O711   Cu717   1.969   .     S
O711   C715    1.277   .     A
O712   C716    1.277   .     A
O712   Cu718   1.969   .     S
O713   Cu717   1.971   .     S
O713   C716    1.276   .     A
O714   Cu718   1.971   .     S
O714   C715    1.276   .     A
C715   C726    1.454   .     S
C716   C725    1.454   .     S
Cu717  N720    1.981   .     S
Cu717  Cu718   2.636   .     S
Cu718  N719    1.981   .     S
N720   N119    1.198   1_556 S
C721   C739    1.490   .     S
C721   C729    1.409   .     A
C721   C725    1.411   .     A
C722   C742    1.490   .     S
C722   C726    1.411   .     A
C722   C730    1.409   .     A
C723   C745    1.491   .     S
C723   C727    1.411   .     A
C723   C725    1.408   .     A
C724   C728    1.411   .     A
C724   C726    1.408   .     A
C724   C748    1.491   .     S
C727   C733    1.404   .     A
C727   C731    1.417   .     A
C728   C734    1.404   .     A
C728   C732    1.417   .     A
C729   C731    1.416   .     A
C729   C735    1.405   .     A
C730   C736    1.405   .     A
C730   C732    1.416   .     A
C731   C782    1.418   .     S
C732   C781    1.418   1_455 S
C733   C786    1.384   .     S
C734   C785    1.384   1_455 S
C735   C784    1.384   .     S
C736   C783    1.384   1_455 S
C738   C837    1.189   .     S
C739   O741    1.220   .     D
C739   H740    1.085   .     S
C742   O744    1.220   .     D
C742   H743    1.085   .     S
C745   H746    1.085   .     S
C745   O747    1.221   .     D
C748   O750    1.221   .     D
C748   H749    1.085   .     S
O751   Cu767   1.936   .     S
O751   C759    1.274   .     A
O752   Cu768   1.936   .     S
O752   C760    1.274   .     A
O753   C760    1.275   .     A
O753   Cu767   1.936   .     S
O754   Cu768   1.936   .     S
O754   C759    1.275   .     A
H755   C783    1.080   .     S
H756   C784    1.080   .     S
H757   C785    1.080   .     S
H758   C786    1.080   .     S
C759   C787    1.407   .     S
C760   C788    1.407   .     S
O761   Cu767   1.969   .     S
O761   C765    1.277   .     A
O762   C766    1.277   .     A
O762   Cu768   1.969   .     S
O763   Cu767   1.971   .     S
O763   C766    1.276   .     A
O764   Cu768   1.971   .     S
O764   C765    1.276   .     A
C765   C776    1.454   .     S
C766   C775    1.454   .     S
Cu767  N770    1.981   .     S
Cu767  Cu768   2.636   .     S
Cu768  N769    1.981   .     S
N770   N169    1.198   1_556 S
C771   C789    1.490   .     S
C771   C779    1.409   .     A
C771   C775    1.411   .     A
C772   C792    1.490   .     S
C772   C776    1.411   .     A
C772   C780    1.409   .     A
C773   C795    1.491   .     S
C773   C777    1.411   .     A
C773   C775    1.408   .     A
C774   C778    1.411   .     A
C774   C776    1.408   .     A
C774   C798    1.491   .     S
C777   C783    1.404   .     A
C777   C781    1.417   .     A
C778   C784    1.404   .     A
C778   C782    1.417   .     A
C779   C781    1.416   .     A
C779   C785    1.405   .     A
C780   C786    1.405   .     A
C780   C782    1.416   .     A
C781   C732    1.418   1_655 S
C783   C736    1.384   1_655 S
C785   C734    1.384   1_655 S
C788   C887    1.189   .     S
C789   O791    1.220   .     D
C789   H790    1.085   .     S
C792   O794    1.220   .     D
C792   H793    1.085   .     S
C795   H796    1.085   .     S
C795   O797    1.221   .     D
C798   O800    1.221   .     D
C798   H799    1.085   .     S
O801   Cu817   1.936   .     S
O801   C809    1.274   .     A
O802   Cu818   1.936   .     S
O802   C810    1.274   .     A
O803   C810    1.275   .     A
O803   Cu817   1.936   .     S
O804   Cu818   1.936   .     S
O804   C809    1.275   .     A
H805   C833    1.080   .     S
H806   C834    1.080   .     S
H807   C835    1.080   .     S
H808   C836    1.080   .     S
C809   C837    1.407   .     S
C810   C838    1.407   .     S
O811   Cu817   1.969   .     S
O811   C815    1.277   .     A
O812   C816    1.277   .     A
O812   Cu818   1.969   .     S
O813   Cu817   1.971   .     S
O813   C816    1.276   .     A
O814   Cu818   1.971   .     S
O814   C815    1.276   .     A
C815   C826    1.454   .     S
C816   C825    1.454   .     S
Cu817  N820    1.981   .     S
Cu817  Cu818   2.636   .     S
Cu818  N819    1.981   .     S
N820   N219    1.198   1_556 S
C821   C839    1.490   .     S
C821   C829    1.409   .     A
C821   C825    1.411   .     A
C822   C842    1.490   .     S
C822   C826    1.411   .     A
C822   C830    1.409   .     A
C823   C845    1.491   .     S
C823   C827    1.411   .     A
C823   C825    1.408   .     A
C824   C828    1.411   .     A
C824   C826    1.408   .     A
C824   C848    1.491   .     S
C827   C833    1.404   .     A
C827   C831    1.417   .     A
C828   C834    1.404   .     A
C828   C832    1.417   .     A
C829   C831    1.416   .     A
C829   C835    1.405   .     A
C830   C836    1.405   .     A
C830   C832    1.416   .     A
C831   C882    1.418   .     S
C832   C881    1.418   1_455 S
C833   C886    1.384   .     S
C834   C885    1.384   1_455 S
C835   C884    1.384   .     S
C836   C883    1.384   1_455 S
C838   C637    1.189   1_565 S
C839   O841    1.220   .     D
C839   H840    1.085   .     S
C842   O844    1.220   .     D
C842   H843    1.085   .     S
C845   H846    1.085   .     S
C845   O847    1.221   .     D
C848   O850    1.221   .     D
C848   H849    1.085   .     S
O851   Cu867   1.936   .     S
O851   C859    1.274   .     A
O852   Cu868   1.936   .     S
O852   C860    1.274   .     A
O853   C860    1.275   .     A
O853   Cu867   1.936   .     S
O854   Cu868   1.936   .     S
O854   C859    1.275   .     A
H855   C883    1.080   .     S
H856   C884    1.080   .     S
H857   C885    1.080   .     S
H858   C886    1.080   .     S
C859   C887    1.407   .     S
C860   C888    1.407   .     S
O861   Cu867   1.969   .     S
O861   C865    1.277   .     A
O862   C866    1.277   .     A
O862   Cu868   1.969   .     S
O863   Cu867   1.971   .     S
O863   C866    1.276   .     A
O864   Cu868   1.971   .     S
O864   C865    1.276   .     A
C865   C876    1.454   .     S
C866   C875    1.454   .     S
Cu867  N870    1.981   .     S
Cu867  Cu868   2.636   .     S
Cu868  N869    1.981   .     S
N870   N269    1.198   1_556 S
C871   C889    1.490   .     S
C871   C879    1.409   .     A
C871   C875    1.411   .     A
C872   C892    1.490   .     S
C872   C876    1.411   .     A
C872   C880    1.409   .     A
C873   C895    1.491   .     S
C873   C877    1.411   .     A
C873   C875    1.408   .     A
C874   C878    1.411   .     A
C874   C876    1.408   .     A
C874   C898    1.491   .     S
C877   C883    1.404   .     A
C877   C881    1.417   .     A
C878   C884    1.404   .     A
C878   C882    1.417   .     A
C879   C881    1.416   .     A
C879   C885    1.405   .     A
C880   C886    1.405   .     A
C880   C882    1.416   .     A
C881   C832    1.418   1_655 S
C883   C836    1.384   1_655 S
C885   C834    1.384   1_655 S
C888   C687    1.189   1_565 S
C889   O891    1.220   .     D
C889   H890    1.085   .     S
C892   O894    1.220   .     D
C892   H893    1.085   .     S
C895   H896    1.085   .     S
C895   O897    1.221   .     D
C898   O900    1.221   .     D
C898   H899    1.085   .     S
