data_str_m3_o1_o2_pcu_sym.55
_audit_creation_date              2020-01-03
_audit_creation_method            'Materials Studio'
_symmetry_space_group_name_H-M    'P1'
_symmetry_Int_Tables_number       1
_symmetry_cell_setting            triclinic
loop_
_symmetry_equiv_pos_as_xyz
  x,y,z
_cell_length_a                    32.1434
_cell_length_b                    29.5250
_cell_length_c                    29.9077
_cell_angle_alpha                 89.9722
_cell_angle_beta                  90.1208
_cell_angle_gamma                 90.0105
loop_
_atom_site_label
_atom_site_type_symbol
_atom_site_fract_x
_atom_site_fract_y
_atom_site_fract_z
_atom_site_U_iso_or_equiv
_atom_site_adp_type
_atom_site_occupancy
C1     C     0.08662   0.16666   0.24996   0.00000  Uiso   1.00
C2     C     0.31202   0.20721   0.24211   0.00000  Uiso   1.00
C3     C     0.31204   0.12613   0.25792   0.00000  Uiso   1.00
C4     C     0.02129   0.20720   0.24206   0.00000  Uiso   1.00
C5     C     0.13367   0.18644   0.04668   0.00000  Uiso   1.00
C6     C     0.13378   0.14695   0.45321   0.00000  Uiso   1.00
C7     C     0.20029   0.18645   0.45313   0.00000  Uiso   1.00
C8     C     0.20040   0.14741   0.04700   0.00000  Uiso   1.00
C9     C     0.13339   0.18669   0.09294   0.00000  Uiso   1.00
C10    C     0.13352   0.14657   0.40696   0.00000  Uiso   1.00
C11    C     0.20033   0.18671   0.40686   0.00000  Uiso   1.00
C12    C     0.24671   0.16667   0.25003   0.00000  Uiso   1.00
C13    C     0.20042   0.14702   0.09327   0.00000  Uiso   1.00
C14    C     0.16681   0.16676   0.11619   0.00000  Uiso   1.00
C15    C     0.16685   0.16664   0.38382   0.00000  Uiso   1.00
C16    C     0.16708   0.16691   0.02403   0.00000  Uiso   1.00
C17    C     0.16707   0.16676   0.47598   0.00000  Uiso   1.00
C18    C     0.29085   0.16667   0.25004   0.00000  Uiso   1.00
C19    C     0.04248   0.16666   0.24995   0.00000  Uiso   1.00
C20    C     0.09822   0.20652   0.11582   0.00000  Uiso   1.00
C21    C     0.09841   0.12653   0.38397   0.00000  Uiso   1.00
C22    C     0.23532   0.20668   0.38374   0.00000  Uiso   1.00
C23    C     0.16667   0.16668   0.16410   0.00000  Uiso   1.00
C24    C     0.23555   0.12733   0.11652   0.00000  Uiso   1.00
C25    C     0.16670   0.16666   0.33591   0.00000  Uiso   1.00
C26    C     0.19372   0.02397   0.27649   0.00000  Uiso   1.00
C27    C     0.13962   0.30935   0.22351   0.00000  Uiso   1.00
C28    C     0.13962   0.02399   0.22351   0.00000  Uiso   1.00
C29    C     0.19371   0.30934   0.27649   0.00000  Uiso   1.00
C30    C     0.02131   0.12612   0.25786   0.00000  Uiso   1.00
H31    H     0.21534   0.04214   0.29766   0.00000  Uiso   1.00
H32    H     0.29579   0.23873   0.23571   0.00000  Uiso   1.00
H33    H     0.29583   0.09462   0.26437   0.00000  Uiso   1.00
H34    H     0.03750   0.23871   0.23560   0.00000  Uiso   1.00
H35    H     0.11800   0.29118   0.20232   0.00000  Uiso   1.00
H36    H     0.11799   0.04217   0.20234   0.00000  Uiso   1.00
H37    H     0.21533   0.29116   0.29768   0.00000  Uiso   1.00
H38    H     0.10812   0.20156   0.02819   0.00000  Uiso   1.00
H39    H     0.10830   0.13171   0.47161   0.00000  Uiso   1.00
H40    H     0.22583   0.20175   0.47146   0.00000  Uiso   1.00
H41    H     0.22604   0.13234   0.02876   0.00000  Uiso   1.00
H42    H     0.03754   0.09460   0.26427   0.00000  Uiso   1.00
N43    N     0.16667   0.28573   0.25000   0.00000  Uiso   1.00
N44    N     0.16667   0.04760   0.25000   0.00000  Uiso   1.00
N45    N     0.07010   0.22236   0.13416   0.00000  Uiso   1.00
N46    N     0.07034   0.11053   0.36554   0.00000  Uiso   1.00
N47    N     0.26329   0.22262   0.36518   0.00000  Uiso   1.00
N48    N     0.26364   0.11162   0.13517   0.00000  Uiso   1.00
O49    O     0.10559   0.20487   0.25000   0.00000  Uiso   1.00
O50    O     0.22774   0.12846   0.25001   0.00000  Uiso   1.00
O51    O     0.22774   0.20487   0.25001   0.00000  Uiso   1.00
O52    O     0.10559   0.12846   0.25000   0.00000  Uiso   1.00
O53    O     0.16666   0.20489   0.18453   0.00000  Uiso   1.00
O54    O     0.16667   0.12845   0.31547   0.00000  Uiso   1.00
O55    O     0.16667   0.20489   0.31547   0.00000  Uiso   1.00
O56    O     0.16666   0.12845   0.18453   0.00000  Uiso   1.00
Zn57   Zn    0.16667   0.21771   0.25000   0.00000  Uiso   1.00
Zn58   Zn    0.16667   0.11563   0.25000   0.00000  Uiso   1.00
C59    C     0.41996   0.16666   0.24996   0.00000  Uiso   1.00
C60    C     0.64535   0.20721   0.24211   0.00000  Uiso   1.00
C61    C     0.64537   0.12613   0.25792   0.00000  Uiso   1.00
C62    C     0.35463   0.20720   0.24206   0.00000  Uiso   1.00
C63    C     0.46701   0.18644   0.04668   0.00000  Uiso   1.00
C64    C     0.46711   0.14695   0.45321   0.00000  Uiso   1.00
C65    C     0.53362   0.18645   0.45313   0.00000  Uiso   1.00
C66    C     0.53373   0.14741   0.04700   0.00000  Uiso   1.00
C67    C     0.46672   0.18669   0.09294   0.00000  Uiso   1.00
C68    C     0.46685   0.14657   0.40696   0.00000  Uiso   1.00
C69    C     0.53366   0.18671   0.40686   0.00000  Uiso   1.00
C70    C     0.58004   0.16667   0.25003   0.00000  Uiso   1.00
C71    C     0.53376   0.14702   0.09327   0.00000  Uiso   1.00
C72    C     0.50014   0.16676   0.11619   0.00000  Uiso   1.00
C73    C     0.50019   0.16664   0.38382   0.00000  Uiso   1.00
C74    C     0.50041   0.16691   0.02403   0.00000  Uiso   1.00
C75    C     0.50040   0.16676   0.47598   0.00000  Uiso   1.00
C76    C     0.62419   0.16667   0.25004   0.00000  Uiso   1.00
C77    C     0.37581   0.16666   0.24995   0.00000  Uiso   1.00
C78    C     0.43155   0.20652   0.11582   0.00000  Uiso   1.00
C79    C     0.43175   0.12653   0.38397   0.00000  Uiso   1.00
C80    C     0.56865   0.20668   0.38374   0.00000  Uiso   1.00
C81    C     0.50000   0.16668   0.16410   0.00000  Uiso   1.00
C82    C     0.56888   0.12733   0.11652   0.00000  Uiso   1.00
C83    C     0.50004   0.16666   0.33591   0.00000  Uiso   1.00
C84    C     0.52705   0.02397   0.27649   0.00000  Uiso   1.00
C85    C     0.47295   0.30935   0.22351   0.00000  Uiso   1.00
C86    C     0.47295   0.02399   0.22351   0.00000  Uiso   1.00
C87    C     0.52705   0.30934   0.27649   0.00000  Uiso   1.00
C88    C     0.35464   0.12612   0.25786   0.00000  Uiso   1.00
H89    H     0.54868   0.04214   0.29766   0.00000  Uiso   1.00
H90    H     0.62913   0.23873   0.23571   0.00000  Uiso   1.00
H91    H     0.62916   0.09462   0.26437   0.00000  Uiso   1.00
H92    H     0.37084   0.23871   0.23560   0.00000  Uiso   1.00
H93    H     0.45133   0.29118   0.20232   0.00000  Uiso   1.00
H94    H     0.45133   0.04217   0.20234   0.00000  Uiso   1.00
H95    H     0.54866   0.29116   0.29768   0.00000  Uiso   1.00
H96    H     0.44146   0.20156   0.02819   0.00000  Uiso   1.00
H97    H     0.44164   0.13171   0.47161   0.00000  Uiso   1.00
H98    H     0.55917   0.20175   0.47146   0.00000  Uiso   1.00
H99    H     0.55938   0.13234   0.02876   0.00000  Uiso   1.00
H100   H     0.37087   0.09460   0.26427   0.00000  Uiso   1.00
N101   N     0.50000   0.28573   0.25000   0.00000  Uiso   1.00
N102   N     0.50000   0.04760   0.25000   0.00000  Uiso   1.00
N103   N     0.40343   0.22236   0.13416   0.00000  Uiso   1.00
N104   N     0.40367   0.11053   0.36554   0.00000  Uiso   1.00
N105   N     0.59662   0.22262   0.36518   0.00000  Uiso   1.00
N106   N     0.59697   0.11162   0.13517   0.00000  Uiso   1.00
O107   O     0.43892   0.20487   0.25000   0.00000  Uiso   1.00
O108   O     0.56108   0.12846   0.25001   0.00000  Uiso   1.00
O109   O     0.56108   0.20487   0.25001   0.00000  Uiso   1.00
O110   O     0.43892   0.12846   0.25000   0.00000  Uiso   1.00
O111   O     0.50000   0.20489   0.18453   0.00000  Uiso   1.00
O112   O     0.50000   0.12845   0.31547   0.00000  Uiso   1.00
O113   O     0.50000   0.20489   0.31547   0.00000  Uiso   1.00
O114   O     0.50000   0.12845   0.18453   0.00000  Uiso   1.00
Zn115  Zn    0.50000   0.21771   0.25000   0.00000  Uiso   1.00
Zn116  Zn    0.50000   0.11563   0.25000   0.00000  Uiso   1.00
C117   C     0.75329   0.16666   0.24996   0.00000  Uiso   1.00
C118   C     0.97868   0.20721   0.24211   0.00000  Uiso   1.00
C119   C     0.97870   0.12613   0.25792   0.00000  Uiso   1.00
C120   C     0.68796   0.20720   0.24206   0.00000  Uiso   1.00
C121   C     0.80034   0.18644   0.04668   0.00000  Uiso   1.00
C122   C     0.80045   0.14695   0.45321   0.00000  Uiso   1.00
C123   C     0.86695   0.18645   0.45313   0.00000  Uiso   1.00
C124   C     0.86707   0.14741   0.04700   0.00000  Uiso   1.00
C125   C     0.80005   0.18669   0.09294   0.00000  Uiso   1.00
C126   C     0.80018   0.14657   0.40696   0.00000  Uiso   1.00
C127   C     0.86700   0.18671   0.40686   0.00000  Uiso   1.00
C128   C     0.91337   0.16667   0.25003   0.00000  Uiso   1.00
C129   C     0.86709   0.14702   0.09327   0.00000  Uiso   1.00
C130   C     0.83347   0.16676   0.11619   0.00000  Uiso   1.00
C131   C     0.83352   0.16664   0.38382   0.00000  Uiso   1.00
C132   C     0.83374   0.16691   0.02403   0.00000  Uiso   1.00
C133   C     0.83373   0.16676   0.47598   0.00000  Uiso   1.00
C134   C     0.95752   0.16667   0.25004   0.00000  Uiso   1.00
C135   C     0.70914   0.16666   0.24995   0.00000  Uiso   1.00
C136   C     0.76489   0.20652   0.11582   0.00000  Uiso   1.00
C137   C     0.76508   0.12653   0.38397   0.00000  Uiso   1.00
C138   C     0.90198   0.20668   0.38374   0.00000  Uiso   1.00
C139   C     0.83333   0.16668   0.16410   0.00000  Uiso   1.00
C140   C     0.90222   0.12733   0.11652   0.00000  Uiso   1.00
C141   C     0.83337   0.16666   0.33591   0.00000  Uiso   1.00
C142   C     0.86038   0.02397   0.27649   0.00000  Uiso   1.00
C143   C     0.80629   0.30935   0.22351   0.00000  Uiso   1.00
C144   C     0.80628   0.02399   0.22351   0.00000  Uiso   1.00
C145   C     0.86038   0.30934   0.27649   0.00000  Uiso   1.00
C146   C     0.68798   0.12612   0.25786   0.00000  Uiso   1.00
H147   H     0.88201   0.04214   0.29766   0.00000  Uiso   1.00
H148   H     0.96246   0.23873   0.23571   0.00000  Uiso   1.00
H149   H     0.96249   0.09462   0.26437   0.00000  Uiso   1.00
H150   H     0.70417   0.23871   0.23560   0.00000  Uiso   1.00
H151   H     0.78467   0.29118   0.20232   0.00000  Uiso   1.00
H152   H     0.78466   0.04217   0.20234   0.00000  Uiso   1.00
H153   H     0.88200   0.29116   0.29768   0.00000  Uiso   1.00
H154   H     0.77479   0.20156   0.02819   0.00000  Uiso   1.00
H155   H     0.77497   0.13171   0.47161   0.00000  Uiso   1.00
H156   H     0.89250   0.20175   0.47146   0.00000  Uiso   1.00
H157   H     0.89271   0.13234   0.02876   0.00000  Uiso   1.00
H158   H     0.70420   0.09460   0.26427   0.00000  Uiso   1.00
N159   N     0.83333   0.28573   0.25000   0.00000  Uiso   1.00
N160   N     0.83333   0.04760   0.25000   0.00000  Uiso   1.00
N161   N     0.73676   0.22236   0.13416   0.00000  Uiso   1.00
N162   N     0.73700   0.11053   0.36554   0.00000  Uiso   1.00
N163   N     0.92995   0.22262   0.36518   0.00000  Uiso   1.00
N164   N     0.93031   0.11162   0.13517   0.00000  Uiso   1.00
O165   O     0.77226   0.20487   0.25000   0.00000  Uiso   1.00
O166   O     0.89441   0.12846   0.25001   0.00000  Uiso   1.00
O167   O     0.89441   0.20487   0.25001   0.00000  Uiso   1.00
O168   O     0.77226   0.12846   0.25000   0.00000  Uiso   1.00
O169   O     0.83333   0.20489   0.18453   0.00000  Uiso   1.00
O170   O     0.83334   0.12845   0.31547   0.00000  Uiso   1.00
O171   O     0.83334   0.20489   0.31547   0.00000  Uiso   1.00
O172   O     0.83333   0.12845   0.18453   0.00000  Uiso   1.00
Zn173  Zn    0.83333   0.21771   0.25000   0.00000  Uiso   1.00
Zn174  Zn    0.83333   0.11563   0.25000   0.00000  Uiso   1.00
C175   C     0.08662   0.50000   0.24996   0.00000  Uiso   1.00
C176   C     0.31202   0.54054   0.24211   0.00000  Uiso   1.00
C177   C     0.31204   0.45946   0.25792   0.00000  Uiso   1.00
C178   C     0.02129   0.54053   0.24206   0.00000  Uiso   1.00
C179   C     0.13367   0.51977   0.04668   0.00000  Uiso   1.00
C180   C     0.13378   0.48029   0.45321   0.00000  Uiso   1.00
C181   C     0.20029   0.51978   0.45313   0.00000  Uiso   1.00
C182   C     0.20040   0.48075   0.04700   0.00000  Uiso   1.00
C183   C     0.13339   0.52003   0.09294   0.00000  Uiso   1.00
C184   C     0.13352   0.47990   0.40696   0.00000  Uiso   1.00
C185   C     0.20033   0.52005   0.40686   0.00000  Uiso   1.00
C186   C     0.24671   0.50000   0.25003   0.00000  Uiso   1.00
C187   C     0.20042   0.48035   0.09327   0.00000  Uiso   1.00
C188   C     0.16681   0.50009   0.11619   0.00000  Uiso   1.00
C189   C     0.16685   0.49997   0.38382   0.00000  Uiso   1.00
C190   C     0.16708   0.50025   0.02403   0.00000  Uiso   1.00
C191   C     0.16707   0.50009   0.47598   0.00000  Uiso   1.00
C192   C     0.29085   0.50001   0.25004   0.00000  Uiso   1.00
C193   C     0.04248   0.49999   0.24995   0.00000  Uiso   1.00
C194   C     0.09822   0.53986   0.11582   0.00000  Uiso   1.00
C195   C     0.09841   0.45986   0.38397   0.00000  Uiso   1.00
C196   C     0.23532   0.54002   0.38374   0.00000  Uiso   1.00
C197   C     0.16667   0.50002   0.16410   0.00000  Uiso   1.00
C198   C     0.23555   0.46066   0.11652   0.00000  Uiso   1.00
C199   C     0.16670   0.49999   0.33591   0.00000  Uiso   1.00
C200   C     0.19372   0.35731   0.27649   0.00000  Uiso   1.00
C201   C     0.13962   0.64269   0.22351   0.00000  Uiso   1.00
C202   C     0.13962   0.35732   0.22351   0.00000  Uiso   1.00
C203   C     0.19371   0.64267   0.27649   0.00000  Uiso   1.00
C204   C     0.02131   0.45945   0.25786   0.00000  Uiso   1.00
H205   H     0.21534   0.37548   0.29766   0.00000  Uiso   1.00
H206   H     0.29579   0.57206   0.23571   0.00000  Uiso   1.00
H207   H     0.29583   0.42795   0.26437   0.00000  Uiso   1.00
H208   H     0.03750   0.57204   0.23560   0.00000  Uiso   1.00
H209   H     0.11800   0.62451   0.20232   0.00000  Uiso   1.00
H210   H     0.11799   0.37550   0.20234   0.00000  Uiso   1.00
H211   H     0.21533   0.62449   0.29768   0.00000  Uiso   1.00
H212   H     0.10812   0.53489   0.02819   0.00000  Uiso   1.00
H213   H     0.10830   0.46504   0.47161   0.00000  Uiso   1.00
H214   H     0.22583   0.53509   0.47146   0.00000  Uiso   1.00
H215   H     0.22604   0.46568   0.02876   0.00000  Uiso   1.00
H216   H     0.03754   0.42794   0.26427   0.00000  Uiso   1.00
N217   N     0.16667   0.61907   0.25000   0.00000  Uiso   1.00
N218   N     0.16667   0.38093   0.25000   0.00000  Uiso   1.00
N219   N     0.07010   0.55570   0.13416   0.00000  Uiso   1.00
N220   N     0.07034   0.44386   0.36554   0.00000  Uiso   1.00
N221   N     0.26329   0.55595   0.36518   0.00000  Uiso   1.00
N222   N     0.26364   0.44495   0.13517   0.00000  Uiso   1.00
O223   O     0.10559   0.53821   0.25000   0.00000  Uiso   1.00
O224   O     0.22774   0.46179   0.25001   0.00000  Uiso   1.00
O225   O     0.22774   0.53821   0.25001   0.00000  Uiso   1.00
O226   O     0.10559   0.46179   0.25000   0.00000  Uiso   1.00
O227   O     0.16666   0.53822   0.18453   0.00000  Uiso   1.00
O228   O     0.16667   0.46178   0.31547   0.00000  Uiso   1.00
O229   O     0.16667   0.53822   0.31547   0.00000  Uiso   1.00
O230   O     0.16666   0.46178   0.18453   0.00000  Uiso   1.00
Zn231  Zn    0.16667   0.55104   0.25000   0.00000  Uiso   1.00
Zn232  Zn    0.16667   0.44896   0.25000   0.00000  Uiso   1.00
C233   C     0.41996   0.50000   0.24996   0.00000  Uiso   1.00
C234   C     0.64535   0.54054   0.24211   0.00000  Uiso   1.00
C235   C     0.64537   0.45946   0.25792   0.00000  Uiso   1.00
C236   C     0.35463   0.54053   0.24206   0.00000  Uiso   1.00
C237   C     0.46701   0.51977   0.04668   0.00000  Uiso   1.00
C238   C     0.46711   0.48029   0.45321   0.00000  Uiso   1.00
C239   C     0.53362   0.51978   0.45313   0.00000  Uiso   1.00
C240   C     0.53373   0.48075   0.04700   0.00000  Uiso   1.00
C241   C     0.46672   0.52003   0.09294   0.00000  Uiso   1.00
C242   C     0.46685   0.47990   0.40696   0.00000  Uiso   1.00
C243   C     0.53366   0.52005   0.40686   0.00000  Uiso   1.00
C244   C     0.58004   0.50000   0.25003   0.00000  Uiso   1.00
C245   C     0.53376   0.48035   0.09327   0.00000  Uiso   1.00
C246   C     0.50014   0.50009   0.11619   0.00000  Uiso   1.00
C247   C     0.50019   0.49997   0.38382   0.00000  Uiso   1.00
C248   C     0.50041   0.50025   0.02403   0.00000  Uiso   1.00
C249   C     0.50040   0.50009   0.47598   0.00000  Uiso   1.00
C250   C     0.62419   0.50001   0.25004   0.00000  Uiso   1.00
C251   C     0.37581   0.49999   0.24995   0.00000  Uiso   1.00
C252   C     0.43155   0.53986   0.11582   0.00000  Uiso   1.00
C253   C     0.43175   0.45986   0.38397   0.00000  Uiso   1.00
C254   C     0.56865   0.54002   0.38374   0.00000  Uiso   1.00
C255   C     0.50000   0.50002   0.16410   0.00000  Uiso   1.00
C256   C     0.56888   0.46066   0.11652   0.00000  Uiso   1.00
C257   C     0.50004   0.49999   0.33591   0.00000  Uiso   1.00
C258   C     0.52705   0.35731   0.27649   0.00000  Uiso   1.00
C259   C     0.47295   0.64269   0.22351   0.00000  Uiso   1.00
C260   C     0.47295   0.35732   0.22351   0.00000  Uiso   1.00
C261   C     0.52705   0.64267   0.27649   0.00000  Uiso   1.00
C262   C     0.35464   0.45945   0.25786   0.00000  Uiso   1.00
H263   H     0.54868   0.37548   0.29766   0.00000  Uiso   1.00
H264   H     0.62913   0.57206   0.23571   0.00000  Uiso   1.00
H265   H     0.62916   0.42795   0.26437   0.00000  Uiso   1.00
H266   H     0.37084   0.57204   0.23560   0.00000  Uiso   1.00
H267   H     0.45133   0.62451   0.20232   0.00000  Uiso   1.00
H268   H     0.45133   0.37550   0.20234   0.00000  Uiso   1.00
H269   H     0.54866   0.62449   0.29768   0.00000  Uiso   1.00
H270   H     0.44146   0.53489   0.02819   0.00000  Uiso   1.00
H271   H     0.44164   0.46504   0.47161   0.00000  Uiso   1.00
H272   H     0.55917   0.53509   0.47146   0.00000  Uiso   1.00
H273   H     0.55938   0.46568   0.02876   0.00000  Uiso   1.00
H274   H     0.37087   0.42794   0.26427   0.00000  Uiso   1.00
N275   N     0.50000   0.61907   0.25000   0.00000  Uiso   1.00
N276   N     0.50000   0.38093   0.25000   0.00000  Uiso   1.00
N277   N     0.40343   0.55570   0.13416   0.00000  Uiso   1.00
N278   N     0.40367   0.44386   0.36554   0.00000  Uiso   1.00
N279   N     0.59662   0.55595   0.36518   0.00000  Uiso   1.00
N280   N     0.59697   0.44495   0.13517   0.00000  Uiso   1.00
O281   O     0.43892   0.53821   0.25000   0.00000  Uiso   1.00
O282   O     0.56108   0.46179   0.25001   0.00000  Uiso   1.00
O283   O     0.56108   0.53821   0.25001   0.00000  Uiso   1.00
O284   O     0.43892   0.46179   0.25000   0.00000  Uiso   1.00
O285   O     0.50000   0.53822   0.18453   0.00000  Uiso   1.00
O286   O     0.50000   0.46178   0.31547   0.00000  Uiso   1.00
O287   O     0.50000   0.53822   0.31547   0.00000  Uiso   1.00
O288   O     0.50000   0.46178   0.18453   0.00000  Uiso   1.00
Zn289  Zn    0.50000   0.55104   0.25000   0.00000  Uiso   1.00
Zn290  Zn    0.50000   0.44896   0.25000   0.00000  Uiso   1.00
C291   C     0.75329   0.50000   0.24996   0.00000  Uiso   1.00
C292   C     0.97868   0.54054   0.24211   0.00000  Uiso   1.00
C293   C     0.97870   0.45946   0.25792   0.00000  Uiso   1.00
C294   C     0.68796   0.54053   0.24206   0.00000  Uiso   1.00
C295   C     0.80034   0.51977   0.04668   0.00000  Uiso   1.00
C296   C     0.80045   0.48029   0.45321   0.00000  Uiso   1.00
C297   C     0.86695   0.51978   0.45313   0.00000  Uiso   1.00
C298   C     0.86707   0.48075   0.04700   0.00000  Uiso   1.00
C299   C     0.80005   0.52003   0.09294   0.00000  Uiso   1.00
C300   C     0.80018   0.47990   0.40696   0.00000  Uiso   1.00
C301   C     0.86700   0.52005   0.40686   0.00000  Uiso   1.00
C302   C     0.91337   0.50000   0.25003   0.00000  Uiso   1.00
C303   C     0.86709   0.48035   0.09327   0.00000  Uiso   1.00
C304   C     0.83347   0.50009   0.11619   0.00000  Uiso   1.00
C305   C     0.83352   0.49997   0.38382   0.00000  Uiso   1.00
C306   C     0.83374   0.50025   0.02403   0.00000  Uiso   1.00
C307   C     0.83373   0.50009   0.47598   0.00000  Uiso   1.00
C308   C     0.95752   0.50001   0.25004   0.00000  Uiso   1.00
C309   C     0.70914   0.49999   0.24995   0.00000  Uiso   1.00
C310   C     0.76489   0.53986   0.11582   0.00000  Uiso   1.00
C311   C     0.76508   0.45986   0.38397   0.00000  Uiso   1.00
C312   C     0.90198   0.54002   0.38374   0.00000  Uiso   1.00
C313   C     0.83333   0.50002   0.16410   0.00000  Uiso   1.00
C314   C     0.90222   0.46066   0.11652   0.00000  Uiso   1.00
C315   C     0.83337   0.49999   0.33591   0.00000  Uiso   1.00
C316   C     0.86038   0.35731   0.27649   0.00000  Uiso   1.00
C317   C     0.80629   0.64269   0.22351   0.00000  Uiso   1.00
C318   C     0.80628   0.35732   0.22351   0.00000  Uiso   1.00
C319   C     0.86038   0.64267   0.27649   0.00000  Uiso   1.00
C320   C     0.68798   0.45945   0.25786   0.00000  Uiso   1.00
H321   H     0.88201   0.37548   0.29766   0.00000  Uiso   1.00
H322   H     0.96246   0.57206   0.23571   0.00000  Uiso   1.00
H323   H     0.96249   0.42795   0.26437   0.00000  Uiso   1.00
H324   H     0.70417   0.57204   0.23560   0.00000  Uiso   1.00
H325   H     0.78467   0.62451   0.20232   0.00000  Uiso   1.00
H326   H     0.78466   0.37550   0.20234   0.00000  Uiso   1.00
H327   H     0.88200   0.62449   0.29768   0.00000  Uiso   1.00
H328   H     0.77479   0.53489   0.02819   0.00000  Uiso   1.00
H329   H     0.77497   0.46504   0.47161   0.00000  Uiso   1.00
H330   H     0.89250   0.53509   0.47146   0.00000  Uiso   1.00
H331   H     0.89271   0.46568   0.02876   0.00000  Uiso   1.00
H332   H     0.70420   0.42794   0.26427   0.00000  Uiso   1.00
N333   N     0.83333   0.61907   0.25000   0.00000  Uiso   1.00
N334   N     0.83333   0.38093   0.25000   0.00000  Uiso   1.00
N335   N     0.73676   0.55570   0.13416   0.00000  Uiso   1.00
N336   N     0.73700   0.44386   0.36554   0.00000  Uiso   1.00
N337   N     0.92995   0.55595   0.36518   0.00000  Uiso   1.00
N338   N     0.93031   0.44495   0.13517   0.00000  Uiso   1.00
O339   O     0.77226   0.53821   0.25000   0.00000  Uiso   1.00
O340   O     0.89441   0.46179   0.25001   0.00000  Uiso   1.00
O341   O     0.89441   0.53821   0.25001   0.00000  Uiso   1.00
O342   O     0.77226   0.46179   0.25000   0.00000  Uiso   1.00
O343   O     0.83333   0.53822   0.18453   0.00000  Uiso   1.00
O344   O     0.83334   0.46178   0.31547   0.00000  Uiso   1.00
O345   O     0.83334   0.53822   0.31547   0.00000  Uiso   1.00
O346   O     0.83333   0.46178   0.18453   0.00000  Uiso   1.00
Zn347  Zn    0.83333   0.55104   0.25000   0.00000  Uiso   1.00
Zn348  Zn    0.83333   0.44896   0.25000   0.00000  Uiso   1.00
C349   C     0.08662   0.83333   0.24996   0.00000  Uiso   1.00
C350   C     0.31202   0.87388   0.24211   0.00000  Uiso   1.00
C351   C     0.31204   0.79280   0.25792   0.00000  Uiso   1.00
C352   C     0.02129   0.87387   0.24206   0.00000  Uiso   1.00
C353   C     0.13367   0.85310   0.04668   0.00000  Uiso   1.00
C354   C     0.13378   0.81362   0.45321   0.00000  Uiso   1.00
C355   C     0.20029   0.85311   0.45313   0.00000  Uiso   1.00
C356   C     0.20040   0.81408   0.04700   0.00000  Uiso   1.00
C357   C     0.13339   0.85336   0.09294   0.00000  Uiso   1.00
C358   C     0.13352   0.81323   0.40696   0.00000  Uiso   1.00
C359   C     0.20033   0.85338   0.40686   0.00000  Uiso   1.00
C360   C     0.24671   0.83334   0.25003   0.00000  Uiso   1.00
C361   C     0.20042   0.81369   0.09327   0.00000  Uiso   1.00
C362   C     0.16681   0.83342   0.11619   0.00000  Uiso   1.00
C363   C     0.16685   0.83330   0.38382   0.00000  Uiso   1.00
C364   C     0.16708   0.83358   0.02403   0.00000  Uiso   1.00
C365   C     0.16707   0.83343   0.47598   0.00000  Uiso   1.00
C366   C     0.29085   0.83334   0.25004   0.00000  Uiso   1.00
C367   C     0.04248   0.83332   0.24995   0.00000  Uiso   1.00
C368   C     0.09822   0.87319   0.11582   0.00000  Uiso   1.00
C369   C     0.09841   0.79320   0.38397   0.00000  Uiso   1.00
C370   C     0.23532   0.87335   0.38374   0.00000  Uiso   1.00
C371   C     0.16667   0.83335   0.16410   0.00000  Uiso   1.00
C372   C     0.23555   0.79399   0.11652   0.00000  Uiso   1.00
C373   C     0.16670   0.83332   0.33591   0.00000  Uiso   1.00
C374   C     0.19372   0.69064   0.27649   0.00000  Uiso   1.00
C375   C     0.13962   0.97602   0.22351   0.00000  Uiso   1.00
C376   C     0.13962   0.69065   0.22351   0.00000  Uiso   1.00
C377   C     0.19371   0.97601   0.27649   0.00000  Uiso   1.00
C378   C     0.02131   0.79279   0.25786   0.00000  Uiso   1.00
H379   H     0.21534   0.70881   0.29766   0.00000  Uiso   1.00
H380   H     0.29579   0.90540   0.23571   0.00000  Uiso   1.00
H381   H     0.29583   0.76129   0.26437   0.00000  Uiso   1.00
H382   H     0.03750   0.90538   0.23560   0.00000  Uiso   1.00
H383   H     0.11800   0.95785   0.20232   0.00000  Uiso   1.00
H384   H     0.11799   0.70884   0.20234   0.00000  Uiso   1.00
H385   H     0.21533   0.95782   0.29768   0.00000  Uiso   1.00
H386   H     0.10812   0.86822   0.02819   0.00000  Uiso   1.00
H387   H     0.10830   0.79837   0.47161   0.00000  Uiso   1.00
H388   H     0.22583   0.86842   0.47146   0.00000  Uiso   1.00
H389   H     0.22604   0.79901   0.02876   0.00000  Uiso   1.00
H390   H     0.03754   0.76127   0.26427   0.00000  Uiso   1.00
N391   N     0.16667   0.95240   0.25000   0.00000  Uiso   1.00
N392   N     0.16667   0.71427   0.25000   0.00000  Uiso   1.00
N393   N     0.07010   0.88903   0.13416   0.00000  Uiso   1.00
N394   N     0.07034   0.77719   0.36554   0.00000  Uiso   1.00
N395   N     0.26329   0.88928   0.36518   0.00000  Uiso   1.00
N396   N     0.26364   0.77829   0.13517   0.00000  Uiso   1.00
O397   O     0.10559   0.87154   0.25000   0.00000  Uiso   1.00
O398   O     0.22774   0.79513   0.25001   0.00000  Uiso   1.00
O399   O     0.22774   0.87154   0.25001   0.00000  Uiso   1.00
O400   O     0.10559   0.79513   0.25000   0.00000  Uiso   1.00
O401   O     0.16666   0.87155   0.18453   0.00000  Uiso   1.00
O402   O     0.16667   0.79511   0.31547   0.00000  Uiso   1.00
O403   O     0.16667   0.87155   0.31547   0.00000  Uiso   1.00
O404   O     0.16666   0.79511   0.18453   0.00000  Uiso   1.00
Zn405  Zn    0.16667   0.88437   0.25000   0.00000  Uiso   1.00
Zn406  Zn    0.16667   0.78229   0.25000   0.00000  Uiso   1.00
C407   C     0.41996   0.83333   0.24996   0.00000  Uiso   1.00
C408   C     0.64535   0.87388   0.24211   0.00000  Uiso   1.00
C409   C     0.64537   0.79280   0.25792   0.00000  Uiso   1.00
C410   C     0.35463   0.87387   0.24206   0.00000  Uiso   1.00
C411   C     0.46701   0.85310   0.04668   0.00000  Uiso   1.00
C412   C     0.46711   0.81362   0.45321   0.00000  Uiso   1.00
C413   C     0.53362   0.85311   0.45313   0.00000  Uiso   1.00
C414   C     0.53373   0.81408   0.04700   0.00000  Uiso   1.00
C415   C     0.46672   0.85336   0.09294   0.00000  Uiso   1.00
C416   C     0.46685   0.81323   0.40696   0.00000  Uiso   1.00
C417   C     0.53366   0.85338   0.40686   0.00000  Uiso   1.00
C418   C     0.58004   0.83334   0.25003   0.00000  Uiso   1.00
C419   C     0.53376   0.81369   0.09327   0.00000  Uiso   1.00
C420   C     0.50014   0.83342   0.11619   0.00000  Uiso   1.00
C421   C     0.50019   0.83330   0.38382   0.00000  Uiso   1.00
C422   C     0.50041   0.83358   0.02403   0.00000  Uiso   1.00
C423   C     0.50040   0.83343   0.47598   0.00000  Uiso   1.00
C424   C     0.62419   0.83334   0.25004   0.00000  Uiso   1.00
C425   C     0.37581   0.83332   0.24995   0.00000  Uiso   1.00
C426   C     0.43155   0.87319   0.11582   0.00000  Uiso   1.00
C427   C     0.43175   0.79320   0.38397   0.00000  Uiso   1.00
C428   C     0.56865   0.87335   0.38374   0.00000  Uiso   1.00
C429   C     0.50000   0.83335   0.16410   0.00000  Uiso   1.00
C430   C     0.56888   0.79399   0.11652   0.00000  Uiso   1.00
C431   C     0.50004   0.83332   0.33591   0.00000  Uiso   1.00
C432   C     0.52705   0.69064   0.27649   0.00000  Uiso   1.00
C433   C     0.47295   0.97602   0.22351   0.00000  Uiso   1.00
C434   C     0.47295   0.69065   0.22351   0.00000  Uiso   1.00
C435   C     0.52705   0.97601   0.27649   0.00000  Uiso   1.00
C436   C     0.35464   0.79279   0.25786   0.00000  Uiso   1.00
H437   H     0.54868   0.70881   0.29766   0.00000  Uiso   1.00
H438   H     0.62913   0.90540   0.23571   0.00000  Uiso   1.00
H439   H     0.62916   0.76129   0.26437   0.00000  Uiso   1.00
H440   H     0.37084   0.90538   0.23560   0.00000  Uiso   1.00
H441   H     0.45133   0.95785   0.20232   0.00000  Uiso   1.00
H442   H     0.45133   0.70884   0.20234   0.00000  Uiso   1.00
H443   H     0.54866   0.95782   0.29768   0.00000  Uiso   1.00
H444   H     0.44146   0.86822   0.02819   0.00000  Uiso   1.00
H445   H     0.44164   0.79837   0.47161   0.00000  Uiso   1.00
H446   H     0.55917   0.86842   0.47146   0.00000  Uiso   1.00
H447   H     0.55938   0.79901   0.02876   0.00000  Uiso   1.00
H448   H     0.37087   0.76127   0.26427   0.00000  Uiso   1.00
N449   N     0.50000   0.95240   0.25000   0.00000  Uiso   1.00
N450   N     0.50000   0.71427   0.25000   0.00000  Uiso   1.00
N451   N     0.40343   0.88903   0.13416   0.00000  Uiso   1.00
N452   N     0.40367   0.77719   0.36554   0.00000  Uiso   1.00
N453   N     0.59662   0.88928   0.36518   0.00000  Uiso   1.00
N454   N     0.59697   0.77829   0.13517   0.00000  Uiso   1.00
O455   O     0.43892   0.87154   0.25000   0.00000  Uiso   1.00
O456   O     0.56108   0.79513   0.25001   0.00000  Uiso   1.00
O457   O     0.56108   0.87154   0.25001   0.00000  Uiso   1.00
O458   O     0.43892   0.79513   0.25000   0.00000  Uiso   1.00
O459   O     0.50000   0.87155   0.18453   0.00000  Uiso   1.00
O460   O     0.50000   0.79511   0.31547   0.00000  Uiso   1.00
O461   O     0.50000   0.87155   0.31547   0.00000  Uiso   1.00
O462   O     0.50000   0.79511   0.18453   0.00000  Uiso   1.00
Zn463  Zn    0.50000   0.88437   0.25000   0.00000  Uiso   1.00
Zn464  Zn    0.50000   0.78229   0.25000   0.00000  Uiso   1.00
C465   C     0.75329   0.83333   0.24996   0.00000  Uiso   1.00
C466   C     0.97868   0.87388   0.24211   0.00000  Uiso   1.00
C467   C     0.97870   0.79280   0.25792   0.00000  Uiso   1.00
C468   C     0.68796   0.87387   0.24206   0.00000  Uiso   1.00
C469   C     0.80034   0.85310   0.04668   0.00000  Uiso   1.00
C470   C     0.80045   0.81362   0.45321   0.00000  Uiso   1.00
C471   C     0.86695   0.85311   0.45313   0.00000  Uiso   1.00
C472   C     0.86707   0.81408   0.04700   0.00000  Uiso   1.00
C473   C     0.80005   0.85336   0.09294   0.00000  Uiso   1.00
C474   C     0.80018   0.81323   0.40696   0.00000  Uiso   1.00
C475   C     0.86700   0.85338   0.40686   0.00000  Uiso   1.00
C476   C     0.91337   0.83334   0.25003   0.00000  Uiso   1.00
C477   C     0.86709   0.81369   0.09327   0.00000  Uiso   1.00
C478   C     0.83347   0.83342   0.11619   0.00000  Uiso   1.00
C479   C     0.83352   0.83330   0.38382   0.00000  Uiso   1.00
C480   C     0.83374   0.83358   0.02403   0.00000  Uiso   1.00
C481   C     0.83373   0.83343   0.47598   0.00000  Uiso   1.00
C482   C     0.95752   0.83334   0.25004   0.00000  Uiso   1.00
C483   C     0.70914   0.83332   0.24995   0.00000  Uiso   1.00
C484   C     0.76489   0.87319   0.11582   0.00000  Uiso   1.00
C485   C     0.76508   0.79320   0.38397   0.00000  Uiso   1.00
C486   C     0.90198   0.87335   0.38374   0.00000  Uiso   1.00
C487   C     0.83333   0.83335   0.16410   0.00000  Uiso   1.00
C488   C     0.90222   0.79399   0.11652   0.00000  Uiso   1.00
C489   C     0.83337   0.83332   0.33591   0.00000  Uiso   1.00
C490   C     0.86038   0.69064   0.27649   0.00000  Uiso   1.00
C491   C     0.80629   0.97602   0.22351   0.00000  Uiso   1.00
C492   C     0.80628   0.69065   0.22351   0.00000  Uiso   1.00
C493   C     0.86038   0.97601   0.27649   0.00000  Uiso   1.00
C494   C     0.68798   0.79279   0.25786   0.00000  Uiso   1.00
H495   H     0.88201   0.70881   0.29766   0.00000  Uiso   1.00
H496   H     0.96246   0.90540   0.23571   0.00000  Uiso   1.00
H497   H     0.96249   0.76129   0.26437   0.00000  Uiso   1.00
H498   H     0.70417   0.90538   0.23560   0.00000  Uiso   1.00
H499   H     0.78467   0.95785   0.20232   0.00000  Uiso   1.00
H500   H     0.78466   0.70884   0.20234   0.00000  Uiso   1.00
H501   H     0.88200   0.95782   0.29768   0.00000  Uiso   1.00
H502   H     0.77479   0.86822   0.02819   0.00000  Uiso   1.00
H503   H     0.77497   0.79837   0.47161   0.00000  Uiso   1.00
H504   H     0.89250   0.86842   0.47146   0.00000  Uiso   1.00
H505   H     0.89271   0.79901   0.02876   0.00000  Uiso   1.00
H506   H     0.70420   0.76127   0.26427   0.00000  Uiso   1.00
N507   N     0.83333   0.95240   0.25000   0.00000  Uiso   1.00
N508   N     0.83333   0.71427   0.25000   0.00000  Uiso   1.00
N509   N     0.73676   0.88903   0.13416   0.00000  Uiso   1.00
N510   N     0.73700   0.77719   0.36554   0.00000  Uiso   1.00
N511   N     0.92995   0.88928   0.36518   0.00000  Uiso   1.00
N512   N     0.93031   0.77829   0.13517   0.00000  Uiso   1.00
O513   O     0.77226   0.87154   0.25000   0.00000  Uiso   1.00
O514   O     0.89441   0.79513   0.25001   0.00000  Uiso   1.00
O515   O     0.89441   0.87154   0.25001   0.00000  Uiso   1.00
O516   O     0.77226   0.79513   0.25000   0.00000  Uiso   1.00
O517   O     0.83333   0.87155   0.18453   0.00000  Uiso   1.00
O518   O     0.83334   0.79511   0.31547   0.00000  Uiso   1.00
O519   O     0.83334   0.87155   0.31547   0.00000  Uiso   1.00
O520   O     0.83333   0.79511   0.18453   0.00000  Uiso   1.00
Zn521  Zn    0.83333   0.88437   0.25000   0.00000  Uiso   1.00
Zn522  Zn    0.83333   0.78229   0.25000   0.00000  Uiso   1.00
C523   C     0.08662   0.16666   0.74996   0.00000  Uiso   1.00
C524   C     0.31202   0.20721   0.74211   0.00000  Uiso   1.00
C525   C     0.31204   0.12613   0.75792   0.00000  Uiso   1.00
C526   C     0.02129   0.20720   0.74206   0.00000  Uiso   1.00
C527   C     0.13367   0.18644   0.54668   0.00000  Uiso   1.00
C528   C     0.13378   0.14695   0.95321   0.00000  Uiso   1.00
C529   C     0.20029   0.18645   0.95313   0.00000  Uiso   1.00
C530   C     0.20040   0.14741   0.54700   0.00000  Uiso   1.00
C531   C     0.13339   0.18669   0.59294   0.00000  Uiso   1.00
C532   C     0.13352   0.14657   0.90696   0.00000  Uiso   1.00
C533   C     0.20033   0.18671   0.90686   0.00000  Uiso   1.00
C534   C     0.24671   0.16667   0.75003   0.00000  Uiso   1.00
C535   C     0.20042   0.14702   0.59327   0.00000  Uiso   1.00
C536   C     0.16681   0.16676   0.61619   0.00000  Uiso   1.00
C537   C     0.16685   0.16664   0.88382   0.00000  Uiso   1.00
C538   C     0.16708   0.16691   0.52403   0.00000  Uiso   1.00
C539   C     0.16707   0.16676   0.97598   0.00000  Uiso   1.00
C540   C     0.29085   0.16667   0.75004   0.00000  Uiso   1.00
C541   C     0.04248   0.16666   0.74995   0.00000  Uiso   1.00
C542   C     0.09822   0.20652   0.61582   0.00000  Uiso   1.00
C543   C     0.09841   0.12653   0.88397   0.00000  Uiso   1.00
C544   C     0.23532   0.20668   0.88374   0.00000  Uiso   1.00
C545   C     0.16667   0.16668   0.66410   0.00000  Uiso   1.00
C546   C     0.23555   0.12733   0.61652   0.00000  Uiso   1.00
C547   C     0.16670   0.16666   0.83591   0.00000  Uiso   1.00
C548   C     0.19372   0.02397   0.77649   0.00000  Uiso   1.00
C549   C     0.13962   0.30935   0.72351   0.00000  Uiso   1.00
C550   C     0.13962   0.02399   0.72351   0.00000  Uiso   1.00
C551   C     0.19371   0.30934   0.77649   0.00000  Uiso   1.00
C552   C     0.02131   0.12612   0.75786   0.00000  Uiso   1.00
H553   H     0.21534   0.04214   0.79766   0.00000  Uiso   1.00
H554   H     0.29579   0.23873   0.73571   0.00000  Uiso   1.00
H555   H     0.29583   0.09462   0.76437   0.00000  Uiso   1.00
H556   H     0.03750   0.23871   0.73560   0.00000  Uiso   1.00
H557   H     0.11800   0.29118   0.70232   0.00000  Uiso   1.00
H558   H     0.11799   0.04217   0.70234   0.00000  Uiso   1.00
H559   H     0.21533   0.29116   0.79768   0.00000  Uiso   1.00
H560   H     0.10812   0.20156   0.52819   0.00000  Uiso   1.00
H561   H     0.10830   0.13171   0.97161   0.00000  Uiso   1.00
H562   H     0.22583   0.20175   0.97146   0.00000  Uiso   1.00
H563   H     0.22604   0.13234   0.52876   0.00000  Uiso   1.00
H564   H     0.03754   0.09460   0.76427   0.00000  Uiso   1.00
N565   N     0.16667   0.28573   0.75000   0.00000  Uiso   1.00
N566   N     0.16667   0.04760   0.75000   0.00000  Uiso   1.00
N567   N     0.07010   0.22236   0.63416   0.00000  Uiso   1.00
N568   N     0.07034   0.11053   0.86554   0.00000  Uiso   1.00
N569   N     0.26329   0.22262   0.86518   0.00000  Uiso   1.00
N570   N     0.26364   0.11162   0.63517   0.00000  Uiso   1.00
O571   O     0.10559   0.20487   0.75000   0.00000  Uiso   1.00
O572   O     0.22774   0.12846   0.75001   0.00000  Uiso   1.00
O573   O     0.22774   0.20487   0.75001   0.00000  Uiso   1.00
O574   O     0.10559   0.12846   0.75000   0.00000  Uiso   1.00
O575   O     0.16666   0.20489   0.68453   0.00000  Uiso   1.00
O576   O     0.16667   0.12845   0.81547   0.00000  Uiso   1.00
O577   O     0.16667   0.20489   0.81547   0.00000  Uiso   1.00
O578   O     0.16666   0.12845   0.68453   0.00000  Uiso   1.00
Zn579  Zn    0.16667   0.21771   0.75000   0.00000  Uiso   1.00
Zn580  Zn    0.16667   0.11563   0.75000   0.00000  Uiso   1.00
C581   C     0.41996   0.16666   0.74996   0.00000  Uiso   1.00
C582   C     0.64535   0.20721   0.74211   0.00000  Uiso   1.00
C583   C     0.64537   0.12613   0.75792   0.00000  Uiso   1.00
C584   C     0.35463   0.20720   0.74206   0.00000  Uiso   1.00
C585   C     0.46701   0.18644   0.54668   0.00000  Uiso   1.00
C586   C     0.46711   0.14695   0.95321   0.00000  Uiso   1.00
C587   C     0.53362   0.18645   0.95313   0.00000  Uiso   1.00
C588   C     0.53373   0.14741   0.54700   0.00000  Uiso   1.00
C589   C     0.46672   0.18669   0.59294   0.00000  Uiso   1.00
C590   C     0.46685   0.14657   0.90696   0.00000  Uiso   1.00
C591   C     0.53366   0.18671   0.90686   0.00000  Uiso   1.00
C592   C     0.58004   0.16667   0.75003   0.00000  Uiso   1.00
C593   C     0.53376   0.14702   0.59327   0.00000  Uiso   1.00
C594   C     0.50014   0.16676   0.61619   0.00000  Uiso   1.00
C595   C     0.50019   0.16664   0.88382   0.00000  Uiso   1.00
C596   C     0.50041   0.16691   0.52403   0.00000  Uiso   1.00
C597   C     0.50040   0.16676   0.97598   0.00000  Uiso   1.00
C598   C     0.62419   0.16667   0.75004   0.00000  Uiso   1.00
C599   C     0.37581   0.16666   0.74995   0.00000  Uiso   1.00
C600   C     0.43155   0.20652   0.61582   0.00000  Uiso   1.00
C601   C     0.43175   0.12653   0.88397   0.00000  Uiso   1.00
C602   C     0.56865   0.20668   0.88374   0.00000  Uiso   1.00
C603   C     0.50000   0.16668   0.66410   0.00000  Uiso   1.00
C604   C     0.56888   0.12733   0.61652   0.00000  Uiso   1.00
C605   C     0.50004   0.16666   0.83591   0.00000  Uiso   1.00
C606   C     0.52705   0.02397   0.77649   0.00000  Uiso   1.00
C607   C     0.47295   0.30935   0.72351   0.00000  Uiso   1.00
C608   C     0.47295   0.02399   0.72351   0.00000  Uiso   1.00
C609   C     0.52705   0.30934   0.77649   0.00000  Uiso   1.00
C610   C     0.35464   0.12612   0.75786   0.00000  Uiso   1.00
H611   H     0.54868   0.04214   0.79766   0.00000  Uiso   1.00
H612   H     0.62913   0.23873   0.73571   0.00000  Uiso   1.00
H613   H     0.62916   0.09462   0.76437   0.00000  Uiso   1.00
H614   H     0.37084   0.23871   0.73560   0.00000  Uiso   1.00
H615   H     0.45133   0.29118   0.70232   0.00000  Uiso   1.00
H616   H     0.45133   0.04217   0.70234   0.00000  Uiso   1.00
H617   H     0.54866   0.29116   0.79768   0.00000  Uiso   1.00
H618   H     0.44146   0.20156   0.52819   0.00000  Uiso   1.00
H619   H     0.44164   0.13171   0.97161   0.00000  Uiso   1.00
H620   H     0.55917   0.20175   0.97146   0.00000  Uiso   1.00
H621   H     0.55938   0.13234   0.52876   0.00000  Uiso   1.00
H622   H     0.37087   0.09460   0.76427   0.00000  Uiso   1.00
N623   N     0.50000   0.28573   0.75000   0.00000  Uiso   1.00
N624   N     0.50000   0.04760   0.75000   0.00000  Uiso   1.00
N625   N     0.40343   0.22236   0.63416   0.00000  Uiso   1.00
N626   N     0.40367   0.11053   0.86554   0.00000  Uiso   1.00
N627   N     0.59662   0.22262   0.86518   0.00000  Uiso   1.00
N628   N     0.59697   0.11162   0.63517   0.00000  Uiso   1.00
O629   O     0.43892   0.20487   0.75000   0.00000  Uiso   1.00
O630   O     0.56108   0.12846   0.75001   0.00000  Uiso   1.00
O631   O     0.56108   0.20487   0.75001   0.00000  Uiso   1.00
O632   O     0.43892   0.12846   0.75000   0.00000  Uiso   1.00
O633   O     0.50000   0.20489   0.68453   0.00000  Uiso   1.00
O634   O     0.50000   0.12845   0.81547   0.00000  Uiso   1.00
O635   O     0.50000   0.20489   0.81547   0.00000  Uiso   1.00
O636   O     0.50000   0.12845   0.68453   0.00000  Uiso   1.00
Zn637  Zn    0.50000   0.21771   0.75000   0.00000  Uiso   1.00
Zn638  Zn    0.50000   0.11563   0.75000   0.00000  Uiso   1.00
C639   C     0.75329   0.16666   0.74996   0.00000  Uiso   1.00
C640   C     0.97868   0.20721   0.74211   0.00000  Uiso   1.00
C641   C     0.97870   0.12613   0.75792   0.00000  Uiso   1.00
C642   C     0.68796   0.20720   0.74206   0.00000  Uiso   1.00
C643   C     0.80034   0.18644   0.54668   0.00000  Uiso   1.00
C644   C     0.80045   0.14695   0.95321   0.00000  Uiso   1.00
C645   C     0.86695   0.18645   0.95313   0.00000  Uiso   1.00
C646   C     0.86707   0.14741   0.54700   0.00000  Uiso   1.00
C647   C     0.80005   0.18669   0.59294   0.00000  Uiso   1.00
C648   C     0.80018   0.14657   0.90696   0.00000  Uiso   1.00
C649   C     0.86700   0.18671   0.90686   0.00000  Uiso   1.00
C650   C     0.91337   0.16667   0.75003   0.00000  Uiso   1.00
C651   C     0.86709   0.14702   0.59327   0.00000  Uiso   1.00
C652   C     0.83347   0.16676   0.61619   0.00000  Uiso   1.00
C653   C     0.83352   0.16664   0.88382   0.00000  Uiso   1.00
C654   C     0.83374   0.16691   0.52403   0.00000  Uiso   1.00
C655   C     0.83373   0.16676   0.97598   0.00000  Uiso   1.00
C656   C     0.95752   0.16667   0.75004   0.00000  Uiso   1.00
C657   C     0.70914   0.16666   0.74995   0.00000  Uiso   1.00
C658   C     0.76489   0.20652   0.61582   0.00000  Uiso   1.00
C659   C     0.76508   0.12653   0.88397   0.00000  Uiso   1.00
C660   C     0.90198   0.20668   0.88374   0.00000  Uiso   1.00
C661   C     0.83333   0.16668   0.66410   0.00000  Uiso   1.00
C662   C     0.90222   0.12733   0.61652   0.00000  Uiso   1.00
C663   C     0.83337   0.16666   0.83591   0.00000  Uiso   1.00
C664   C     0.86038   0.02397   0.77649   0.00000  Uiso   1.00
C665   C     0.80629   0.30935   0.72351   0.00000  Uiso   1.00
C666   C     0.80628   0.02399   0.72351   0.00000  Uiso   1.00
C667   C     0.86038   0.30934   0.77649   0.00000  Uiso   1.00
C668   C     0.68798   0.12612   0.75786   0.00000  Uiso   1.00
H669   H     0.88201   0.04214   0.79766   0.00000  Uiso   1.00
H670   H     0.96246   0.23873   0.73571   0.00000  Uiso   1.00
H671   H     0.96249   0.09462   0.76437   0.00000  Uiso   1.00
H672   H     0.70417   0.23871   0.73560   0.00000  Uiso   1.00
H673   H     0.78467   0.29118   0.70232   0.00000  Uiso   1.00
H674   H     0.78466   0.04217   0.70234   0.00000  Uiso   1.00
H675   H     0.88200   0.29116   0.79768   0.00000  Uiso   1.00
H676   H     0.77479   0.20156   0.52819   0.00000  Uiso   1.00
H677   H     0.77497   0.13171   0.97161   0.00000  Uiso   1.00
H678   H     0.89250   0.20175   0.97146   0.00000  Uiso   1.00
H679   H     0.89271   0.13234   0.52876   0.00000  Uiso   1.00
H680   H     0.70420   0.09460   0.76427   0.00000  Uiso   1.00
N681   N     0.83333   0.28573   0.75000   0.00000  Uiso   1.00
N682   N     0.83333   0.04760   0.75000   0.00000  Uiso   1.00
N683   N     0.73676   0.22236   0.63416   0.00000  Uiso   1.00
N684   N     0.73700   0.11053   0.86554   0.00000  Uiso   1.00
N685   N     0.92995   0.22262   0.86518   0.00000  Uiso   1.00
N686   N     0.93031   0.11162   0.63517   0.00000  Uiso   1.00
O687   O     0.77226   0.20487   0.75000   0.00000  Uiso   1.00
O688   O     0.89441   0.12846   0.75001   0.00000  Uiso   1.00
O689   O     0.89441   0.20487   0.75001   0.00000  Uiso   1.00
O690   O     0.77226   0.12846   0.75000   0.00000  Uiso   1.00
O691   O     0.83333   0.20489   0.68453   0.00000  Uiso   1.00
O692   O     0.83334   0.12845   0.81547   0.00000  Uiso   1.00
O693   O     0.83334   0.20489   0.81547   0.00000  Uiso   1.00
O694   O     0.83333   0.12845   0.68453   0.00000  Uiso   1.00
Zn695  Zn    0.83333   0.21771   0.75000   0.00000  Uiso   1.00
Zn696  Zn    0.83333   0.11563   0.75000   0.00000  Uiso   1.00
C697   C     0.08662   0.50000   0.74996   0.00000  Uiso   1.00
C698   C     0.31202   0.54054   0.74211   0.00000  Uiso   1.00
C699   C     0.31204   0.45946   0.75792   0.00000  Uiso   1.00
C700   C     0.02129   0.54053   0.74206   0.00000  Uiso   1.00
C701   C     0.13367   0.51977   0.54668   0.00000  Uiso   1.00
C702   C     0.13378   0.48029   0.95321   0.00000  Uiso   1.00
C703   C     0.20029   0.51978   0.95313   0.00000  Uiso   1.00
C704   C     0.20040   0.48075   0.54700   0.00000  Uiso   1.00
C705   C     0.13339   0.52003   0.59294   0.00000  Uiso   1.00
C706   C     0.13352   0.47990   0.90696   0.00000  Uiso   1.00
C707   C     0.20033   0.52005   0.90686   0.00000  Uiso   1.00
C708   C     0.24671   0.50000   0.75003   0.00000  Uiso   1.00
C709   C     0.20042   0.48035   0.59327   0.00000  Uiso   1.00
C710   C     0.16681   0.50009   0.61619   0.00000  Uiso   1.00
C711   C     0.16685   0.49997   0.88382   0.00000  Uiso   1.00
C712   C     0.16708   0.50025   0.52403   0.00000  Uiso   1.00
C713   C     0.16707   0.50009   0.97598   0.00000  Uiso   1.00
C714   C     0.29085   0.50001   0.75004   0.00000  Uiso   1.00
C715   C     0.04248   0.49999   0.74995   0.00000  Uiso   1.00
C716   C     0.09822   0.53986   0.61582   0.00000  Uiso   1.00
C717   C     0.09841   0.45986   0.88397   0.00000  Uiso   1.00
C718   C     0.23532   0.54002   0.88374   0.00000  Uiso   1.00
C719   C     0.16667   0.50002   0.66410   0.00000  Uiso   1.00
C720   C     0.23555   0.46066   0.61652   0.00000  Uiso   1.00
C721   C     0.16670   0.49999   0.83591   0.00000  Uiso   1.00
C722   C     0.19372   0.35731   0.77649   0.00000  Uiso   1.00
C723   C     0.13962   0.64269   0.72351   0.00000  Uiso   1.00
C724   C     0.13962   0.35732   0.72351   0.00000  Uiso   1.00
C725   C     0.19371   0.64267   0.77649   0.00000  Uiso   1.00
C726   C     0.02131   0.45945   0.75786   0.00000  Uiso   1.00
H727   H     0.21534   0.37548   0.79766   0.00000  Uiso   1.00
H728   H     0.29579   0.57206   0.73571   0.00000  Uiso   1.00
H729   H     0.29583   0.42795   0.76437   0.00000  Uiso   1.00
H730   H     0.03750   0.57204   0.73560   0.00000  Uiso   1.00
H731   H     0.11800   0.62451   0.70232   0.00000  Uiso   1.00
H732   H     0.11799   0.37550   0.70234   0.00000  Uiso   1.00
H733   H     0.21533   0.62449   0.79768   0.00000  Uiso   1.00
H734   H     0.10812   0.53489   0.52819   0.00000  Uiso   1.00
H735   H     0.10830   0.46504   0.97161   0.00000  Uiso   1.00
H736   H     0.22583   0.53509   0.97146   0.00000  Uiso   1.00
H737   H     0.22604   0.46568   0.52876   0.00000  Uiso   1.00
H738   H     0.03754   0.42794   0.76427   0.00000  Uiso   1.00
N739   N     0.16667   0.61907   0.75000   0.00000  Uiso   1.00
N740   N     0.16667   0.38093   0.75000   0.00000  Uiso   1.00
N741   N     0.07010   0.55570   0.63416   0.00000  Uiso   1.00
N742   N     0.07034   0.44386   0.86554   0.00000  Uiso   1.00
N743   N     0.26329   0.55595   0.86518   0.00000  Uiso   1.00
N744   N     0.26364   0.44495   0.63517   0.00000  Uiso   1.00
O745   O     0.10559   0.53821   0.75000   0.00000  Uiso   1.00
O746   O     0.22774   0.46179   0.75001   0.00000  Uiso   1.00
O747   O     0.22774   0.53821   0.75001   0.00000  Uiso   1.00
O748   O     0.10559   0.46179   0.75000   0.00000  Uiso   1.00
O749   O     0.16666   0.53822   0.68453   0.00000  Uiso   1.00
O750   O     0.16667   0.46178   0.81547   0.00000  Uiso   1.00
O751   O     0.16667   0.53822   0.81547   0.00000  Uiso   1.00
O752   O     0.16666   0.46178   0.68453   0.00000  Uiso   1.00
Zn753  Zn    0.16667   0.55104   0.75000   0.00000  Uiso   1.00
Zn754  Zn    0.16667   0.44896   0.75000   0.00000  Uiso   1.00
C755   C     0.41996   0.50000   0.74996   0.00000  Uiso   1.00
C756   C     0.64535   0.54054   0.74211   0.00000  Uiso   1.00
C757   C     0.64537   0.45946   0.75792   0.00000  Uiso   1.00
C758   C     0.35463   0.54053   0.74206   0.00000  Uiso   1.00
C759   C     0.46701   0.51977   0.54668   0.00000  Uiso   1.00
C760   C     0.46711   0.48029   0.95321   0.00000  Uiso   1.00
C761   C     0.53362   0.51978   0.95313   0.00000  Uiso   1.00
C762   C     0.53373   0.48075   0.54700   0.00000  Uiso   1.00
C763   C     0.46672   0.52003   0.59294   0.00000  Uiso   1.00
C764   C     0.46685   0.47990   0.90696   0.00000  Uiso   1.00
C765   C     0.53366   0.52005   0.90686   0.00000  Uiso   1.00
C766   C     0.58004   0.50000   0.75003   0.00000  Uiso   1.00
C767   C     0.53376   0.48035   0.59327   0.00000  Uiso   1.00
C768   C     0.50014   0.50009   0.61619   0.00000  Uiso   1.00
C769   C     0.50019   0.49997   0.88382   0.00000  Uiso   1.00
C770   C     0.50041   0.50025   0.52403   0.00000  Uiso   1.00
C771   C     0.50040   0.50009   0.97598   0.00000  Uiso   1.00
C772   C     0.62419   0.50001   0.75004   0.00000  Uiso   1.00
C773   C     0.37581   0.49999   0.74995   0.00000  Uiso   1.00
C774   C     0.43155   0.53986   0.61582   0.00000  Uiso   1.00
C775   C     0.43175   0.45986   0.88397   0.00000  Uiso   1.00
C776   C     0.56865   0.54002   0.88374   0.00000  Uiso   1.00
C777   C     0.50000   0.50002   0.66410   0.00000  Uiso   1.00
C778   C     0.56888   0.46066   0.61652   0.00000  Uiso   1.00
C779   C     0.50004   0.49999   0.83591   0.00000  Uiso   1.00
C780   C     0.52705   0.35731   0.77649   0.00000  Uiso   1.00
C781   C     0.47295   0.64269   0.72351   0.00000  Uiso   1.00
C782   C     0.47295   0.35732   0.72351   0.00000  Uiso   1.00
C783   C     0.52705   0.64267   0.77649   0.00000  Uiso   1.00
C784   C     0.35464   0.45945   0.75786   0.00000  Uiso   1.00
H785   H     0.54868   0.37548   0.79766   0.00000  Uiso   1.00
H786   H     0.62913   0.57206   0.73571   0.00000  Uiso   1.00
H787   H     0.62916   0.42795   0.76437   0.00000  Uiso   1.00
H788   H     0.37084   0.57204   0.73560   0.00000  Uiso   1.00
H789   H     0.45133   0.62451   0.70232   0.00000  Uiso   1.00
H790   H     0.45133   0.37550   0.70234   0.00000  Uiso   1.00
H791   H     0.54866   0.62449   0.79768   0.00000  Uiso   1.00
H792   H     0.44146   0.53489   0.52819   0.00000  Uiso   1.00
H793   H     0.44164   0.46504   0.97161   0.00000  Uiso   1.00
H794   H     0.55917   0.53509   0.97146   0.00000  Uiso   1.00
H795   H     0.55938   0.46568   0.52876   0.00000  Uiso   1.00
H796   H     0.37087   0.42794   0.76427   0.00000  Uiso   1.00
N797   N     0.50000   0.61907   0.75000   0.00000  Uiso   1.00
N798   N     0.50000   0.38093   0.75000   0.00000  Uiso   1.00
N799   N     0.40343   0.55570   0.63416   0.00000  Uiso   1.00
N800   N     0.40367   0.44386   0.86554   0.00000  Uiso   1.00
N801   N     0.59662   0.55595   0.86518   0.00000  Uiso   1.00
N802   N     0.59697   0.44495   0.63517   0.00000  Uiso   1.00
O803   O     0.43892   0.53821   0.75000   0.00000  Uiso   1.00
O804   O     0.56108   0.46179   0.75001   0.00000  Uiso   1.00
O805   O     0.56108   0.53821   0.75001   0.00000  Uiso   1.00
O806   O     0.43892   0.46179   0.75000   0.00000  Uiso   1.00
O807   O     0.50000   0.53822   0.68453   0.00000  Uiso   1.00
O808   O     0.50000   0.46178   0.81547   0.00000  Uiso   1.00
O809   O     0.50000   0.53822   0.81547   0.00000  Uiso   1.00
O810   O     0.50000   0.46178   0.68453   0.00000  Uiso   1.00
Zn811  Zn    0.50000   0.55104   0.75000   0.00000  Uiso   1.00
Zn812  Zn    0.50000   0.44896   0.75000   0.00000  Uiso   1.00
C813   C     0.75329   0.50000   0.74996   0.00000  Uiso   1.00
C814   C     0.97868   0.54054   0.74211   0.00000  Uiso   1.00
C815   C     0.97870   0.45946   0.75792   0.00000  Uiso   1.00
C816   C     0.68796   0.54053   0.74206   0.00000  Uiso   1.00
C817   C     0.80034   0.51977   0.54668   0.00000  Uiso   1.00
C818   C     0.80045   0.48029   0.95321   0.00000  Uiso   1.00
C819   C     0.86695   0.51978   0.95313   0.00000  Uiso   1.00
C820   C     0.86707   0.48075   0.54700   0.00000  Uiso   1.00
C821   C     0.80005   0.52003   0.59294   0.00000  Uiso   1.00
C822   C     0.80018   0.47990   0.90696   0.00000  Uiso   1.00
C823   C     0.86700   0.52005   0.90686   0.00000  Uiso   1.00
C824   C     0.91337   0.50000   0.75003   0.00000  Uiso   1.00
C825   C     0.86709   0.48035   0.59327   0.00000  Uiso   1.00
C826   C     0.83347   0.50009   0.61619   0.00000  Uiso   1.00
C827   C     0.83352   0.49997   0.88382   0.00000  Uiso   1.00
C828   C     0.83374   0.50025   0.52403   0.00000  Uiso   1.00
C829   C     0.83373   0.50009   0.97598   0.00000  Uiso   1.00
C830   C     0.95752   0.50001   0.75004   0.00000  Uiso   1.00
C831   C     0.70914   0.49999   0.74995   0.00000  Uiso   1.00
C832   C     0.76489   0.53986   0.61582   0.00000  Uiso   1.00
C833   C     0.76508   0.45986   0.88397   0.00000  Uiso   1.00
C834   C     0.90198   0.54002   0.88374   0.00000  Uiso   1.00
C835   C     0.83333   0.50002   0.66410   0.00000  Uiso   1.00
C836   C     0.90222   0.46066   0.61652   0.00000  Uiso   1.00
C837   C     0.83337   0.49999   0.83591   0.00000  Uiso   1.00
C838   C     0.86038   0.35731   0.77649   0.00000  Uiso   1.00
C839   C     0.80629   0.64269   0.72351   0.00000  Uiso   1.00
C840   C     0.80628   0.35732   0.72351   0.00000  Uiso   1.00
C841   C     0.86038   0.64267   0.77649   0.00000  Uiso   1.00
C842   C     0.68798   0.45945   0.75786   0.00000  Uiso   1.00
H843   H     0.88201   0.37548   0.79766   0.00000  Uiso   1.00
H844   H     0.96246   0.57206   0.73571   0.00000  Uiso   1.00
H845   H     0.96249   0.42795   0.76437   0.00000  Uiso   1.00
H846   H     0.70417   0.57204   0.73560   0.00000  Uiso   1.00
H847   H     0.78467   0.62451   0.70232   0.00000  Uiso   1.00
H848   H     0.78466   0.37550   0.70234   0.00000  Uiso   1.00
H849   H     0.88200   0.62449   0.79768   0.00000  Uiso   1.00
H850   H     0.77479   0.53489   0.52819   0.00000  Uiso   1.00
H851   H     0.77497   0.46504   0.97161   0.00000  Uiso   1.00
H852   H     0.89250   0.53509   0.97146   0.00000  Uiso   1.00
H853   H     0.89271   0.46568   0.52876   0.00000  Uiso   1.00
H854   H     0.70420   0.42794   0.76427   0.00000  Uiso   1.00
N855   N     0.83333   0.61907   0.75000   0.00000  Uiso   1.00
N856   N     0.83333   0.38093   0.75000   0.00000  Uiso   1.00
N857   N     0.73676   0.55570   0.63416   0.00000  Uiso   1.00
N858   N     0.73700   0.44386   0.86554   0.00000  Uiso   1.00
N859   N     0.92995   0.55595   0.86518   0.00000  Uiso   1.00
N860   N     0.93031   0.44495   0.63517   0.00000  Uiso   1.00
O861   O     0.77226   0.53821   0.75000   0.00000  Uiso   1.00
O862   O     0.89441   0.46179   0.75001   0.00000  Uiso   1.00
O863   O     0.89441   0.53821   0.75001   0.00000  Uiso   1.00
O864   O     0.77226   0.46179   0.75000   0.00000  Uiso   1.00
O865   O     0.83333   0.53822   0.68453   0.00000  Uiso   1.00
O866   O     0.83334   0.46178   0.81547   0.00000  Uiso   1.00
O867   O     0.83334   0.53822   0.81547   0.00000  Uiso   1.00
O868   O     0.83333   0.46178   0.68453   0.00000  Uiso   1.00
Zn869  Zn    0.83333   0.55104   0.75000   0.00000  Uiso   1.00
Zn870  Zn    0.83333   0.44896   0.75000   0.00000  Uiso   1.00
C871   C     0.08662   0.83333   0.74996   0.00000  Uiso   1.00
C872   C     0.31202   0.87388   0.74211   0.00000  Uiso   1.00
C873   C     0.31204   0.79280   0.75792   0.00000  Uiso   1.00
C874   C     0.02129   0.87387   0.74206   0.00000  Uiso   1.00
C875   C     0.13367   0.85310   0.54668   0.00000  Uiso   1.00
C876   C     0.13378   0.81362   0.95321   0.00000  Uiso   1.00
C877   C     0.20029   0.85311   0.95313   0.00000  Uiso   1.00
C878   C     0.20040   0.81408   0.54700   0.00000  Uiso   1.00
C879   C     0.13339   0.85336   0.59294   0.00000  Uiso   1.00
C880   C     0.13352   0.81323   0.90696   0.00000  Uiso   1.00
C881   C     0.20033   0.85338   0.90686   0.00000  Uiso   1.00
C882   C     0.24671   0.83334   0.75003   0.00000  Uiso   1.00
C883   C     0.20042   0.81369   0.59327   0.00000  Uiso   1.00
C884   C     0.16681   0.83342   0.61619   0.00000  Uiso   1.00
C885   C     0.16685   0.83330   0.88382   0.00000  Uiso   1.00
C886   C     0.16708   0.83358   0.52403   0.00000  Uiso   1.00
C887   C     0.16707   0.83343   0.97598   0.00000  Uiso   1.00
C888   C     0.29085   0.83334   0.75004   0.00000  Uiso   1.00
C889   C     0.04248   0.83332   0.74995   0.00000  Uiso   1.00
C890   C     0.09822   0.87319   0.61582   0.00000  Uiso   1.00
C891   C     0.09841   0.79320   0.88397   0.00000  Uiso   1.00
C892   C     0.23532   0.87335   0.88374   0.00000  Uiso   1.00
C893   C     0.16667   0.83335   0.66410   0.00000  Uiso   1.00
C894   C     0.23555   0.79399   0.61652   0.00000  Uiso   1.00
C895   C     0.16670   0.83332   0.83591   0.00000  Uiso   1.00
C896   C     0.19372   0.69064   0.77649   0.00000  Uiso   1.00
C897   C     0.13962   0.97602   0.72351   0.00000  Uiso   1.00
C898   C     0.13962   0.69065   0.72351   0.00000  Uiso   1.00
C899   C     0.19371   0.97601   0.77649   0.00000  Uiso   1.00
C900   C     0.02131   0.79279   0.75786   0.00000  Uiso   1.00
H901   H     0.21534   0.70881   0.79766   0.00000  Uiso   1.00
H902   H     0.29579   0.90540   0.73571   0.00000  Uiso   1.00
H903   H     0.29583   0.76129   0.76437   0.00000  Uiso   1.00
H904   H     0.03750   0.90538   0.73560   0.00000  Uiso   1.00
H905   H     0.11800   0.95785   0.70232   0.00000  Uiso   1.00
H906   H     0.11799   0.70884   0.70234   0.00000  Uiso   1.00
H907   H     0.21533   0.95782   0.79768   0.00000  Uiso   1.00
H908   H     0.10812   0.86822   0.52819   0.00000  Uiso   1.00
H909   H     0.10830   0.79837   0.97161   0.00000  Uiso   1.00
H910   H     0.22583   0.86842   0.97146   0.00000  Uiso   1.00
H911   H     0.22604   0.79901   0.52876   0.00000  Uiso   1.00
H912   H     0.03754   0.76127   0.76427   0.00000  Uiso   1.00
N913   N     0.16667   0.95240   0.75000   0.00000  Uiso   1.00
N914   N     0.16667   0.71427   0.75000   0.00000  Uiso   1.00
N915   N     0.07010   0.88903   0.63416   0.00000  Uiso   1.00
N916   N     0.07034   0.77719   0.86554   0.00000  Uiso   1.00
N917   N     0.26329   0.88928   0.86518   0.00000  Uiso   1.00
N918   N     0.26364   0.77829   0.63517   0.00000  Uiso   1.00
O919   O     0.10559   0.87154   0.75000   0.00000  Uiso   1.00
O920   O     0.22774   0.79513   0.75001   0.00000  Uiso   1.00
O921   O     0.22774   0.87154   0.75001   0.00000  Uiso   1.00
O922   O     0.10559   0.79513   0.75000   0.00000  Uiso   1.00
O923   O     0.16666   0.87155   0.68453   0.00000  Uiso   1.00
O924   O     0.16667   0.79511   0.81547   0.00000  Uiso   1.00
O925   O     0.16667   0.87155   0.81547   0.00000  Uiso   1.00
O926   O     0.16666   0.79511   0.68453   0.00000  Uiso   1.00
Zn927  Zn    0.16667   0.88437   0.75000   0.00000  Uiso   1.00
Zn928  Zn    0.16667   0.78229   0.75000   0.00000  Uiso   1.00
C929   C     0.41996   0.83333   0.74996   0.00000  Uiso   1.00
C930   C     0.64535   0.87388   0.74211   0.00000  Uiso   1.00
C931   C     0.64537   0.79280   0.75792   0.00000  Uiso   1.00
C932   C     0.35463   0.87387   0.74206   0.00000  Uiso   1.00
C933   C     0.46701   0.85310   0.54668   0.00000  Uiso   1.00
C934   C     0.46711   0.81362   0.95321   0.00000  Uiso   1.00
C935   C     0.53362   0.85311   0.95313   0.00000  Uiso   1.00
C936   C     0.53373   0.81408   0.54700   0.00000  Uiso   1.00
C937   C     0.46672   0.85336   0.59294   0.00000  Uiso   1.00
C938   C     0.46685   0.81323   0.90696   0.00000  Uiso   1.00
C939   C     0.53366   0.85338   0.90686   0.00000  Uiso   1.00
C940   C     0.58004   0.83334   0.75003   0.00000  Uiso   1.00
C941   C     0.53376   0.81369   0.59327   0.00000  Uiso   1.00
C942   C     0.50014   0.83342   0.61619   0.00000  Uiso   1.00
C943   C     0.50019   0.83330   0.88382   0.00000  Uiso   1.00
C944   C     0.50041   0.83358   0.52403   0.00000  Uiso   1.00
C945   C     0.50040   0.83343   0.97598   0.00000  Uiso   1.00
C946   C     0.62419   0.83334   0.75004   0.00000  Uiso   1.00
C947   C     0.37581   0.83332   0.74995   0.00000  Uiso   1.00
C948   C     0.43155   0.87319   0.61582   0.00000  Uiso   1.00
C949   C     0.43175   0.79320   0.88397   0.00000  Uiso   1.00
C950   C     0.56865   0.87335   0.88374   0.00000  Uiso   1.00
C951   C     0.50000   0.83335   0.66410   0.00000  Uiso   1.00
C952   C     0.56888   0.79399   0.61652   0.00000  Uiso   1.00
C953   C     0.50004   0.83332   0.83591   0.00000  Uiso   1.00
C954   C     0.52705   0.69064   0.77649   0.00000  Uiso   1.00
C955   C     0.47295   0.97602   0.72351   0.00000  Uiso   1.00
C956   C     0.47295   0.69065   0.72351   0.00000  Uiso   1.00
C957   C     0.52705   0.97601   0.77649   0.00000  Uiso   1.00
C958   C     0.35464   0.79279   0.75786   0.00000  Uiso   1.00
H959   H     0.54868   0.70881   0.79766   0.00000  Uiso   1.00
H960   H     0.62913   0.90540   0.73571   0.00000  Uiso   1.00
H961   H     0.62916   0.76129   0.76437   0.00000  Uiso   1.00
H962   H     0.37084   0.90538   0.73560   0.00000  Uiso   1.00
H963   H     0.45133   0.95785   0.70232   0.00000  Uiso   1.00
H964   H     0.45133   0.70884   0.70234   0.00000  Uiso   1.00
H965   H     0.54866   0.95782   0.79768   0.00000  Uiso   1.00
H966   H     0.44146   0.86822   0.52819   0.00000  Uiso   1.00
H967   H     0.44164   0.79837   0.97161   0.00000  Uiso   1.00
H968   H     0.55917   0.86842   0.97146   0.00000  Uiso   1.00
H969   H     0.55938   0.79901   0.52876   0.00000  Uiso   1.00
H970   H     0.37087   0.76127   0.76427   0.00000  Uiso   1.00
N971   N     0.50000   0.95240   0.75000   0.00000  Uiso   1.00
N972   N     0.50000   0.71427   0.75000   0.00000  Uiso   1.00
N973   N     0.40343   0.88903   0.63416   0.00000  Uiso   1.00
N974   N     0.40367   0.77719   0.86554   0.00000  Uiso   1.00
N975   N     0.59662   0.88928   0.86518   0.00000  Uiso   1.00
N976   N     0.59697   0.77829   0.63517   0.00000  Uiso   1.00
O977   O     0.43892   0.87154   0.75000   0.00000  Uiso   1.00
O978   O     0.56108   0.79513   0.75001   0.00000  Uiso   1.00
O979   O     0.56108   0.87154   0.75001   0.00000  Uiso   1.00
O980   O     0.43892   0.79513   0.75000   0.00000  Uiso   1.00
O981   O     0.50000   0.87155   0.68453   0.00000  Uiso   1.00
O982   O     0.50000   0.79511   0.81547   0.00000  Uiso   1.00
O983   O     0.50000   0.87155   0.81547   0.00000  Uiso   1.00
O984   O     0.50000   0.79511   0.68453   0.00000  Uiso   1.00
Zn985  Zn    0.50000   0.88437   0.75000   0.00000  Uiso   1.00
Zn986  Zn    0.50000   0.78229   0.75000   0.00000  Uiso   1.00
C987   C     0.75329   0.83333   0.74996   0.00000  Uiso   1.00
C988   C     0.97868   0.87388   0.74211   0.00000  Uiso   1.00
C989   C     0.97870   0.79280   0.75792   0.00000  Uiso   1.00
C990   C     0.68796   0.87387   0.74206   0.00000  Uiso   1.00
C991   C     0.80034   0.85310   0.54668   0.00000  Uiso   1.00
C992   C     0.80045   0.81362   0.95321   0.00000  Uiso   1.00
C993   C     0.86695   0.85311   0.95313   0.00000  Uiso   1.00
C994   C     0.86707   0.81408   0.54700   0.00000  Uiso   1.00
C995   C     0.80005   0.85336   0.59294   0.00000  Uiso   1.00
C996   C     0.80018   0.81323   0.90696   0.00000  Uiso   1.00
C997   C     0.86700   0.85338   0.90686   0.00000  Uiso   1.00
C998   C     0.91337   0.83334   0.75003   0.00000  Uiso   1.00
C999   C     0.86709   0.81369   0.59327   0.00000  Uiso   1.00
C1000  C     0.83347   0.83342   0.61619   0.00000  Uiso   1.00
C1001  C     0.83352   0.83330   0.88382   0.00000  Uiso   1.00
C1002  C     0.83374   0.83358   0.52403   0.00000  Uiso   1.00
C1003  C     0.83373   0.83343   0.97598   0.00000  Uiso   1.00
C1004  C     0.95752   0.83334   0.75004   0.00000  Uiso   1.00
C1005  C     0.70914   0.83332   0.74995   0.00000  Uiso   1.00
C1006  C     0.76489   0.87319   0.61582   0.00000  Uiso   1.00
C1007  C     0.76508   0.79320   0.88397   0.00000  Uiso   1.00
C1008  C     0.90198   0.87335   0.88374   0.00000  Uiso   1.00
C1009  C     0.83333   0.83335   0.66410   0.00000  Uiso   1.00
C1010  C     0.90222   0.79399   0.61652   0.00000  Uiso   1.00
C1011  C     0.83337   0.83332   0.83591   0.00000  Uiso   1.00
C1012  C     0.86038   0.69064   0.77649   0.00000  Uiso   1.00
C1013  C     0.80629   0.97602   0.72351   0.00000  Uiso   1.00
C1014  C     0.80628   0.69065   0.72351   0.00000  Uiso   1.00
C1015  C     0.86038   0.97601   0.77649   0.00000  Uiso   1.00
C1016  C     0.68798   0.79279   0.75786   0.00000  Uiso   1.00
H1017  H     0.88201   0.70881   0.79766   0.00000  Uiso   1.00
H1018  H     0.96246   0.90540   0.73571   0.00000  Uiso   1.00
H1019  H     0.96249   0.76129   0.76437   0.00000  Uiso   1.00
H1020  H     0.70417   0.90538   0.73560   0.00000  Uiso   1.00
H1021  H     0.78467   0.95785   0.70232   0.00000  Uiso   1.00
H1022  H     0.78466   0.70884   0.70234   0.00000  Uiso   1.00
H1023  H     0.88200   0.95782   0.79768   0.00000  Uiso   1.00
H1024  H     0.77479   0.86822   0.52819   0.00000  Uiso   1.00
H1025  H     0.77497   0.79837   0.97161   0.00000  Uiso   1.00
H1026  H     0.89250   0.86842   0.97146   0.00000  Uiso   1.00
H1027  H     0.89271   0.79901   0.52876   0.00000  Uiso   1.00
H1028  H     0.70420   0.76127   0.76427   0.00000  Uiso   1.00
N1029  N     0.83333   0.95240   0.75000   0.00000  Uiso   1.00
N1030  N     0.83333   0.71427   0.75000   0.00000  Uiso   1.00
N1031  N     0.73676   0.88903   0.63416   0.00000  Uiso   1.00
N1032  N     0.73700   0.77719   0.86554   0.00000  Uiso   1.00
N1033  N     0.92995   0.88928   0.86518   0.00000  Uiso   1.00
N1034  N     0.93031   0.77829   0.63517   0.00000  Uiso   1.00
O1035  O     0.77226   0.87154   0.75000   0.00000  Uiso   1.00
O1036  O     0.89441   0.79513   0.75001   0.00000  Uiso   1.00
O1037  O     0.89441   0.87154   0.75001   0.00000  Uiso   1.00
O1038  O     0.77226   0.79513   0.75000   0.00000  Uiso   1.00
O1039  O     0.83333   0.87155   0.68453   0.00000  Uiso   1.00
O1040  O     0.83334   0.79511   0.81547   0.00000  Uiso   1.00
O1041  O     0.83334   0.87155   0.81547   0.00000  Uiso   1.00
O1042  O     0.83333   0.79511   0.68453   0.00000  Uiso   1.00
Zn1043 Zn    0.83333   0.88437   0.75000   0.00000  Uiso   1.00
Zn1044 Zn    0.83333   0.78229   0.75000   0.00000  Uiso   1.00
loop_
_geom_bond_atom_site_label_1
_geom_bond_atom_site_label_2
_geom_bond_distance
_geom_bond_site_symmetry_2
_ccdc_geom_bond_type
C1     O52     1.282   .     A
C1     C19     1.419   .     S
C1     O49     1.282   .     A
C2     C18     1.397   .     A
C2     H32     1.084   .     S
C2     C62     1.370   .     S
C3     C18     1.397   .     A
C3     H33     1.084   .     S
C3     C88     1.370   .     S
C4     H34     1.084   .     S
C4     C19     1.397   .     A
C4     C118    1.370   1_455 S
C5     C9      1.384   .     A
C5     H38     1.085   .     S
C5     C16     1.396   .     A
C6     C10     1.383   .     A
C6     C17     1.396   .     A
C6     H39     1.085   .     S
C7     H40     1.085   .     S
C7     C11     1.384   .     A
C7     C17     1.396   .     A
C8     C13     1.384   .     A
C8     C16     1.395   .     A
C8     H41     1.085   .     S
C9     C14     1.407   .     A
C9     C20     1.447   .     S
C10    C15     1.407   .     A
C10    C21     1.447   .     S
C11    C22     1.447   .     S
C11    C15     1.408   .     A
C12    O50     1.282   .     A
C12    C18     1.419   .     S
C12    O51     1.282   .     A
C13    C14     1.407   .     A
C13    C24     1.447   .     S
C14    C23     1.433   .     S
C15    C25     1.433   .     S
C16    C539    1.437   1_554 S
C17    C538    1.437   .     S
C19    C30     1.397   .     A
C20    N45     1.157   .     T
C21    N46     1.157   .     T
C22    N47     1.157   .     T
C23    O56     1.283   .     A
C23    O53     1.283   .     A
C24    N48     1.157   .     T
C25    O54     1.283   .     A
C25    O55     1.283   .     A
C26    N44     1.366   .     A
C26    H31     1.082   .     S
C26    C377    1.416   1_545 S
C27    N43     1.366   .     A
C27    H35     1.082   .     S
C27    C202    1.416   .     S
C28    H36     1.082   .     S
C28    N44     1.366   .     A
C28    C375    1.416   1_545 S
C29    N43     1.366   .     A
C29    H37     1.082   .     S
C29    C200    1.416   .     S
C30    H42     1.084   .     S
C30    C119    1.370   1_455 S
N43    Zn57    2.008   .     S
N44    Zn58    2.008   .     S
O49    Zn57    1.999   .     S
O50    Zn58    1.999   .     S
O51    Zn57    2.000   .     S
O52    Zn58    2.000   .     S
O53    Zn57    1.994   .     S
O54    Zn58    1.994   .     S
O55    Zn57    1.994   .     S
O56    Zn58    1.994   .     S
C59    O110    1.282   .     A
C59    C77     1.419   .     S
C59    O107    1.282   .     A
C60    C76     1.397   .     A
C60    H90     1.084   .     S
C60    C120    1.370   .     S
C61    C76     1.397   .     A
C61    H91     1.084   .     S
C61    C146    1.370   .     S
C62    H92     1.084   .     S
C62    C77     1.397   .     A
C63    C67     1.384   .     A
C63    H96     1.085   .     S
C63    C74     1.396   .     A
C64    C68     1.383   .     A
C64    C75     1.396   .     A
C64    H97     1.085   .     S
C65    H98     1.085   .     S
C65    C69     1.384   .     A
C65    C75     1.396   .     A
C66    C71     1.384   .     A
C66    C74     1.395   .     A
C66    H99     1.085   .     S
C67    C72     1.407   .     A
C67    C78     1.447   .     S
C68    C73     1.407   .     A
C68    C79     1.447   .     S
C69    C80     1.447   .     S
C69    C73     1.408   .     A
C70    O108    1.282   .     A
C70    C76     1.419   .     S
C70    O109    1.282   .     A
C71    C72     1.407   .     A
C71    C82     1.447   .     S
C72    C81     1.433   .     S
C73    C83     1.433   .     S
C74    C597    1.437   1_554 S
C75    C596    1.437   .     S
C77    C88     1.397   .     A
C78    N103    1.157   .     T
C79    N104    1.157   .     T
C80    N105    1.157   .     T
C81    O114    1.283   .     A
C81    O111    1.283   .     A
C82    N106    1.157   .     T
C83    O112    1.283   .     A
C83    O113    1.283   .     A
C84    N102    1.366   .     A
C84    H89     1.082   .     S
C84    C435    1.416   1_545 S
C85    N101    1.366   .     A
C85    H93     1.082   .     S
C85    C260    1.416   .     S
C86    H94     1.082   .     S
C86    N102    1.366   .     A
C86    C433    1.416   1_545 S
C87    N101    1.366   .     A
C87    H95     1.082   .     S
C87    C258    1.416   .     S
C88    H100    1.084   .     S
N101   Zn115   2.008   .     S
N102   Zn116   2.008   .     S
O107   Zn115   1.999   .     S
O108   Zn116   1.999   .     S
O109   Zn115   2.000   .     S
O110   Zn116   2.000   .     S
O111   Zn115   1.994   .     S
O112   Zn116   1.994   .     S
O113   Zn115   1.994   .     S
O114   Zn116   1.994   .     S
C117   O168    1.282   .     A
C117   C135    1.419   .     S
C117   O165    1.282   .     A
C118   C134    1.397   .     A
C118   H148    1.084   .     S
C118   C4      1.370   1_655 S
C119   C134    1.397   .     A
C119   H149    1.084   .     S
C119   C30     1.370   1_655 S
C120   H150    1.084   .     S
C120   C135    1.397   .     A
C121   C125    1.384   .     A
C121   H154    1.085   .     S
C121   C132    1.396   .     A
C122   C126    1.383   .     A
C122   C133    1.396   .     A
C122   H155    1.085   .     S
C123   H156    1.085   .     S
C123   C127    1.384   .     A
C123   C133    1.396   .     A
C124   C129    1.384   .     A
C124   C132    1.395   .     A
C124   H157    1.085   .     S
C125   C130    1.407   .     A
C125   C136    1.447   .     S
C126   C131    1.407   .     A
C126   C137    1.447   .     S
C127   C138    1.447   .     S
C127   C131    1.408   .     A
C128   O166    1.282   .     A
C128   C134    1.419   .     S
C128   O167    1.282   .     A
C129   C130    1.407   .     A
C129   C140    1.447   .     S
C130   C139    1.433   .     S
C131   C141    1.433   .     S
C132   C655    1.437   1_554 S
C133   C654    1.437   .     S
C135   C146    1.397   .     A
C136   N161    1.157   .     T
C137   N162    1.157   .     T
C138   N163    1.157   .     T
C139   O172    1.283   .     A
C139   O169    1.283   .     A
C140   N164    1.157   .     T
C141   O170    1.283   .     A
C141   O171    1.283   .     A
C142   N160    1.366   .     A
C142   H147    1.082   .     S
C142   C493    1.416   1_545 S
C143   N159    1.366   .     A
C143   H151    1.082   .     S
C143   C318    1.416   .     S
C144   H152    1.082   .     S
C144   N160    1.366   .     A
C144   C491    1.416   1_545 S
C145   N159    1.366   .     A
C145   H153    1.082   .     S
C145   C316    1.416   .     S
C146   H158    1.084   .     S
N159   Zn173   2.008   .     S
N160   Zn174   2.008   .     S
O165   Zn173   1.999   .     S
O166   Zn174   1.999   .     S
O167   Zn173   2.000   .     S
O168   Zn174   2.000   .     S
O169   Zn173   1.994   .     S
O170   Zn174   1.994   .     S
O171   Zn173   1.994   .     S
O172   Zn174   1.994   .     S
C175   O226    1.282   .     A
C175   C193    1.419   .     S
C175   O223    1.282   .     A
C176   C192    1.397   .     A
C176   H206    1.084   .     S
C176   C236    1.370   .     S
C177   C192    1.397   .     A
C177   H207    1.084   .     S
C177   C262    1.370   .     S
C178   H208    1.084   .     S
C178   C193    1.397   .     A
C178   C292    1.370   1_455 S
C179   C183    1.384   .     A
C179   H212    1.085   .     S
C179   C190    1.396   .     A
C180   C184    1.383   .     A
C180   C191    1.396   .     A
C180   H213    1.085   .     S
C181   H214    1.085   .     S
C181   C185    1.384   .     A
C181   C191    1.396   .     A
C182   C187    1.384   .     A
C182   C190    1.395   .     A
C182   H215    1.085   .     S
C183   C188    1.407   .     A
C183   C194    1.447   .     S
C184   C189    1.407   .     A
C184   C195    1.447   .     S
C185   C196    1.447   .     S
C185   C189    1.408   .     A
C186   O224    1.282   .     A
C186   C192    1.419   .     S
C186   O225    1.282   .     A
C187   C188    1.407   .     A
C187   C198    1.447   .     S
C188   C197    1.433   .     S
C189   C199    1.433   .     S
C190   C713    1.437   1_554 S
C191   C712    1.437   .     S
C193   C204    1.397   .     A
C194   N219    1.157   .     T
C195   N220    1.157   .     T
C196   N221    1.157   .     T
C197   O230    1.283   .     A
C197   O227    1.283   .     A
C198   N222    1.157   .     T
C199   O228    1.283   .     A
C199   O229    1.283   .     A
C200   N218    1.366   .     A
C200   H205    1.082   .     S
C201   N217    1.366   .     A
C201   H209    1.082   .     S
C201   C376    1.416   .     S
C202   H210    1.082   .     S
C202   N218    1.366   .     A
C203   N217    1.366   .     A
C203   H211    1.082   .     S
C203   C374    1.416   .     S
C204   H216    1.084   .     S
C204   C293    1.370   1_455 S
N217   Zn231   2.008   .     S
N218   Zn232   2.008   .     S
O223   Zn231   1.999   .     S
O224   Zn232   1.999   .     S
O225   Zn231   2.000   .     S
O226   Zn232   2.000   .     S
O227   Zn231   1.994   .     S
O228   Zn232   1.994   .     S
O229   Zn231   1.994   .     S
O230   Zn232   1.994   .     S
C233   O284    1.282   .     A
C233   C251    1.419   .     S
C233   O281    1.282   .     A
C234   C250    1.397   .     A
C234   H264    1.084   .     S
C234   C294    1.370   .     S
C235   C250    1.397   .     A
C235   H265    1.084   .     S
C235   C320    1.370   .     S
C236   H266    1.084   .     S
C236   C251    1.397   .     A
C237   C241    1.384   .     A
C237   H270    1.085   .     S
C237   C248    1.396   .     A
C238   C242    1.383   .     A
C238   C249    1.396   .     A
C238   H271    1.085   .     S
C239   H272    1.085   .     S
C239   C243    1.384   .     A
C239   C249    1.396   .     A
C240   C245    1.384   .     A
C240   C248    1.395   .     A
C240   H273    1.085   .     S
C241   C246    1.407   .     A
C241   C252    1.447   .     S
C242   C247    1.407   .     A
C242   C253    1.447   .     S
C243   C254    1.447   .     S
C243   C247    1.408   .     A
C244   O282    1.282   .     A
C244   C250    1.419   .     S
C244   O283    1.282   .     A
C245   C246    1.407   .     A
C245   C256    1.447   .     S
C246   C255    1.433   .     S
C247   C257    1.433   .     S
C248   C771    1.437   1_554 S
C249   C770    1.437   .     S
C251   C262    1.397   .     A
C252   N277    1.157   .     T
C253   N278    1.157   .     T
C254   N279    1.157   .     T
C255   O288    1.283   .     A
C255   O285    1.283   .     A
C256   N280    1.157   .     T
C257   O286    1.283   .     A
C257   O287    1.283   .     A
C258   N276    1.366   .     A
C258   H263    1.082   .     S
C259   N275    1.366   .     A
C259   H267    1.082   .     S
C259   C434    1.416   .     S
C260   H268    1.082   .     S
C260   N276    1.366   .     A
C261   N275    1.366   .     A
C261   H269    1.082   .     S
C261   C432    1.416   .     S
C262   H274    1.084   .     S
N275   Zn289   2.008   .     S
N276   Zn290   2.008   .     S
O281   Zn289   1.999   .     S
O282   Zn290   1.999   .     S
O283   Zn289   2.000   .     S
O284   Zn290   2.000   .     S
O285   Zn289   1.994   .     S
O286   Zn290   1.994   .     S
O287   Zn289   1.994   .     S
O288   Zn290   1.994   .     S
C291   O342    1.282   .     A
C291   C309    1.419   .     S
C291   O339    1.282   .     A
C292   C308    1.397   .     A
C292   H322    1.084   .     S
C292   C178    1.370   1_655 S
C293   C308    1.397   .     A
C293   H323    1.084   .     S
C293   C204    1.370   1_655 S
C294   H324    1.084   .     S
C294   C309    1.397   .     A
C295   C299    1.384   .     A
C295   H328    1.085   .     S
C295   C306    1.396   .     A
C296   C300    1.383   .     A
C296   C307    1.396   .     A
C296   H329    1.085   .     S
C297   H330    1.085   .     S
C297   C301    1.384   .     A
C297   C307    1.396   .     A
C298   C303    1.384   .     A
C298   C306    1.395   .     A
C298   H331    1.085   .     S
C299   C304    1.407   .     A
C299   C310    1.447   .     S
C300   C305    1.407   .     A
C300   C311    1.447   .     S
C301   C312    1.447   .     S
C301   C305    1.408   .     A
C302   O340    1.282   .     A
C302   C308    1.419   .     S
C302   O341    1.282   .     A
C303   C304    1.407   .     A
C303   C314    1.447   .     S
C304   C313    1.433   .     S
C305   C315    1.433   .     S
C306   C829    1.437   1_554 S
C307   C828    1.437   .     S
C309   C320    1.397   .     A
C310   N335    1.157   .     T
C311   N336    1.157   .     T
C312   N337    1.157   .     T
C313   O346    1.283   .     A
C313   O343    1.283   .     A
C314   N338    1.157   .     T
C315   O344    1.283   .     A
C315   O345    1.283   .     A
C316   N334    1.366   .     A
C316   H321    1.082   .     S
C317   N333    1.366   .     A
C317   H325    1.082   .     S
C317   C492    1.416   .     S
C318   H326    1.082   .     S
C318   N334    1.366   .     A
C319   N333    1.366   .     A
C319   H327    1.082   .     S
C319   C490    1.416   .     S
C320   H332    1.084   .     S
N333   Zn347   2.008   .     S
N334   Zn348   2.008   .     S
O339   Zn347   1.999   .     S
O340   Zn348   1.999   .     S
O341   Zn347   2.000   .     S
O342   Zn348   2.000   .     S
O343   Zn347   1.994   .     S
O344   Zn348   1.994   .     S
O345   Zn347   1.994   .     S
O346   Zn348   1.994   .     S
C349   O400    1.282   .     A
C349   C367    1.419   .     S
C349   O397    1.282   .     A
C350   C366    1.397   .     A
C350   H380    1.084   .     S
C350   C410    1.370   .     S
C351   C366    1.397   .     A
C351   H381    1.084   .     S
C351   C436    1.370   .     S
C352   H382    1.084   .     S
C352   C367    1.397   .     A
C352   C466    1.370   1_455 S
C353   C357    1.384   .     A
C353   H386    1.085   .     S
C353   C364    1.396   .     A
C354   C358    1.383   .     A
C354   C365    1.396   .     A
C354   H387    1.085   .     S
C355   H388    1.085   .     S
C355   C359    1.384   .     A
C355   C365    1.396   .     A
C356   C361    1.384   .     A
C356   C364    1.395   .     A
C356   H389    1.085   .     S
C357   C362    1.407   .     A
C357   C368    1.447   .     S
C358   C363    1.407   .     A
C358   C369    1.447   .     S
C359   C370    1.447   .     S
C359   C363    1.408   .     A
C360   O398    1.282   .     A
C360   C366    1.419   .     S
C360   O399    1.282   .     A
C361   C362    1.407   .     A
C361   C372    1.447   .     S
C362   C371    1.433   .     S
C363   C373    1.433   .     S
C364   C887    1.437   1_554 S
C365   C886    1.437   .     S
C367   C378    1.397   .     A
C368   N393    1.157   .     T
C369   N394    1.157   .     T
C370   N395    1.157   .     T
C371   O404    1.283   .     A
C371   O401    1.283   .     A
C372   N396    1.157   .     T
C373   O402    1.283   .     A
C373   O403    1.283   .     A
C374   N392    1.366   .     A
C374   H379    1.082   .     S
C375   N391    1.366   .     A
C375   H383    1.082   .     S
C375   C28     1.416   1_565 S
C376   H384    1.082   .     S
C376   N392    1.366   .     A
C377   N391    1.366   .     A
C377   H385    1.082   .     S
C377   C26     1.416   1_565 S
C378   H390    1.084   .     S
C378   C467    1.370   1_455 S
N391   Zn405   2.008   .     S
N392   Zn406   2.008   .     S
O397   Zn405   1.999   .     S
O398   Zn406   1.999   .     S
O399   Zn405   2.000   .     S
O400   Zn406   2.000   .     S
O401   Zn405   1.994   .     S
O402   Zn406   1.994   .     S
O403   Zn405   1.994   .     S
O404   Zn406   1.994   .     S
C407   O458    1.282   .     A
C407   C425    1.419   .     S
C407   O455    1.282   .     A
C408   C424    1.397   .     A
C408   H438    1.084   .     S
C408   C468    1.370   .     S
C409   C424    1.397   .     A
C409   H439    1.084   .     S
C409   C494    1.370   .     S
C410   H440    1.084   .     S
C410   C425    1.397   .     A
C411   C415    1.384   .     A
C411   H444    1.085   .     S
C411   C422    1.396   .     A
C412   C416    1.383   .     A
C412   C423    1.396   .     A
C412   H445    1.085   .     S
C413   H446    1.085   .     S
C413   C417    1.384   .     A
C413   C423    1.396   .     A
C414   C419    1.384   .     A
C414   C422    1.395   .     A
C414   H447    1.085   .     S
C415   C420    1.407   .     A
C415   C426    1.447   .     S
C416   C421    1.407   .     A
C416   C427    1.447   .     S
C417   C428    1.447   .     S
C417   C421    1.408   .     A
C418   O456    1.282   .     A
C418   C424    1.419   .     S
C418   O457    1.282   .     A
C419   C420    1.407   .     A
C419   C430    1.447   .     S
C420   C429    1.433   .     S
C421   C431    1.433   .     S
C422   C945    1.437   1_554 S
C423   C944    1.437   .     S
C425   C436    1.397   .     A
C426   N451    1.157   .     T
C427   N452    1.157   .     T
C428   N453    1.157   .     T
C429   O462    1.283   .     A
C429   O459    1.283   .     A
C430   N454    1.157   .     T
C431   O460    1.283   .     A
C431   O461    1.283   .     A
C432   N450    1.366   .     A
C432   H437    1.082   .     S
C433   N449    1.366   .     A
C433   H441    1.082   .     S
C433   C86     1.416   1_565 S
C434   H442    1.082   .     S
C434   N450    1.366   .     A
C435   N449    1.366   .     A
C435   H443    1.082   .     S
C435   C84     1.416   1_565 S
C436   H448    1.084   .     S
N449   Zn463   2.008   .     S
N450   Zn464   2.008   .     S
O455   Zn463   1.999   .     S
O456   Zn464   1.999   .     S
O457   Zn463   2.000   .     S
O458   Zn464   2.000   .     S
O459   Zn463   1.994   .     S
O460   Zn464   1.994   .     S
O461   Zn463   1.994   .     S
O462   Zn464   1.994   .     S
C465   O516    1.282   .     A
C465   C483    1.419   .     S
C465   O513    1.282   .     A
C466   C482    1.397   .     A
C466   H496    1.084   .     S
C466   C352    1.370   1_655 S
C467   C482    1.397   .     A
C467   H497    1.084   .     S
C467   C378    1.370   1_655 S
C468   H498    1.084   .     S
C468   C483    1.397   .     A
C469   C473    1.384   .     A
C469   H502    1.085   .     S
C469   C480    1.396   .     A
C470   C474    1.383   .     A
C470   C481    1.396   .     A
C470   H503    1.085   .     S
C471   H504    1.085   .     S
C471   C475    1.384   .     A
C471   C481    1.396   .     A
C472   C477    1.384   .     A
C472   C480    1.395   .     A
C472   H505    1.085   .     S
C473   C478    1.407   .     A
C473   C484    1.447   .     S
C474   C479    1.407   .     A
C474   C485    1.447   .     S
C475   C486    1.447   .     S
C475   C479    1.408   .     A
C476   O514    1.282   .     A
C476   C482    1.419   .     S
C476   O515    1.282   .     A
C477   C478    1.407   .     A
C477   C488    1.447   .     S
C478   C487    1.433   .     S
C479   C489    1.433   .     S
C480   C1003   1.437   1_554 S
C481   C1002   1.437   .     S
C483   C494    1.397   .     A
C484   N509    1.157   .     T
C485   N510    1.157   .     T
C486   N511    1.157   .     T
C487   O520    1.283   .     A
C487   O517    1.283   .     A
C488   N512    1.157   .     T
C489   O518    1.283   .     A
C489   O519    1.283   .     A
C490   N508    1.366   .     A
C490   H495    1.082   .     S
C491   N507    1.366   .     A
C491   H499    1.082   .     S
C491   C144    1.416   1_565 S
C492   H500    1.082   .     S
C492   N508    1.366   .     A
C493   N507    1.366   .     A
C493   H501    1.082   .     S
C493   C142    1.416   1_565 S
C494   H506    1.084   .     S
N507   Zn521   2.008   .     S
N508   Zn522   2.008   .     S
O513   Zn521   1.999   .     S
O514   Zn522   1.999   .     S
O515   Zn521   2.000   .     S
O516   Zn522   2.000   .     S
O517   Zn521   1.994   .     S
O518   Zn522   1.994   .     S
O519   Zn521   1.994   .     S
O520   Zn522   1.994   .     S
C523   O574    1.282   .     A
C523   C541    1.419   .     S
C523   O571    1.282   .     A
C524   C540    1.397   .     A
C524   H554    1.084   .     S
C524   C584    1.370   .     S
C525   C540    1.397   .     A
C525   H555    1.084   .     S
C525   C610    1.370   .     S
C526   H556    1.084   .     S
C526   C541    1.397   .     A
C526   C640    1.370   1_455 S
C527   C531    1.384   .     A
C527   H560    1.085   .     S
C527   C538    1.396   .     A
C528   C532    1.383   .     A
C528   C539    1.396   .     A
C528   H561    1.085   .     S
C529   H562    1.085   .     S
C529   C533    1.384   .     A
C529   C539    1.396   .     A
C530   C535    1.384   .     A
C530   C538    1.395   .     A
C530   H563    1.085   .     S
C531   C536    1.407   .     A
C531   C542    1.447   .     S
C532   C537    1.407   .     A
C532   C543    1.447   .     S
C533   C544    1.447   .     S
C533   C537    1.408   .     A
C534   O572    1.282   .     A
C534   C540    1.419   .     S
C534   O573    1.282   .     A
C535   C536    1.407   .     A
C535   C546    1.447   .     S
C536   C545    1.433   .     S
C537   C547    1.433   .     S
C539   C16     1.437   1_556 S
C541   C552    1.397   .     A
C542   N567    1.157   .     T
C543   N568    1.157   .     T
C544   N569    1.157   .     T
C545   O578    1.283   .     A
C545   O575    1.283   .     A
C546   N570    1.157   .     T
C547   O576    1.283   .     A
C547   O577    1.283   .     A
C548   N566    1.366   .     A
C548   H553    1.082   .     S
C548   C899    1.416   1_545 S
C549   N565    1.366   .     A
C549   H557    1.082   .     S
C549   C724    1.416   .     S
C550   H558    1.082   .     S
C550   N566    1.366   .     A
C550   C897    1.416   1_545 S
C551   N565    1.366   .     A
C551   H559    1.082   .     S
C551   C722    1.416   .     S
C552   H564    1.084   .     S
C552   C641    1.370   1_455 S
N565   Zn579   2.008   .     S
N566   Zn580   2.008   .     S
O571   Zn579   1.999   .     S
O572   Zn580   1.999   .     S
O573   Zn579   2.000   .     S
O574   Zn580   2.000   .     S
O575   Zn579   1.994   .     S
O576   Zn580   1.994   .     S
O577   Zn579   1.994   .     S
O578   Zn580   1.994   .     S
C581   O632    1.282   .     A
C581   C599    1.419   .     S
C581   O629    1.282   .     A
C582   C598    1.397   .     A
C582   H612    1.084   .     S
C582   C642    1.370   .     S
C583   C598    1.397   .     A
C583   H613    1.084   .     S
C583   C668    1.370   .     S
C584   H614    1.084   .     S
C584   C599    1.397   .     A
C585   C589    1.384   .     A
C585   H618    1.085   .     S
C585   C596    1.396   .     A
C586   C590    1.383   .     A
C586   C597    1.396   .     A
C586   H619    1.085   .     S
C587   H620    1.085   .     S
C587   C591    1.384   .     A
C587   C597    1.396   .     A
C588   C593    1.384   .     A
C588   C596    1.395   .     A
C588   H621    1.085   .     S
C589   C594    1.407   .     A
C589   C600    1.447   .     S
C590   C595    1.407   .     A
C590   C601    1.447   .     S
C591   C602    1.447   .     S
C591   C595    1.408   .     A
C592   O630    1.282   .     A
C592   C598    1.419   .     S
C592   O631    1.282   .     A
C593   C594    1.407   .     A
C593   C604    1.447   .     S
C594   C603    1.433   .     S
C595   C605    1.433   .     S
C597   C74     1.437   1_556 S
C599   C610    1.397   .     A
C600   N625    1.157   .     T
C601   N626    1.157   .     T
C602   N627    1.157   .     T
C603   O636    1.283   .     A
C603   O633    1.283   .     A
C604   N628    1.157   .     T
C605   O634    1.283   .     A
C605   O635    1.283   .     A
C606   N624    1.366   .     A
C606   H611    1.082   .     S
C606   C957    1.416   1_545 S
C607   N623    1.366   .     A
C607   H615    1.082   .     S
C607   C782    1.416   .     S
C608   H616    1.082   .     S
C608   N624    1.366   .     A
C608   C955    1.416   1_545 S
C609   N623    1.366   .     A
C609   H617    1.082   .     S
C609   C780    1.416   .     S
C610   H622    1.084   .     S
N623   Zn637   2.008   .     S
N624   Zn638   2.008   .     S
O629   Zn637   1.999   .     S
O630   Zn638   1.999   .     S
O631   Zn637   2.000   .     S
O632   Zn638   2.000   .     S
O633   Zn637   1.994   .     S
O634   Zn638   1.994   .     S
O635   Zn637   1.994   .     S
O636   Zn638   1.994   .     S
C639   O690    1.282   .     A
C639   C657    1.419   .     S
C639   O687    1.282   .     A
C640   C656    1.397   .     A
C640   H670    1.084   .     S
C640   C526    1.370   1_655 S
C641   C656    1.397   .     A
C641   H671    1.084   .     S
C641   C552    1.370   1_655 S
C642   H672    1.084   .     S
C642   C657    1.397   .     A
C643   C647    1.384   .     A
C643   H676    1.085   .     S
C643   C654    1.396   .     A
C644   C648    1.383   .     A
C644   C655    1.396   .     A
C644   H677    1.085   .     S
C645   H678    1.085   .     S
C645   C649    1.384   .     A
C645   C655    1.396   .     A
C646   C651    1.384   .     A
C646   C654    1.395   .     A
C646   H679    1.085   .     S
C647   C652    1.407   .     A
C647   C658    1.447   .     S
C648   C653    1.407   .     A
C648   C659    1.447   .     S
C649   C660    1.447   .     S
C649   C653    1.408   .     A
C650   O688    1.282   .     A
C650   C656    1.419   .     S
C650   O689    1.282   .     A
C651   C652    1.407   .     A
C651   C662    1.447   .     S
C652   C661    1.433   .     S
C653   C663    1.433   .     S
C655   C132    1.437   1_556 S
C657   C668    1.397   .     A
C658   N683    1.157   .     T
C659   N684    1.157   .     T
C660   N685    1.157   .     T
C661   O694    1.283   .     A
C661   O691    1.283   .     A
C662   N686    1.157   .     T
C663   O692    1.283   .     A
C663   O693    1.283   .     A
C664   N682    1.366   .     A
C664   H669    1.082   .     S
C664   C1015   1.416   1_545 S
C665   N681    1.366   .     A
C665   H673    1.082   .     S
C665   C840    1.416   .     S
C666   H674    1.082   .     S
C666   N682    1.366   .     A
C666   C1013   1.416   1_545 S
C667   N681    1.366   .     A
C667   H675    1.082   .     S
C667   C838    1.416   .     S
C668   H680    1.084   .     S
N681   Zn695   2.008   .     S
N682   Zn696   2.008   .     S
O687   Zn695   1.999   .     S
O688   Zn696   1.999   .     S
O689   Zn695   2.000   .     S
O690   Zn696   2.000   .     S
O691   Zn695   1.994   .     S
O692   Zn696   1.994   .     S
O693   Zn695   1.994   .     S
O694   Zn696   1.994   .     S
C697   O748    1.282   .     A
C697   C715    1.419   .     S
C697   O745    1.282   .     A
C698   C714    1.397   .     A
C698   H728    1.084   .     S
C698   C758    1.370   .     S
C699   C714    1.397   .     A
C699   H729    1.084   .     S
C699   C784    1.370   .     S
C700   H730    1.084   .     S
C700   C715    1.397   .     A
C700   C814    1.370   1_455 S
C701   C705    1.384   .     A
C701   H734    1.085   .     S
C701   C712    1.396   .     A
C702   C706    1.383   .     A
C702   C713    1.396   .     A
C702   H735    1.085   .     S
C703   H736    1.085   .     S
C703   C707    1.384   .     A
C703   C713    1.396   .     A
C704   C709    1.384   .     A
C704   C712    1.395   .     A
C704   H737    1.085   .     S
C705   C710    1.407   .     A
C705   C716    1.447   .     S
C706   C711    1.407   .     A
C706   C717    1.447   .     S
C707   C718    1.447   .     S
C707   C711    1.408   .     A
C708   O746    1.282   .     A
C708   C714    1.419   .     S
C708   O747    1.282   .     A
C709   C710    1.407   .     A
C709   C720    1.447   .     S
C710   C719    1.433   .     S
C711   C721    1.433   .     S
C713   C190    1.437   1_556 S
C715   C726    1.397   .     A
C716   N741    1.157   .     T
C717   N742    1.157   .     T
C718   N743    1.157   .     T
C719   O752    1.283   .     A
C719   O749    1.283   .     A
C720   N744    1.157   .     T
C721   O750    1.283   .     A
C721   O751    1.283   .     A
C722   N740    1.366   .     A
C722   H727    1.082   .     S
C723   N739    1.366   .     A
C723   H731    1.082   .     S
C723   C898    1.416   .     S
C724   H732    1.082   .     S
C724   N740    1.366   .     A
C725   N739    1.366   .     A
C725   H733    1.082   .     S
C725   C896    1.416   .     S
C726   H738    1.084   .     S
C726   C815    1.370   1_455 S
N739   Zn753   2.008   .     S
N740   Zn754   2.008   .     S
O745   Zn753   1.999   .     S
O746   Zn754   1.999   .     S
O747   Zn753   2.000   .     S
O748   Zn754   2.000   .     S
O749   Zn753   1.994   .     S
O750   Zn754   1.994   .     S
O751   Zn753   1.994   .     S
O752   Zn754   1.994   .     S
C755   O806    1.282   .     A
C755   C773    1.419   .     S
C755   O803    1.282   .     A
C756   C772    1.397   .     A
C756   H786    1.084   .     S
C756   C816    1.370   .     S
C757   C772    1.397   .     A
C757   H787    1.084   .     S
C757   C842    1.370   .     S
C758   H788    1.084   .     S
C758   C773    1.397   .     A
C759   C763    1.384   .     A
C759   H792    1.085   .     S
C759   C770    1.396   .     A
C760   C764    1.383   .     A
C760   C771    1.396   .     A
C760   H793    1.085   .     S
C761   H794    1.085   .     S
C761   C765    1.384   .     A
C761   C771    1.396   .     A
C762   C767    1.384   .     A
C762   C770    1.395   .     A
C762   H795    1.085   .     S
C763   C768    1.407   .     A
C763   C774    1.447   .     S
C764   C769    1.407   .     A
C764   C775    1.447   .     S
C765   C776    1.447   .     S
C765   C769    1.408   .     A
C766   O804    1.282   .     A
C766   C772    1.419   .     S
C766   O805    1.282   .     A
C767   C768    1.407   .     A
C767   C778    1.447   .     S
C768   C777    1.433   .     S
C769   C779    1.433   .     S
C771   C248    1.437   1_556 S
C773   C784    1.397   .     A
C774   N799    1.157   .     T
C775   N800    1.157   .     T
C776   N801    1.157   .     T
C777   O810    1.283   .     A
C777   O807    1.283   .     A
C778   N802    1.157   .     T
C779   O808    1.283   .     A
C779   O809    1.283   .     A
C780   N798    1.366   .     A
C780   H785    1.082   .     S
C781   N797    1.366   .     A
C781   H789    1.082   .     S
C781   C956    1.416   .     S
C782   H790    1.082   .     S
C782   N798    1.366   .     A
C783   N797    1.366   .     A
C783   H791    1.082   .     S
C783   C954    1.416   .     S
C784   H796    1.084   .     S
N797   Zn811   2.008   .     S
N798   Zn812   2.008   .     S
O803   Zn811   1.999   .     S
O804   Zn812   1.999   .     S
O805   Zn811   2.000   .     S
O806   Zn812   2.000   .     S
O807   Zn811   1.994   .     S
O808   Zn812   1.994   .     S
O809   Zn811   1.994   .     S
O810   Zn812   1.994   .     S
C813   O864    1.282   .     A
C813   C831    1.419   .     S
C813   O861    1.282   .     A
C814   C830    1.397   .     A
C814   H844    1.084   .     S
C814   C700    1.370   1_655 S
C815   C830    1.397   .     A
C815   H845    1.084   .     S
C815   C726    1.370   1_655 S
C816   H846    1.084   .     S
C816   C831    1.397   .     A
C817   C821    1.384   .     A
C817   H850    1.085   .     S
C817   C828    1.396   .     A
C818   C822    1.383   .     A
C818   C829    1.396   .     A
C818   H851    1.085   .     S
C819   H852    1.085   .     S
C819   C823    1.384   .     A
C819   C829    1.396   .     A
C820   C825    1.384   .     A
C820   C828    1.395   .     A
C820   H853    1.085   .     S
C821   C826    1.407   .     A
C821   C832    1.447   .     S
C822   C827    1.407   .     A
C822   C833    1.447   .     S
C823   C834    1.447   .     S
C823   C827    1.408   .     A
C824   O862    1.282   .     A
C824   C830    1.419   .     S
C824   O863    1.282   .     A
C825   C826    1.407   .     A
C825   C836    1.447   .     S
C826   C835    1.433   .     S
C827   C837    1.433   .     S
C829   C306    1.437   1_556 S
C831   C842    1.397   .     A
C832   N857    1.157   .     T
C833   N858    1.157   .     T
C834   N859    1.157   .     T
C835   O868    1.283   .     A
C835   O865    1.283   .     A
C836   N860    1.157   .     T
C837   O866    1.283   .     A
C837   O867    1.283   .     A
C838   N856    1.366   .     A
C838   H843    1.082   .     S
C839   N855    1.366   .     A
C839   H847    1.082   .     S
C839   C1014   1.416   .     S
C840   H848    1.082   .     S
C840   N856    1.366   .     A
C841   N855    1.366   .     A
C841   H849    1.082   .     S
C841   C1012   1.416   .     S
C842   H854    1.084   .     S
N855   Zn869   2.008   .     S
N856   Zn870   2.008   .     S
O861   Zn869   1.999   .     S
O862   Zn870   1.999   .     S
O863   Zn869   2.000   .     S
O864   Zn870   2.000   .     S
O865   Zn869   1.994   .     S
O866   Zn870   1.994   .     S
O867   Zn869   1.994   .     S
O868   Zn870   1.994   .     S
C871   O922    1.282   .     A
C871   C889    1.419   .     S
C871   O919    1.282   .     A
C872   C888    1.397   .     A
C872   H902    1.084   .     S
C872   C932    1.370   .     S
C873   C888    1.397   .     A
C873   H903    1.084   .     S
C873   C958    1.370   .     S
C874   H904    1.084   .     S
C874   C889    1.397   .     A
C874   C988    1.370   1_455 S
C875   C879    1.384   .     A
C875   H908    1.085   .     S
C875   C886    1.396   .     A
C876   C880    1.383   .     A
C876   C887    1.396   .     A
C876   H909    1.085   .     S
C877   H910    1.085   .     S
C877   C881    1.384   .     A
C877   C887    1.396   .     A
C878   C883    1.384   .     A
C878   C886    1.395   .     A
C878   H911    1.085   .     S
C879   C884    1.407   .     A
C879   C890    1.447   .     S
C880   C885    1.407   .     A
C880   C891    1.447   .     S
C881   C892    1.447   .     S
C881   C885    1.408   .     A
C882   O920    1.282   .     A
C882   C888    1.419   .     S
C882   O921    1.282   .     A
C883   C884    1.407   .     A
C883   C894    1.447   .     S
C884   C893    1.433   .     S
C885   C895    1.433   .     S
C887   C364    1.437   1_556 S
C889   C900    1.397   .     A
C890   N915    1.157   .     T
C891   N916    1.157   .     T
C892   N917    1.157   .     T
C893   O926    1.283   .     A
C893   O923    1.283   .     A
C894   N918    1.157   .     T
C895   O924    1.283   .     A
C895   O925    1.283   .     A
C896   N914    1.366   .     A
C896   H901    1.082   .     S
C897   N913    1.366   .     A
C897   H905    1.082   .     S
C897   C550    1.416   1_565 S
C898   H906    1.082   .     S
C898   N914    1.366   .     A
C899   N913    1.366   .     A
C899   H907    1.082   .     S
C899   C548    1.416   1_565 S
C900   H912    1.084   .     S
C900   C989    1.370   1_455 S
N913   Zn927   2.008   .     S
N914   Zn928   2.008   .     S
O919   Zn927   1.999   .     S
O920   Zn928   1.999   .     S
O921   Zn927   2.000   .     S
O922   Zn928   2.000   .     S
O923   Zn927   1.994   .     S
O924   Zn928   1.994   .     S
O925   Zn927   1.994   .     S
O926   Zn928   1.994   .     S
C929   O980    1.282   .     A
C929   C947    1.419   .     S
C929   O977    1.282   .     A
C930   C946    1.397   .     A
C930   H960    1.084   .     S
C930   C990    1.370   .     S
C931   C946    1.397   .     A
C931   H961    1.084   .     S
C931   C1016   1.370   .     S
C932   H962    1.084   .     S
C932   C947    1.397   .     A
C933   C937    1.384   .     A
C933   H966    1.085   .     S
C933   C944    1.396   .     A
C934   C938    1.383   .     A
C934   C945    1.396   .     A
C934   H967    1.085   .     S
C935   H968    1.085   .     S
C935   C939    1.384   .     A
C935   C945    1.396   .     A
C936   C941    1.384   .     A
C936   C944    1.395   .     A
C936   H969    1.085   .     S
C937   C942    1.407   .     A
C937   C948    1.447   .     S
C938   C943    1.407   .     A
C938   C949    1.447   .     S
C939   C950    1.447   .     S
C939   C943    1.408   .     A
C940   O978    1.282   .     A
C940   C946    1.419   .     S
C940   O979    1.282   .     A
C941   C942    1.407   .     A
C941   C952    1.447   .     S
C942   C951    1.433   .     S
C943   C953    1.433   .     S
C945   C422    1.437   1_556 S
C947   C958    1.397   .     A
C948   N973    1.157   .     T
C949   N974    1.157   .     T
C950   N975    1.157   .     T
C951   O984    1.283   .     A
C951   O981    1.283   .     A
C952   N976    1.157   .     T
C953   O982    1.283   .     A
C953   O983    1.283   .     A
C954   N972    1.366   .     A
C954   H959    1.082   .     S
C955   N971    1.366   .     A
C955   H963    1.082   .     S
C955   C608    1.416   1_565 S
C956   H964    1.082   .     S
C956   N972    1.366   .     A
C957   N971    1.366   .     A
C957   H965    1.082   .     S
C957   C606    1.416   1_565 S
C958   H970    1.084   .     S
N971   Zn985   2.008   .     S
N972   Zn986   2.008   .     S
O977   Zn985   1.999   .     S
O978   Zn986   1.999   .     S
O979   Zn985   2.000   .     S
O980   Zn986   2.000   .     S
O981   Zn985   1.994   .     S
O982   Zn986   1.994   .     S
O983   Zn985   1.994   .     S
O984   Zn986   1.994   .     S
C987   O1038   1.282   .     A
C987   C1005   1.419   .     S
C987   O1035   1.282   .     A
C988   C1004   1.397   .     A
C988   H1018   1.084   .     S
C988   C874    1.370   1_655 S
C989   C1004   1.397   .     A
C989   H1019   1.084   .     S
C989   C900    1.370   1_655 S
C990   H1020   1.084   .     S
C990   C1005   1.397   .     A
C991   C995    1.384   .     A
C991   H1024   1.085   .     S
C991   C1002   1.396   .     A
C992   C996    1.383   .     A
C992   C1003   1.396   .     A
C992   H1025   1.085   .     S
C993   H1026   1.085   .     S
C993   C997    1.384   .     A
C993   C1003   1.396   .     A
C994   C999    1.384   .     A
C994   C1002   1.395   .     A
C994   H1027   1.085   .     S
C995   C1000   1.407   .     A
C995   C1006   1.447   .     S
C996   C1001   1.407   .     A
C996   C1007   1.447   .     S
C997   C1008   1.447   .     S
C997   C1001   1.408   .     A
C998   O1036   1.282   .     A
C998   C1004   1.419   .     S
C998   O1037   1.282   .     A
C999   C1000   1.407   .     A
C999   C1010   1.447   .     S
C1000  C1009   1.433   .     S
C1001  C1011   1.433   .     S
C1003  C480    1.437   1_556 S
C1005  C1016   1.397   .     A
C1006  N1031   1.157   .     T
C1007  N1032   1.157   .     T
C1008  N1033   1.157   .     T
C1009  O1042   1.283   .     A
C1009  O1039   1.283   .     A
C1010  N1034   1.157   .     T
C1011  O1040   1.283   .     A
C1011  O1041   1.283   .     A
C1012  N1030   1.366   .     A
C1012  H1017   1.082   .     S
C1013  N1029   1.366   .     A
C1013  H1021   1.082   .     S
C1013  C666    1.416   1_565 S
C1014  H1022   1.082   .     S
C1014  N1030   1.366   .     A
C1015  N1029   1.366   .     A
C1015  H1023   1.082   .     S
C1015  C664    1.416   1_565 S
C1016  H1028   1.084   .     S
N1029  Zn1043  2.008   .     S
N1030  Zn1044  2.008   .     S
O1035  Zn1043  1.999   .     S
O1036  Zn1044  1.999   .     S
O1037  Zn1043  2.000   .     S
O1038  Zn1044  2.000   .     S
O1039  Zn1043  1.994   .     S
O1040  Zn1044  1.994   .     S
O1041  Zn1043  1.994   .     S
O1042  Zn1044  1.994   .     S
