data_str_m2_o1_o10_pcu_sym.148
_audit_creation_date              2020-01-03
_audit_creation_method            'Materials Studio'
_symmetry_space_group_name_H-M    'P1'
_symmetry_Int_Tables_number       1
_symmetry_cell_setting            triclinic
loop_
_symmetry_equiv_pos_as_xyz
  x,y,z
_cell_length_a                    25.9475
_cell_length_b                    32.5397
_cell_length_c                    29.0103
_cell_angle_alpha                 89.1507
_cell_angle_beta                  95.9647
_cell_angle_gamma                 93.9545
loop_
_atom_site_label
_atom_site_type_symbol
_atom_site_fract_x
_atom_site_fract_y
_atom_site_fract_z
_atom_site_U_iso_or_equiv
_atom_site_adp_type
_atom_site_occupancy
C1     C     0.17330   0.08831   0.16748   0.00000  Uiso   1.00
C2     C     0.16869   0.24624   0.16648   0.00000  Uiso   1.00
C3     C     0.06845   0.16999   0.15538   0.00000  Uiso   1.00
C4     C     0.26558   0.16967   0.17838   0.00000  Uiso   1.00
C5     C     0.01643   0.18416   0.15094   0.00000  Uiso   1.00
C6     C     0.32155   0.17681   0.18634   0.00000  Uiso   1.00
C7     C     0.19507   0.02440   0.12821   0.00000  Uiso   1.00
C8     C     0.16960   0.31347   0.20736   0.00000  Uiso   1.00
C9     C     0.19413   0.31444   0.12792   0.00000  Uiso   1.00
C10    C     0.18489   0.02193   0.21038   0.00000  Uiso   1.00
C11    C     0.17597   0.29180   0.16649   0.00000  Uiso   1.00
C12    C     0.18487   0.04464   0.16872   0.00000  Uiso   1.00
C13    C     0.12936   0.14361   0.02202   0.00000  Uiso   1.00
C14    C     0.20165   0.19096   0.31128   0.00000  Uiso   1.00
C15    C     0.13123   0.14109   0.30614   0.00000  Uiso   1.00
C16    C     0.20768   0.18436   0.02670   0.00000  Uiso   1.00
Cu17   Cu    0.16667   0.16667   0.21355   0.00000  Uiso   1.00
Cu18   Cu    0.16667   0.16666   0.11978   0.00000  Uiso   1.00
N19    N     0.16668   0.16668   0.28403   0.00000  Uiso   1.00
N20    N     0.16665   0.16666   0.04931   0.00000  Uiso   1.00
O21    O     0.16666   0.10655   0.20625   0.00000  Uiso   1.00
O22    O     0.16667   0.22678   0.12709   0.00000  Uiso   1.00
O23    O     0.16666   0.10654   0.12706   0.00000  Uiso   1.00
O24    O     0.16667   0.22679   0.20628   0.00000  Uiso   1.00
O25    O     0.09161   0.16667   0.19712   0.00000  Uiso   1.00
O26    O     0.24172   0.16666   0.13621   0.00000  Uiso   1.00
O27    O     0.09161   0.16666   0.11793   0.00000  Uiso   1.00
O28    O     0.24172   0.16667   0.21540   0.00000  Uiso   1.00
Cl29   Cl    0.01542   0.23450   0.12764   0.00000  Uiso   1.00
Cl30   Cl    0.01292   0.19545   0.24214   0.00000  Uiso   1.00
Cl31   Cl    0.21465   0.05288   0.07919   0.00000  Uiso   1.00
Cl32   Cl    0.13684   0.29152   0.25348   0.00000  Uiso   1.00
C33    C     0.21313   0.29410   0.08652   0.00000  Uiso   1.00
C34    C     0.16961   0.28758   0.04699   0.00000  Uiso   1.00
H35    H     0.13594   0.26871   0.05840   0.00000  Uiso   1.00
H36    H     0.15603   0.31759   0.03382   0.00000  Uiso   1.00
H37    H     0.18435   0.27169   0.01809   0.00000  Uiso   1.00
H38    H     0.24599   0.31281   0.07344   0.00000  Uiso   1.00
H39    H     0.23143   0.26534   0.09656   0.00000  Uiso   1.00
C40    C     0.21046   0.03924   0.25649   0.00000  Uiso   1.00
C41    C     0.26742   0.05334   0.25329   0.00000  Uiso   1.00
H42    H     0.28892   0.02739   0.24236   0.00000  Uiso   1.00
H43    H     0.27082   0.07918   0.22812   0.00000  Uiso   1.00
H44    H     0.28555   0.06417   0.28773   0.00000  Uiso   1.00
H45    H     0.19052   0.06512   0.26867   0.00000  Uiso   1.00
H46    H     0.20986   0.01557   0.28443   0.00000  Uiso   1.00
Cl47   Cl    0.08221   0.11214   0.04839   0.00000  Uiso   1.00
Cl48   Cl    0.23805   0.23140   0.28594   0.00000  Uiso   1.00
C49    C     0.09119   0.11110   0.27956   0.00000  Uiso   1.00
C50    C     0.09486   0.06562   0.29422   0.00000  Uiso   1.00
H51    H     0.05918   0.05408   0.30972   0.00000  Uiso   1.00
H52    H     0.09761   0.04615   0.26355   0.00000  Uiso   1.00
H53    H     0.12887   0.06107   0.31987   0.00000  Uiso   1.00
H54    H     0.05171   0.12046   0.28429   0.00000  Uiso   1.00
H55    H     0.09334   0.11169   0.24248   0.00000  Uiso   1.00
C56    C     0.26222   0.18458   0.05061   0.00000  Uiso   1.00
C57    C     0.30885   0.18778   0.02204   0.00000  Uiso   1.00
H58    H     0.01021   0.17767   0.04370   0.00000  Uiso   1.00
H59    H     0.30192   0.16724   0.32483   0.00000  Uiso   1.00
H60    H     0.31877   0.22014   0.01200   0.00000  Uiso   1.00
H61    H     0.26668   0.20965   0.07577   0.00000  Uiso   1.00
H62    H     0.26537   0.15358   0.06659   0.00000  Uiso   1.00
C63    C     0.50663   0.08831   0.16748   0.00000  Uiso   1.00
C64    C     0.50202   0.24624   0.16648   0.00000  Uiso   1.00
C65    C     0.40178   0.16999   0.15538   0.00000  Uiso   1.00
C66    C     0.59891   0.16967   0.17838   0.00000  Uiso   1.00
C67    C     0.34976   0.18416   0.15094   0.00000  Uiso   1.00
C68    C     0.65489   0.17681   0.18634   0.00000  Uiso   1.00
C69    C     0.52841   0.02440   0.12821   0.00000  Uiso   1.00
C70    C     0.50293   0.31347   0.20736   0.00000  Uiso   1.00
C71    C     0.52746   0.31444   0.12792   0.00000  Uiso   1.00
C72    C     0.51822   0.02193   0.21038   0.00000  Uiso   1.00
C73    C     0.50930   0.29180   0.16649   0.00000  Uiso   1.00
C74    C     0.51820   0.04464   0.16872   0.00000  Uiso   1.00
C75    C     0.46270   0.14361   0.02202   0.00000  Uiso   1.00
C76    C     0.53499   0.19096   0.31128   0.00000  Uiso   1.00
C77    C     0.46456   0.14109   0.30614   0.00000  Uiso   1.00
C78    C     0.54102   0.18436   0.02670   0.00000  Uiso   1.00
Cu79   Cu    0.50000   0.16667   0.21355   0.00000  Uiso   1.00
Cu80   Cu    0.50000   0.16666   0.11978   0.00000  Uiso   1.00
N81    N     0.50001   0.16668   0.28403   0.00000  Uiso   1.00
N82    N     0.49999   0.16666   0.04931   0.00000  Uiso   1.00
O83    O     0.50000   0.10655   0.20625   0.00000  Uiso   1.00
O84    O     0.50000   0.22678   0.12709   0.00000  Uiso   1.00
O85    O     0.50000   0.10654   0.12706   0.00000  Uiso   1.00
O86    O     0.50000   0.22679   0.20628   0.00000  Uiso   1.00
O87    O     0.42495   0.16667   0.19712   0.00000  Uiso   1.00
O88    O     0.57505   0.16666   0.13621   0.00000  Uiso   1.00
O89    O     0.42494   0.16666   0.11793   0.00000  Uiso   1.00
O90    O     0.57506   0.16667   0.21540   0.00000  Uiso   1.00
Cl91   Cl    0.34875   0.23450   0.12764   0.00000  Uiso   1.00
Cl92   Cl    0.34625   0.19545   0.24214   0.00000  Uiso   1.00
Cl93   Cl    0.54798   0.05288   0.07919   0.00000  Uiso   1.00
Cl94   Cl    0.47017   0.29152   0.25348   0.00000  Uiso   1.00
C95    C     0.54646   0.29410   0.08652   0.00000  Uiso   1.00
C96    C     0.50294   0.28758   0.04699   0.00000  Uiso   1.00
H97    H     0.46927   0.26871   0.05840   0.00000  Uiso   1.00
H98    H     0.48936   0.31759   0.03382   0.00000  Uiso   1.00
H99    H     0.51769   0.27169   0.01809   0.00000  Uiso   1.00
H100   H     0.57933   0.31281   0.07344   0.00000  Uiso   1.00
H101   H     0.56476   0.26534   0.09656   0.00000  Uiso   1.00
C102   C     0.54379   0.03924   0.25649   0.00000  Uiso   1.00
C103   C     0.60075   0.05334   0.25329   0.00000  Uiso   1.00
H104   H     0.62225   0.02739   0.24236   0.00000  Uiso   1.00
H105   H     0.60416   0.07918   0.22812   0.00000  Uiso   1.00
H106   H     0.61888   0.06417   0.28773   0.00000  Uiso   1.00
H107   H     0.52386   0.06512   0.26867   0.00000  Uiso   1.00
H108   H     0.54320   0.01557   0.28443   0.00000  Uiso   1.00
Cl109  Cl    0.41554   0.11214   0.04839   0.00000  Uiso   1.00
Cl110  Cl    0.57138   0.23140   0.28594   0.00000  Uiso   1.00
C111   C     0.42452   0.11110   0.27956   0.00000  Uiso   1.00
C112   C     0.42819   0.06562   0.29422   0.00000  Uiso   1.00
H113   H     0.39252   0.05408   0.30972   0.00000  Uiso   1.00
H114   H     0.43094   0.04615   0.26355   0.00000  Uiso   1.00
H115   H     0.46221   0.06107   0.31987   0.00000  Uiso   1.00
H116   H     0.38504   0.12046   0.28429   0.00000  Uiso   1.00
H117   H     0.42668   0.11169   0.24248   0.00000  Uiso   1.00
C118   C     0.59555   0.18458   0.05061   0.00000  Uiso   1.00
C119   C     0.64219   0.18778   0.02204   0.00000  Uiso   1.00
H120   H     0.34354   0.17767   0.04370   0.00000  Uiso   1.00
H121   H     0.63525   0.16724   0.32483   0.00000  Uiso   1.00
H122   H     0.65210   0.22014   0.01200   0.00000  Uiso   1.00
H123   H     0.60001   0.20965   0.07577   0.00000  Uiso   1.00
H124   H     0.59871   0.15358   0.06659   0.00000  Uiso   1.00
C125   C     0.83996   0.08831   0.16748   0.00000  Uiso   1.00
C126   C     0.83536   0.24624   0.16648   0.00000  Uiso   1.00
C127   C     0.73512   0.16999   0.15538   0.00000  Uiso   1.00
C128   C     0.93224   0.16967   0.17838   0.00000  Uiso   1.00
C129   C     0.68309   0.18416   0.15094   0.00000  Uiso   1.00
C130   C     0.98822   0.17681   0.18634   0.00000  Uiso   1.00
C131   C     0.86174   0.02440   0.12821   0.00000  Uiso   1.00
C132   C     0.83626   0.31347   0.20736   0.00000  Uiso   1.00
C133   C     0.86080   0.31444   0.12792   0.00000  Uiso   1.00
C134   C     0.85156   0.02193   0.21038   0.00000  Uiso   1.00
C135   C     0.84264   0.29180   0.16649   0.00000  Uiso   1.00
C136   C     0.85153   0.04464   0.16872   0.00000  Uiso   1.00
C137   C     0.79603   0.14361   0.02202   0.00000  Uiso   1.00
C138   C     0.86832   0.19096   0.31128   0.00000  Uiso   1.00
C139   C     0.79789   0.14109   0.30614   0.00000  Uiso   1.00
C140   C     0.87435   0.18436   0.02670   0.00000  Uiso   1.00
Cu141  Cu    0.83333   0.16667   0.21355   0.00000  Uiso   1.00
Cu142  Cu    0.83333   0.16666   0.11978   0.00000  Uiso   1.00
N143   N     0.83335   0.16668   0.28403   0.00000  Uiso   1.00
N144   N     0.83332   0.16666   0.04931   0.00000  Uiso   1.00
O145   O     0.83333   0.10655   0.20625   0.00000  Uiso   1.00
O146   O     0.83334   0.22678   0.12709   0.00000  Uiso   1.00
O147   O     0.83333   0.10654   0.12706   0.00000  Uiso   1.00
O148   O     0.83334   0.22679   0.20628   0.00000  Uiso   1.00
O149   O     0.75828   0.16667   0.19712   0.00000  Uiso   1.00
O150   O     0.90839   0.16666   0.13621   0.00000  Uiso   1.00
O151   O     0.75828   0.16666   0.11793   0.00000  Uiso   1.00
O152   O     0.90839   0.16667   0.21540   0.00000  Uiso   1.00
Cl153  Cl    0.68209   0.23450   0.12764   0.00000  Uiso   1.00
Cl154  Cl    0.67958   0.19545   0.24214   0.00000  Uiso   1.00
Cl155  Cl    0.88131   0.05288   0.07919   0.00000  Uiso   1.00
Cl156  Cl    0.80350   0.29152   0.25348   0.00000  Uiso   1.00
C157   C     0.87979   0.29410   0.08652   0.00000  Uiso   1.00
C158   C     0.83627   0.28758   0.04699   0.00000  Uiso   1.00
H159   H     0.80261   0.26871   0.05840   0.00000  Uiso   1.00
H160   H     0.82270   0.31759   0.03382   0.00000  Uiso   1.00
H161   H     0.85102   0.27169   0.01809   0.00000  Uiso   1.00
H162   H     0.91266   0.31281   0.07344   0.00000  Uiso   1.00
H163   H     0.89809   0.26534   0.09656   0.00000  Uiso   1.00
C164   C     0.87713   0.03924   0.25649   0.00000  Uiso   1.00
C165   C     0.93409   0.05334   0.25329   0.00000  Uiso   1.00
H166   H     0.95559   0.02739   0.24236   0.00000  Uiso   1.00
H167   H     0.93749   0.07918   0.22812   0.00000  Uiso   1.00
H168   H     0.95222   0.06417   0.28773   0.00000  Uiso   1.00
H169   H     0.85719   0.06512   0.26867   0.00000  Uiso   1.00
H170   H     0.87653   0.01557   0.28443   0.00000  Uiso   1.00
Cl171  Cl    0.74888   0.11214   0.04839   0.00000  Uiso   1.00
Cl172  Cl    0.90472   0.23140   0.28594   0.00000  Uiso   1.00
C173   C     0.75786   0.11110   0.27956   0.00000  Uiso   1.00
C174   C     0.76153   0.06562   0.29422   0.00000  Uiso   1.00
H175   H     0.72585   0.05408   0.30972   0.00000  Uiso   1.00
H176   H     0.76428   0.04615   0.26355   0.00000  Uiso   1.00
H177   H     0.79554   0.06107   0.31987   0.00000  Uiso   1.00
H178   H     0.71838   0.12046   0.28429   0.00000  Uiso   1.00
H179   H     0.76001   0.11169   0.24248   0.00000  Uiso   1.00
C180   C     0.92888   0.18458   0.05061   0.00000  Uiso   1.00
C181   C     0.97552   0.18778   0.02204   0.00000  Uiso   1.00
H182   H     0.67688   0.17767   0.04370   0.00000  Uiso   1.00
H183   H     0.96859   0.16724   0.32483   0.00000  Uiso   1.00
H184   H     0.98544   0.22014   0.01200   0.00000  Uiso   1.00
H185   H     0.93334   0.20965   0.07577   0.00000  Uiso   1.00
H186   H     0.93204   0.15358   0.06659   0.00000  Uiso   1.00
C187   C     0.17330   0.42164   0.16748   0.00000  Uiso   1.00
C188   C     0.16869   0.57957   0.16648   0.00000  Uiso   1.00
C189   C     0.06845   0.50332   0.15538   0.00000  Uiso   1.00
C190   C     0.26558   0.50300   0.17838   0.00000  Uiso   1.00
C191   C     0.01643   0.51749   0.15094   0.00000  Uiso   1.00
C192   C     0.32155   0.51015   0.18634   0.00000  Uiso   1.00
C193   C     0.19507   0.35774   0.12821   0.00000  Uiso   1.00
C194   C     0.16960   0.64680   0.20736   0.00000  Uiso   1.00
C195   C     0.19413   0.64777   0.12792   0.00000  Uiso   1.00
C196   C     0.18489   0.35527   0.21038   0.00000  Uiso   1.00
C197   C     0.17597   0.62514   0.16649   0.00000  Uiso   1.00
C198   C     0.18487   0.37797   0.16872   0.00000  Uiso   1.00
C199   C     0.12936   0.47694   0.02202   0.00000  Uiso   1.00
C200   C     0.20165   0.52429   0.31128   0.00000  Uiso   1.00
C201   C     0.13123   0.47443   0.30614   0.00000  Uiso   1.00
C202   C     0.20768   0.51769   0.02670   0.00000  Uiso   1.00
Cu203  Cu    0.16667   0.50001   0.21355   0.00000  Uiso   1.00
Cu204  Cu    0.16667   0.49999   0.11978   0.00000  Uiso   1.00
N205   N     0.16668   0.50001   0.28403   0.00000  Uiso   1.00
N206   N     0.16665   0.49999   0.04931   0.00000  Uiso   1.00
O207   O     0.16666   0.43989   0.20625   0.00000  Uiso   1.00
O208   O     0.16667   0.56011   0.12709   0.00000  Uiso   1.00
O209   O     0.16666   0.43988   0.12706   0.00000  Uiso   1.00
O210   O     0.16667   0.56012   0.20628   0.00000  Uiso   1.00
O211   O     0.09161   0.50000   0.19712   0.00000  Uiso   1.00
O212   O     0.24172   0.50000   0.13621   0.00000  Uiso   1.00
O213   O     0.09161   0.49999   0.11793   0.00000  Uiso   1.00
O214   O     0.24172   0.50001   0.21540   0.00000  Uiso   1.00
Cl215  Cl    0.01542   0.56783   0.12764   0.00000  Uiso   1.00
Cl216  Cl    0.01292   0.52878   0.24214   0.00000  Uiso   1.00
Cl217  Cl    0.21465   0.38622   0.07919   0.00000  Uiso   1.00
Cl218  Cl    0.13684   0.62485   0.25348   0.00000  Uiso   1.00
C219   C     0.21313   0.62743   0.08652   0.00000  Uiso   1.00
C220   C     0.16961   0.62092   0.04699   0.00000  Uiso   1.00
H221   H     0.13594   0.60204   0.05840   0.00000  Uiso   1.00
H222   H     0.15603   0.65092   0.03382   0.00000  Uiso   1.00
H223   H     0.18435   0.60503   0.01809   0.00000  Uiso   1.00
H224   H     0.24599   0.64614   0.07344   0.00000  Uiso   1.00
H225   H     0.23143   0.59867   0.09656   0.00000  Uiso   1.00
C226   C     0.21046   0.37257   0.25649   0.00000  Uiso   1.00
C227   C     0.26742   0.38668   0.25329   0.00000  Uiso   1.00
H228   H     0.28892   0.36072   0.24236   0.00000  Uiso   1.00
H229   H     0.27082   0.41252   0.22812   0.00000  Uiso   1.00
H230   H     0.28555   0.39751   0.28773   0.00000  Uiso   1.00
H231   H     0.19052   0.39845   0.26867   0.00000  Uiso   1.00
H232   H     0.20986   0.34890   0.28443   0.00000  Uiso   1.00
Cl233  Cl    0.08221   0.44548   0.04839   0.00000  Uiso   1.00
Cl234  Cl    0.23805   0.56473   0.28594   0.00000  Uiso   1.00
C235   C     0.09119   0.44443   0.27956   0.00000  Uiso   1.00
C236   C     0.09486   0.39895   0.29422   0.00000  Uiso   1.00
H237   H     0.05918   0.38741   0.30972   0.00000  Uiso   1.00
H238   H     0.09761   0.37949   0.26355   0.00000  Uiso   1.00
H239   H     0.12887   0.39441   0.31987   0.00000  Uiso   1.00
H240   H     0.05171   0.45379   0.28429   0.00000  Uiso   1.00
H241   H     0.09334   0.44502   0.24248   0.00000  Uiso   1.00
C242   C     0.26222   0.51791   0.05061   0.00000  Uiso   1.00
C243   C     0.30885   0.52112   0.02204   0.00000  Uiso   1.00
H244   H     0.01021   0.51101   0.04370   0.00000  Uiso   1.00
H245   H     0.30192   0.50057   0.32483   0.00000  Uiso   1.00
H246   H     0.31877   0.55348   0.01200   0.00000  Uiso   1.00
H247   H     0.26668   0.54298   0.07577   0.00000  Uiso   1.00
H248   H     0.26537   0.48692   0.06659   0.00000  Uiso   1.00
C249   C     0.50663   0.42164   0.16748   0.00000  Uiso   1.00
C250   C     0.50202   0.57957   0.16648   0.00000  Uiso   1.00
C251   C     0.40178   0.50332   0.15538   0.00000  Uiso   1.00
C252   C     0.59891   0.50300   0.17838   0.00000  Uiso   1.00
C253   C     0.34976   0.51749   0.15094   0.00000  Uiso   1.00
C254   C     0.65489   0.51015   0.18634   0.00000  Uiso   1.00
C255   C     0.52841   0.35774   0.12821   0.00000  Uiso   1.00
C256   C     0.50293   0.64680   0.20736   0.00000  Uiso   1.00
C257   C     0.52746   0.64777   0.12792   0.00000  Uiso   1.00
C258   C     0.51822   0.35527   0.21038   0.00000  Uiso   1.00
C259   C     0.50930   0.62514   0.16649   0.00000  Uiso   1.00
C260   C     0.51820   0.37797   0.16872   0.00000  Uiso   1.00
C261   C     0.46270   0.47694   0.02202   0.00000  Uiso   1.00
C262   C     0.53499   0.52429   0.31128   0.00000  Uiso   1.00
C263   C     0.46456   0.47443   0.30614   0.00000  Uiso   1.00
C264   C     0.54102   0.51769   0.02670   0.00000  Uiso   1.00
Cu265  Cu    0.50000   0.50001   0.21355   0.00000  Uiso   1.00
Cu266  Cu    0.50000   0.49999   0.11978   0.00000  Uiso   1.00
N267   N     0.50001   0.50001   0.28403   0.00000  Uiso   1.00
N268   N     0.49999   0.49999   0.04931   0.00000  Uiso   1.00
O269   O     0.50000   0.43989   0.20625   0.00000  Uiso   1.00
O270   O     0.50000   0.56011   0.12709   0.00000  Uiso   1.00
O271   O     0.50000   0.43988   0.12706   0.00000  Uiso   1.00
O272   O     0.50000   0.56012   0.20628   0.00000  Uiso   1.00
O273   O     0.42495   0.50000   0.19712   0.00000  Uiso   1.00
O274   O     0.57505   0.50000   0.13621   0.00000  Uiso   1.00
O275   O     0.42494   0.49999   0.11793   0.00000  Uiso   1.00
O276   O     0.57506   0.50001   0.21540   0.00000  Uiso   1.00
Cl277  Cl    0.34875   0.56783   0.12764   0.00000  Uiso   1.00
Cl278  Cl    0.34625   0.52878   0.24214   0.00000  Uiso   1.00
Cl279  Cl    0.54798   0.38622   0.07919   0.00000  Uiso   1.00
Cl280  Cl    0.47017   0.62485   0.25348   0.00000  Uiso   1.00
C281   C     0.54646   0.62743   0.08652   0.00000  Uiso   1.00
C282   C     0.50294   0.62092   0.04699   0.00000  Uiso   1.00
H283   H     0.46927   0.60204   0.05840   0.00000  Uiso   1.00
H284   H     0.48936   0.65092   0.03382   0.00000  Uiso   1.00
H285   H     0.51769   0.60503   0.01809   0.00000  Uiso   1.00
H286   H     0.57933   0.64614   0.07344   0.00000  Uiso   1.00
H287   H     0.56476   0.59867   0.09656   0.00000  Uiso   1.00
C288   C     0.54379   0.37257   0.25649   0.00000  Uiso   1.00
C289   C     0.60075   0.38668   0.25329   0.00000  Uiso   1.00
H290   H     0.62225   0.36072   0.24236   0.00000  Uiso   1.00
H291   H     0.60416   0.41252   0.22812   0.00000  Uiso   1.00
H292   H     0.61888   0.39751   0.28773   0.00000  Uiso   1.00
H293   H     0.52386   0.39845   0.26867   0.00000  Uiso   1.00
H294   H     0.54320   0.34890   0.28443   0.00000  Uiso   1.00
Cl295  Cl    0.41554   0.44548   0.04839   0.00000  Uiso   1.00
Cl296  Cl    0.57138   0.56473   0.28594   0.00000  Uiso   1.00
C297   C     0.42452   0.44443   0.27956   0.00000  Uiso   1.00
C298   C     0.42819   0.39895   0.29422   0.00000  Uiso   1.00
H299   H     0.39252   0.38741   0.30972   0.00000  Uiso   1.00
H300   H     0.43094   0.37949   0.26355   0.00000  Uiso   1.00
H301   H     0.46221   0.39441   0.31987   0.00000  Uiso   1.00
H302   H     0.38504   0.45379   0.28429   0.00000  Uiso   1.00
H303   H     0.42668   0.44502   0.24248   0.00000  Uiso   1.00
C304   C     0.59555   0.51791   0.05061   0.00000  Uiso   1.00
C305   C     0.64219   0.52112   0.02204   0.00000  Uiso   1.00
H306   H     0.34354   0.51101   0.04370   0.00000  Uiso   1.00
H307   H     0.63525   0.50057   0.32483   0.00000  Uiso   1.00
H308   H     0.65210   0.55348   0.01200   0.00000  Uiso   1.00
H309   H     0.60001   0.54298   0.07577   0.00000  Uiso   1.00
H310   H     0.59871   0.48692   0.06659   0.00000  Uiso   1.00
C311   C     0.83996   0.42164   0.16748   0.00000  Uiso   1.00
C312   C     0.83536   0.57957   0.16648   0.00000  Uiso   1.00
C313   C     0.73512   0.50332   0.15538   0.00000  Uiso   1.00
C314   C     0.93224   0.50300   0.17838   0.00000  Uiso   1.00
C315   C     0.68309   0.51749   0.15094   0.00000  Uiso   1.00
C316   C     0.98822   0.51015   0.18634   0.00000  Uiso   1.00
C317   C     0.86174   0.35774   0.12821   0.00000  Uiso   1.00
C318   C     0.83626   0.64680   0.20736   0.00000  Uiso   1.00
C319   C     0.86080   0.64777   0.12792   0.00000  Uiso   1.00
C320   C     0.85156   0.35527   0.21038   0.00000  Uiso   1.00
C321   C     0.84264   0.62514   0.16649   0.00000  Uiso   1.00
C322   C     0.85153   0.37797   0.16872   0.00000  Uiso   1.00
C323   C     0.79603   0.47694   0.02202   0.00000  Uiso   1.00
C324   C     0.86832   0.52429   0.31128   0.00000  Uiso   1.00
C325   C     0.79789   0.47443   0.30614   0.00000  Uiso   1.00
C326   C     0.87435   0.51769   0.02670   0.00000  Uiso   1.00
Cu327  Cu    0.83333   0.50001   0.21355   0.00000  Uiso   1.00
Cu328  Cu    0.83333   0.49999   0.11978   0.00000  Uiso   1.00
N329   N     0.83335   0.50001   0.28403   0.00000  Uiso   1.00
N330   N     0.83332   0.49999   0.04931   0.00000  Uiso   1.00
O331   O     0.83333   0.43989   0.20625   0.00000  Uiso   1.00
O332   O     0.83334   0.56011   0.12709   0.00000  Uiso   1.00
O333   O     0.83333   0.43988   0.12706   0.00000  Uiso   1.00
O334   O     0.83334   0.56012   0.20628   0.00000  Uiso   1.00
O335   O     0.75828   0.50000   0.19712   0.00000  Uiso   1.00
O336   O     0.90839   0.50000   0.13621   0.00000  Uiso   1.00
O337   O     0.75828   0.49999   0.11793   0.00000  Uiso   1.00
O338   O     0.90839   0.50001   0.21540   0.00000  Uiso   1.00
Cl339  Cl    0.68209   0.56783   0.12764   0.00000  Uiso   1.00
Cl340  Cl    0.67958   0.52878   0.24214   0.00000  Uiso   1.00
Cl341  Cl    0.88131   0.38622   0.07919   0.00000  Uiso   1.00
Cl342  Cl    0.80350   0.62485   0.25348   0.00000  Uiso   1.00
C343   C     0.87979   0.62743   0.08652   0.00000  Uiso   1.00
C344   C     0.83627   0.62092   0.04699   0.00000  Uiso   1.00
H345   H     0.80261   0.60204   0.05840   0.00000  Uiso   1.00
H346   H     0.82270   0.65092   0.03382   0.00000  Uiso   1.00
H347   H     0.85102   0.60503   0.01809   0.00000  Uiso   1.00
H348   H     0.91266   0.64614   0.07344   0.00000  Uiso   1.00
H349   H     0.89809   0.59867   0.09656   0.00000  Uiso   1.00
C350   C     0.87713   0.37257   0.25649   0.00000  Uiso   1.00
C351   C     0.93409   0.38668   0.25329   0.00000  Uiso   1.00
H352   H     0.95559   0.36072   0.24236   0.00000  Uiso   1.00
H353   H     0.93749   0.41252   0.22812   0.00000  Uiso   1.00
H354   H     0.95222   0.39751   0.28773   0.00000  Uiso   1.00
H355   H     0.85719   0.39845   0.26867   0.00000  Uiso   1.00
H356   H     0.87653   0.34890   0.28443   0.00000  Uiso   1.00
Cl357  Cl    0.74888   0.44548   0.04839   0.00000  Uiso   1.00
Cl358  Cl    0.90472   0.56473   0.28594   0.00000  Uiso   1.00
C359   C     0.75786   0.44443   0.27956   0.00000  Uiso   1.00
C360   C     0.76153   0.39895   0.29422   0.00000  Uiso   1.00
H361   H     0.72585   0.38741   0.30972   0.00000  Uiso   1.00
H362   H     0.76428   0.37949   0.26355   0.00000  Uiso   1.00
H363   H     0.79554   0.39441   0.31987   0.00000  Uiso   1.00
H364   H     0.71838   0.45379   0.28429   0.00000  Uiso   1.00
H365   H     0.76001   0.44502   0.24248   0.00000  Uiso   1.00
C366   C     0.92888   0.51791   0.05061   0.00000  Uiso   1.00
C367   C     0.97552   0.52112   0.02204   0.00000  Uiso   1.00
H368   H     0.67688   0.51101   0.04370   0.00000  Uiso   1.00
H369   H     0.96859   0.50057   0.32483   0.00000  Uiso   1.00
H370   H     0.98544   0.55348   0.01200   0.00000  Uiso   1.00
H371   H     0.93334   0.54298   0.07577   0.00000  Uiso   1.00
H372   H     0.93204   0.48692   0.06659   0.00000  Uiso   1.00
C373   C     0.17330   0.75497   0.16748   0.00000  Uiso   1.00
C374   C     0.16869   0.91291   0.16648   0.00000  Uiso   1.00
C375   C     0.06845   0.83666   0.15538   0.00000  Uiso   1.00
C376   C     0.26558   0.83634   0.17838   0.00000  Uiso   1.00
C377   C     0.01643   0.85082   0.15094   0.00000  Uiso   1.00
C378   C     0.32155   0.84348   0.18634   0.00000  Uiso   1.00
C379   C     0.19507   0.69107   0.12821   0.00000  Uiso   1.00
C380   C     0.16960   0.98014   0.20736   0.00000  Uiso   1.00
C381   C     0.19413   0.98110   0.12792   0.00000  Uiso   1.00
C382   C     0.18489   0.68860   0.21038   0.00000  Uiso   1.00
C383   C     0.17597   0.95847   0.16649   0.00000  Uiso   1.00
C384   C     0.18487   0.71130   0.16872   0.00000  Uiso   1.00
C385   C     0.12936   0.81027   0.02202   0.00000  Uiso   1.00
C386   C     0.20165   0.85762   0.31128   0.00000  Uiso   1.00
C387   C     0.13123   0.80776   0.30614   0.00000  Uiso   1.00
C388   C     0.20768   0.85103   0.02670   0.00000  Uiso   1.00
Cu389  Cu    0.16667   0.83334   0.21355   0.00000  Uiso   1.00
Cu390  Cu    0.16667   0.83333   0.11978   0.00000  Uiso   1.00
N391   N     0.16668   0.83334   0.28403   0.00000  Uiso   1.00
N392   N     0.16665   0.83332   0.04931   0.00000  Uiso   1.00
O393   O     0.16666   0.77322   0.20625   0.00000  Uiso   1.00
O394   O     0.16667   0.89345   0.12709   0.00000  Uiso   1.00
O395   O     0.16666   0.77321   0.12706   0.00000  Uiso   1.00
O396   O     0.16667   0.89346   0.20628   0.00000  Uiso   1.00
O397   O     0.09161   0.83334   0.19712   0.00000  Uiso   1.00
O398   O     0.24172   0.83333   0.13621   0.00000  Uiso   1.00
O399   O     0.09161   0.83333   0.11793   0.00000  Uiso   1.00
O400   O     0.24172   0.83334   0.21540   0.00000  Uiso   1.00
Cl401  Cl    0.01542   0.90116   0.12764   0.00000  Uiso   1.00
Cl402  Cl    0.01292   0.86212   0.24214   0.00000  Uiso   1.00
Cl403  Cl    0.21465   0.71955   0.07919   0.00000  Uiso   1.00
Cl404  Cl    0.13684   0.95819   0.25348   0.00000  Uiso   1.00
C405   C     0.21313   0.96076   0.08652   0.00000  Uiso   1.00
C406   C     0.16961   0.95425   0.04699   0.00000  Uiso   1.00
H407   H     0.13594   0.93538   0.05840   0.00000  Uiso   1.00
H408   H     0.15603   0.98426   0.03382   0.00000  Uiso   1.00
H409   H     0.18435   0.93836   0.01809   0.00000  Uiso   1.00
H410   H     0.24599   0.97948   0.07344   0.00000  Uiso   1.00
H411   H     0.23143   0.93201   0.09656   0.00000  Uiso   1.00
C412   C     0.21046   0.70590   0.25649   0.00000  Uiso   1.00
C413   C     0.26742   0.72001   0.25329   0.00000  Uiso   1.00
H414   H     0.28892   0.69406   0.24236   0.00000  Uiso   1.00
H415   H     0.27082   0.74585   0.22812   0.00000  Uiso   1.00
H416   H     0.28555   0.73084   0.28773   0.00000  Uiso   1.00
H417   H     0.19052   0.73178   0.26867   0.00000  Uiso   1.00
H418   H     0.20986   0.68223   0.28443   0.00000  Uiso   1.00
Cl419  Cl    0.08221   0.77881   0.04839   0.00000  Uiso   1.00
Cl420  Cl    0.23805   0.89807   0.28594   0.00000  Uiso   1.00
C421   C     0.09119   0.77777   0.27956   0.00000  Uiso   1.00
C422   C     0.09486   0.73229   0.29422   0.00000  Uiso   1.00
H423   H     0.05918   0.72074   0.30972   0.00000  Uiso   1.00
H424   H     0.09761   0.71282   0.26355   0.00000  Uiso   1.00
H425   H     0.12887   0.72774   0.31987   0.00000  Uiso   1.00
H426   H     0.05171   0.78712   0.28429   0.00000  Uiso   1.00
H427   H     0.09334   0.77835   0.24248   0.00000  Uiso   1.00
C428   C     0.26222   0.85125   0.05061   0.00000  Uiso   1.00
C429   C     0.30885   0.85445   0.02204   0.00000  Uiso   1.00
H430   H     0.01021   0.84434   0.04370   0.00000  Uiso   1.00
H431   H     0.30192   0.83390   0.32483   0.00000  Uiso   1.00
H432   H     0.31877   0.88681   0.01200   0.00000  Uiso   1.00
H433   H     0.26668   0.87631   0.07577   0.00000  Uiso   1.00
H434   H     0.26537   0.82025   0.06659   0.00000  Uiso   1.00
C435   C     0.50663   0.75497   0.16748   0.00000  Uiso   1.00
C436   C     0.50202   0.91291   0.16648   0.00000  Uiso   1.00
C437   C     0.40178   0.83666   0.15538   0.00000  Uiso   1.00
C438   C     0.59891   0.83634   0.17838   0.00000  Uiso   1.00
C439   C     0.34976   0.85082   0.15094   0.00000  Uiso   1.00
C440   C     0.65489   0.84348   0.18634   0.00000  Uiso   1.00
C441   C     0.52841   0.69107   0.12821   0.00000  Uiso   1.00
C442   C     0.50293   0.98014   0.20736   0.00000  Uiso   1.00
C443   C     0.52746   0.98110   0.12792   0.00000  Uiso   1.00
C444   C     0.51822   0.68860   0.21038   0.00000  Uiso   1.00
C445   C     0.50930   0.95847   0.16649   0.00000  Uiso   1.00
C446   C     0.51820   0.71130   0.16872   0.00000  Uiso   1.00
C447   C     0.46270   0.81027   0.02202   0.00000  Uiso   1.00
C448   C     0.53499   0.85762   0.31128   0.00000  Uiso   1.00
C449   C     0.46456   0.80776   0.30614   0.00000  Uiso   1.00
C450   C     0.54102   0.85103   0.02670   0.00000  Uiso   1.00
Cu451  Cu    0.50000   0.83334   0.21355   0.00000  Uiso   1.00
Cu452  Cu    0.50000   0.83333   0.11978   0.00000  Uiso   1.00
N453   N     0.50001   0.83334   0.28403   0.00000  Uiso   1.00
N454   N     0.49999   0.83332   0.04931   0.00000  Uiso   1.00
O455   O     0.50000   0.77322   0.20625   0.00000  Uiso   1.00
O456   O     0.50000   0.89345   0.12709   0.00000  Uiso   1.00
O457   O     0.50000   0.77321   0.12706   0.00000  Uiso   1.00
O458   O     0.50000   0.89346   0.20628   0.00000  Uiso   1.00
O459   O     0.42495   0.83334   0.19712   0.00000  Uiso   1.00
O460   O     0.57505   0.83333   0.13621   0.00000  Uiso   1.00
O461   O     0.42494   0.83333   0.11793   0.00000  Uiso   1.00
O462   O     0.57506   0.83334   0.21540   0.00000  Uiso   1.00
Cl463  Cl    0.34875   0.90116   0.12764   0.00000  Uiso   1.00
Cl464  Cl    0.34625   0.86212   0.24214   0.00000  Uiso   1.00
Cl465  Cl    0.54798   0.71955   0.07919   0.00000  Uiso   1.00
Cl466  Cl    0.47017   0.95819   0.25348   0.00000  Uiso   1.00
C467   C     0.54646   0.96076   0.08652   0.00000  Uiso   1.00
C468   C     0.50294   0.95425   0.04699   0.00000  Uiso   1.00
H469   H     0.46927   0.93538   0.05840   0.00000  Uiso   1.00
H470   H     0.48936   0.98426   0.03382   0.00000  Uiso   1.00
H471   H     0.51769   0.93836   0.01809   0.00000  Uiso   1.00
H472   H     0.57933   0.97948   0.07344   0.00000  Uiso   1.00
H473   H     0.56476   0.93201   0.09656   0.00000  Uiso   1.00
C474   C     0.54379   0.70590   0.25649   0.00000  Uiso   1.00
C475   C     0.60075   0.72001   0.25329   0.00000  Uiso   1.00
H476   H     0.62225   0.69406   0.24236   0.00000  Uiso   1.00
H477   H     0.60416   0.74585   0.22812   0.00000  Uiso   1.00
H478   H     0.61888   0.73084   0.28773   0.00000  Uiso   1.00
H479   H     0.52386   0.73178   0.26867   0.00000  Uiso   1.00
H480   H     0.54320   0.68223   0.28443   0.00000  Uiso   1.00
Cl481  Cl    0.41554   0.77881   0.04839   0.00000  Uiso   1.00
Cl482  Cl    0.57138   0.89807   0.28594   0.00000  Uiso   1.00
C483   C     0.42452   0.77777   0.27956   0.00000  Uiso   1.00
C484   C     0.42819   0.73229   0.29422   0.00000  Uiso   1.00
H485   H     0.39252   0.72074   0.30972   0.00000  Uiso   1.00
H486   H     0.43094   0.71282   0.26355   0.00000  Uiso   1.00
H487   H     0.46221   0.72774   0.31987   0.00000  Uiso   1.00
H488   H     0.38504   0.78712   0.28429   0.00000  Uiso   1.00
H489   H     0.42668   0.77835   0.24248   0.00000  Uiso   1.00
C490   C     0.59555   0.85125   0.05061   0.00000  Uiso   1.00
C491   C     0.64219   0.85445   0.02204   0.00000  Uiso   1.00
H492   H     0.34354   0.84434   0.04370   0.00000  Uiso   1.00
H493   H     0.63525   0.83390   0.32483   0.00000  Uiso   1.00
H494   H     0.65210   0.88681   0.01200   0.00000  Uiso   1.00
H495   H     0.60001   0.87631   0.07577   0.00000  Uiso   1.00
H496   H     0.59871   0.82025   0.06659   0.00000  Uiso   1.00
C497   C     0.83996   0.75497   0.16748   0.00000  Uiso   1.00
C498   C     0.83536   0.91291   0.16648   0.00000  Uiso   1.00
C499   C     0.73512   0.83666   0.15538   0.00000  Uiso   1.00
C500   C     0.93224   0.83634   0.17838   0.00000  Uiso   1.00
C501   C     0.68309   0.85082   0.15094   0.00000  Uiso   1.00
C502   C     0.98822   0.84348   0.18634   0.00000  Uiso   1.00
C503   C     0.86174   0.69107   0.12821   0.00000  Uiso   1.00
C504   C     0.83626   0.98014   0.20736   0.00000  Uiso   1.00
C505   C     0.86080   0.98110   0.12792   0.00000  Uiso   1.00
C506   C     0.85156   0.68860   0.21038   0.00000  Uiso   1.00
C507   C     0.84264   0.95847   0.16649   0.00000  Uiso   1.00
C508   C     0.85153   0.71130   0.16872   0.00000  Uiso   1.00
C509   C     0.79603   0.81027   0.02202   0.00000  Uiso   1.00
C510   C     0.86832   0.85762   0.31128   0.00000  Uiso   1.00
C511   C     0.79789   0.80776   0.30614   0.00000  Uiso   1.00
C512   C     0.87435   0.85103   0.02670   0.00000  Uiso   1.00
Cu513  Cu    0.83333   0.83334   0.21355   0.00000  Uiso   1.00
Cu514  Cu    0.83333   0.83333   0.11978   0.00000  Uiso   1.00
N515   N     0.83335   0.83334   0.28403   0.00000  Uiso   1.00
N516   N     0.83332   0.83332   0.04931   0.00000  Uiso   1.00
O517   O     0.83333   0.77322   0.20625   0.00000  Uiso   1.00
O518   O     0.83334   0.89345   0.12709   0.00000  Uiso   1.00
O519   O     0.83333   0.77321   0.12706   0.00000  Uiso   1.00
O520   O     0.83334   0.89346   0.20628   0.00000  Uiso   1.00
O521   O     0.75828   0.83334   0.19712   0.00000  Uiso   1.00
O522   O     0.90839   0.83333   0.13621   0.00000  Uiso   1.00
O523   O     0.75828   0.83333   0.11793   0.00000  Uiso   1.00
O524   O     0.90839   0.83334   0.21540   0.00000  Uiso   1.00
Cl525  Cl    0.68209   0.90116   0.12764   0.00000  Uiso   1.00
Cl526  Cl    0.67958   0.86212   0.24214   0.00000  Uiso   1.00
Cl527  Cl    0.88131   0.71955   0.07919   0.00000  Uiso   1.00
Cl528  Cl    0.80350   0.95819   0.25348   0.00000  Uiso   1.00
C529   C     0.87979   0.96076   0.08652   0.00000  Uiso   1.00
C530   C     0.83627   0.95425   0.04699   0.00000  Uiso   1.00
H531   H     0.80261   0.93538   0.05840   0.00000  Uiso   1.00
H532   H     0.82270   0.98426   0.03382   0.00000  Uiso   1.00
H533   H     0.85102   0.93836   0.01809   0.00000  Uiso   1.00
H534   H     0.91266   0.97948   0.07344   0.00000  Uiso   1.00
H535   H     0.89809   0.93201   0.09656   0.00000  Uiso   1.00
C536   C     0.87713   0.70590   0.25649   0.00000  Uiso   1.00
C537   C     0.93409   0.72001   0.25329   0.00000  Uiso   1.00
H538   H     0.95559   0.69406   0.24236   0.00000  Uiso   1.00
H539   H     0.93749   0.74585   0.22812   0.00000  Uiso   1.00
H540   H     0.95222   0.73084   0.28773   0.00000  Uiso   1.00
H541   H     0.85719   0.73178   0.26867   0.00000  Uiso   1.00
H542   H     0.87653   0.68223   0.28443   0.00000  Uiso   1.00
Cl543  Cl    0.74888   0.77881   0.04839   0.00000  Uiso   1.00
Cl544  Cl    0.90472   0.89807   0.28594   0.00000  Uiso   1.00
C545   C     0.75786   0.77777   0.27956   0.00000  Uiso   1.00
C546   C     0.76153   0.73229   0.29422   0.00000  Uiso   1.00
H547   H     0.72585   0.72074   0.30972   0.00000  Uiso   1.00
H548   H     0.76428   0.71282   0.26355   0.00000  Uiso   1.00
H549   H     0.79554   0.72774   0.31987   0.00000  Uiso   1.00
H550   H     0.71838   0.78712   0.28429   0.00000  Uiso   1.00
H551   H     0.76001   0.77835   0.24248   0.00000  Uiso   1.00
C552   C     0.92888   0.85125   0.05061   0.00000  Uiso   1.00
C553   C     0.97552   0.85445   0.02204   0.00000  Uiso   1.00
H554   H     0.67688   0.84434   0.04370   0.00000  Uiso   1.00
H555   H     0.96859   0.83390   0.32483   0.00000  Uiso   1.00
H556   H     0.98544   0.88681   0.01200   0.00000  Uiso   1.00
H557   H     0.93334   0.87631   0.07577   0.00000  Uiso   1.00
H558   H     0.93204   0.82025   0.06659   0.00000  Uiso   1.00
C559   C     0.17330   0.08831   0.50081   0.00000  Uiso   1.00
C560   C     0.16869   0.24624   0.49981   0.00000  Uiso   1.00
C561   C     0.06845   0.16999   0.48871   0.00000  Uiso   1.00
C562   C     0.26558   0.16967   0.51172   0.00000  Uiso   1.00
C563   C     0.01643   0.18416   0.48428   0.00000  Uiso   1.00
C564   C     0.32155   0.17681   0.51968   0.00000  Uiso   1.00
C565   C     0.19507   0.02440   0.46154   0.00000  Uiso   1.00
C566   C     0.16960   0.31347   0.54069   0.00000  Uiso   1.00
C567   C     0.19413   0.31444   0.46125   0.00000  Uiso   1.00
C568   C     0.18489   0.02193   0.54371   0.00000  Uiso   1.00
C569   C     0.17597   0.29180   0.49982   0.00000  Uiso   1.00
C570   C     0.18487   0.04464   0.50206   0.00000  Uiso   1.00
C571   C     0.12936   0.14361   0.35535   0.00000  Uiso   1.00
C572   C     0.20165   0.19096   0.64461   0.00000  Uiso   1.00
C573   C     0.13123   0.14109   0.63948   0.00000  Uiso   1.00
C574   C     0.20768   0.18436   0.36003   0.00000  Uiso   1.00
Cu575  Cu    0.16667   0.16667   0.54689   0.00000  Uiso   1.00
Cu576  Cu    0.16667   0.16666   0.45311   0.00000  Uiso   1.00
N577   N     0.16668   0.16668   0.61736   0.00000  Uiso   1.00
N578   N     0.16665   0.16666   0.38264   0.00000  Uiso   1.00
O579   O     0.16666   0.10655   0.53958   0.00000  Uiso   1.00
O580   O     0.16667   0.22678   0.46042   0.00000  Uiso   1.00
O581   O     0.16666   0.10654   0.46039   0.00000  Uiso   1.00
O582   O     0.16667   0.22679   0.53961   0.00000  Uiso   1.00
O583   O     0.09161   0.16667   0.53046   0.00000  Uiso   1.00
O584   O     0.24172   0.16666   0.46954   0.00000  Uiso   1.00
O585   O     0.09161   0.16666   0.45127   0.00000  Uiso   1.00
O586   O     0.24172   0.16667   0.54873   0.00000  Uiso   1.00
Cl587  Cl    0.01542   0.23450   0.46097   0.00000  Uiso   1.00
Cl588  Cl    0.01292   0.19545   0.57547   0.00000  Uiso   1.00
Cl589  Cl    0.21465   0.05288   0.41253   0.00000  Uiso   1.00
Cl590  Cl    0.13684   0.29152   0.58681   0.00000  Uiso   1.00
C591   C     0.21313   0.29410   0.41985   0.00000  Uiso   1.00
C592   C     0.16961   0.28758   0.38032   0.00000  Uiso   1.00
H593   H     0.13594   0.26871   0.39173   0.00000  Uiso   1.00
H594   H     0.15603   0.31759   0.36715   0.00000  Uiso   1.00
H595   H     0.18435   0.27169   0.35143   0.00000  Uiso   1.00
H596   H     0.24599   0.31281   0.40678   0.00000  Uiso   1.00
H597   H     0.23143   0.26534   0.42990   0.00000  Uiso   1.00
C598   C     0.21046   0.03924   0.58983   0.00000  Uiso   1.00
C599   C     0.26742   0.05334   0.58662   0.00000  Uiso   1.00
H600   H     0.28892   0.02739   0.57569   0.00000  Uiso   1.00
H601   H     0.27082   0.07918   0.56145   0.00000  Uiso   1.00
H602   H     0.28555   0.06417   0.62107   0.00000  Uiso   1.00
H603   H     0.19052   0.06512   0.60200   0.00000  Uiso   1.00
H604   H     0.20986   0.01557   0.61776   0.00000  Uiso   1.00
Cl605  Cl    0.08221   0.11214   0.38172   0.00000  Uiso   1.00
Cl606  Cl    0.23805   0.23140   0.61928   0.00000  Uiso   1.00
C607   C     0.09119   0.11110   0.61290   0.00000  Uiso   1.00
C608   C     0.09486   0.06562   0.62755   0.00000  Uiso   1.00
H609   H     0.05918   0.05408   0.64305   0.00000  Uiso   1.00
H610   H     0.09761   0.04615   0.59689   0.00000  Uiso   1.00
H611   H     0.12887   0.06107   0.65321   0.00000  Uiso   1.00
H612   H     0.05171   0.12046   0.61762   0.00000  Uiso   1.00
H613   H     0.09334   0.11169   0.57581   0.00000  Uiso   1.00
C614   C     0.26222   0.18458   0.38394   0.00000  Uiso   1.00
C615   C     0.30885   0.18778   0.35537   0.00000  Uiso   1.00
H616   H     0.01021   0.17767   0.37703   0.00000  Uiso   1.00
H617   H     0.30192   0.16724   0.65816   0.00000  Uiso   1.00
H618   H     0.31877   0.22014   0.34533   0.00000  Uiso   1.00
H619   H     0.26668   0.20965   0.40910   0.00000  Uiso   1.00
H620   H     0.26537   0.15358   0.39992   0.00000  Uiso   1.00
C621   C     0.50663   0.08831   0.50081   0.00000  Uiso   1.00
C622   C     0.50202   0.24624   0.49981   0.00000  Uiso   1.00
C623   C     0.40178   0.16999   0.48871   0.00000  Uiso   1.00
C624   C     0.59891   0.16967   0.51172   0.00000  Uiso   1.00
C625   C     0.34976   0.18416   0.48428   0.00000  Uiso   1.00
C626   C     0.65489   0.17681   0.51968   0.00000  Uiso   1.00
C627   C     0.52841   0.02440   0.46154   0.00000  Uiso   1.00
C628   C     0.50293   0.31347   0.54069   0.00000  Uiso   1.00
C629   C     0.52746   0.31444   0.46125   0.00000  Uiso   1.00
C630   C     0.51822   0.02193   0.54371   0.00000  Uiso   1.00
C631   C     0.50930   0.29180   0.49982   0.00000  Uiso   1.00
C632   C     0.51820   0.04464   0.50206   0.00000  Uiso   1.00
C633   C     0.46270   0.14361   0.35535   0.00000  Uiso   1.00
C634   C     0.53499   0.19096   0.64461   0.00000  Uiso   1.00
C635   C     0.46456   0.14109   0.63948   0.00000  Uiso   1.00
C636   C     0.54102   0.18436   0.36003   0.00000  Uiso   1.00
Cu637  Cu    0.50000   0.16667   0.54689   0.00000  Uiso   1.00
Cu638  Cu    0.50000   0.16666   0.45311   0.00000  Uiso   1.00
N639   N     0.50001   0.16668   0.61736   0.00000  Uiso   1.00
N640   N     0.49999   0.16666   0.38264   0.00000  Uiso   1.00
O641   O     0.50000   0.10655   0.53958   0.00000  Uiso   1.00
O642   O     0.50000   0.22678   0.46042   0.00000  Uiso   1.00
O643   O     0.50000   0.10654   0.46039   0.00000  Uiso   1.00
O644   O     0.50000   0.22679   0.53961   0.00000  Uiso   1.00
O645   O     0.42495   0.16667   0.53046   0.00000  Uiso   1.00
O646   O     0.57505   0.16666   0.46954   0.00000  Uiso   1.00
O647   O     0.42494   0.16666   0.45127   0.00000  Uiso   1.00
O648   O     0.57506   0.16667   0.54873   0.00000  Uiso   1.00
Cl649  Cl    0.34875   0.23450   0.46097   0.00000  Uiso   1.00
Cl650  Cl    0.34625   0.19545   0.57547   0.00000  Uiso   1.00
Cl651  Cl    0.54798   0.05288   0.41253   0.00000  Uiso   1.00
Cl652  Cl    0.47017   0.29152   0.58681   0.00000  Uiso   1.00
C653   C     0.54646   0.29410   0.41985   0.00000  Uiso   1.00
C654   C     0.50294   0.28758   0.38032   0.00000  Uiso   1.00
H655   H     0.46927   0.26871   0.39173   0.00000  Uiso   1.00
H656   H     0.48936   0.31759   0.36715   0.00000  Uiso   1.00
H657   H     0.51769   0.27169   0.35143   0.00000  Uiso   1.00
H658   H     0.57933   0.31281   0.40678   0.00000  Uiso   1.00
H659   H     0.56476   0.26534   0.42990   0.00000  Uiso   1.00
C660   C     0.54379   0.03924   0.58983   0.00000  Uiso   1.00
C661   C     0.60075   0.05334   0.58662   0.00000  Uiso   1.00
H662   H     0.62225   0.02739   0.57569   0.00000  Uiso   1.00
H663   H     0.60416   0.07918   0.56145   0.00000  Uiso   1.00
H664   H     0.61888   0.06417   0.62107   0.00000  Uiso   1.00
H665   H     0.52386   0.06512   0.60200   0.00000  Uiso   1.00
H666   H     0.54320   0.01557   0.61776   0.00000  Uiso   1.00
Cl667  Cl    0.41554   0.11214   0.38172   0.00000  Uiso   1.00
Cl668  Cl    0.57138   0.23140   0.61928   0.00000  Uiso   1.00
C669   C     0.42452   0.11110   0.61290   0.00000  Uiso   1.00
C670   C     0.42819   0.06562   0.62755   0.00000  Uiso   1.00
H671   H     0.39252   0.05408   0.64305   0.00000  Uiso   1.00
H672   H     0.43094   0.04615   0.59689   0.00000  Uiso   1.00
H673   H     0.46221   0.06107   0.65321   0.00000  Uiso   1.00
H674   H     0.38504   0.12046   0.61762   0.00000  Uiso   1.00
H675   H     0.42668   0.11169   0.57581   0.00000  Uiso   1.00
C676   C     0.59555   0.18458   0.38394   0.00000  Uiso   1.00
C677   C     0.64219   0.18778   0.35537   0.00000  Uiso   1.00
H678   H     0.34354   0.17767   0.37703   0.00000  Uiso   1.00
H679   H     0.63525   0.16724   0.65816   0.00000  Uiso   1.00
H680   H     0.65210   0.22014   0.34533   0.00000  Uiso   1.00
H681   H     0.60001   0.20965   0.40910   0.00000  Uiso   1.00
H682   H     0.59871   0.15358   0.39992   0.00000  Uiso   1.00
C683   C     0.83996   0.08831   0.50081   0.00000  Uiso   1.00
C684   C     0.83536   0.24624   0.49981   0.00000  Uiso   1.00
C685   C     0.73512   0.16999   0.48871   0.00000  Uiso   1.00
C686   C     0.93224   0.16967   0.51172   0.00000  Uiso   1.00
C687   C     0.68309   0.18416   0.48428   0.00000  Uiso   1.00
C688   C     0.98822   0.17681   0.51968   0.00000  Uiso   1.00
C689   C     0.86174   0.02440   0.46154   0.00000  Uiso   1.00
C690   C     0.83626   0.31347   0.54069   0.00000  Uiso   1.00
C691   C     0.86080   0.31444   0.46125   0.00000  Uiso   1.00
C692   C     0.85156   0.02193   0.54371   0.00000  Uiso   1.00
C693   C     0.84264   0.29180   0.49982   0.00000  Uiso   1.00
C694   C     0.85153   0.04464   0.50206   0.00000  Uiso   1.00
C695   C     0.79603   0.14361   0.35535   0.00000  Uiso   1.00
C696   C     0.86832   0.19096   0.64461   0.00000  Uiso   1.00
C697   C     0.79789   0.14109   0.63948   0.00000  Uiso   1.00
C698   C     0.87435   0.18436   0.36003   0.00000  Uiso   1.00
Cu699  Cu    0.83333   0.16667   0.54689   0.00000  Uiso   1.00
Cu700  Cu    0.83333   0.16666   0.45311   0.00000  Uiso   1.00
N701   N     0.83335   0.16668   0.61736   0.00000  Uiso   1.00
N702   N     0.83332   0.16666   0.38264   0.00000  Uiso   1.00
O703   O     0.83333   0.10655   0.53958   0.00000  Uiso   1.00
O704   O     0.83334   0.22678   0.46042   0.00000  Uiso   1.00
O705   O     0.83333   0.10654   0.46039   0.00000  Uiso   1.00
O706   O     0.83334   0.22679   0.53961   0.00000  Uiso   1.00
O707   O     0.75828   0.16667   0.53046   0.00000  Uiso   1.00
O708   O     0.90839   0.16666   0.46954   0.00000  Uiso   1.00
O709   O     0.75828   0.16666   0.45127   0.00000  Uiso   1.00
O710   O     0.90839   0.16667   0.54873   0.00000  Uiso   1.00
Cl711  Cl    0.68209   0.23450   0.46097   0.00000  Uiso   1.00
Cl712  Cl    0.67958   0.19545   0.57547   0.00000  Uiso   1.00
Cl713  Cl    0.88131   0.05288   0.41253   0.00000  Uiso   1.00
Cl714  Cl    0.80350   0.29152   0.58681   0.00000  Uiso   1.00
C715   C     0.87979   0.29410   0.41985   0.00000  Uiso   1.00
C716   C     0.83627   0.28758   0.38032   0.00000  Uiso   1.00
H717   H     0.80261   0.26871   0.39173   0.00000  Uiso   1.00
H718   H     0.82270   0.31759   0.36715   0.00000  Uiso   1.00
H719   H     0.85102   0.27169   0.35143   0.00000  Uiso   1.00
H720   H     0.91266   0.31281   0.40678   0.00000  Uiso   1.00
H721   H     0.89809   0.26534   0.42990   0.00000  Uiso   1.00
C722   C     0.87713   0.03924   0.58983   0.00000  Uiso   1.00
C723   C     0.93409   0.05334   0.58662   0.00000  Uiso   1.00
H724   H     0.95559   0.02739   0.57569   0.00000  Uiso   1.00
H725   H     0.93749   0.07918   0.56145   0.00000  Uiso   1.00
H726   H     0.95222   0.06417   0.62107   0.00000  Uiso   1.00
H727   H     0.85719   0.06512   0.60200   0.00000  Uiso   1.00
H728   H     0.87653   0.01557   0.61776   0.00000  Uiso   1.00
Cl729  Cl    0.74888   0.11214   0.38172   0.00000  Uiso   1.00
Cl730  Cl    0.90472   0.23140   0.61928   0.00000  Uiso   1.00
C731   C     0.75786   0.11110   0.61290   0.00000  Uiso   1.00
C732   C     0.76153   0.06562   0.62755   0.00000  Uiso   1.00
H733   H     0.72585   0.05408   0.64305   0.00000  Uiso   1.00
H734   H     0.76428   0.04615   0.59689   0.00000  Uiso   1.00
H735   H     0.79554   0.06107   0.65321   0.00000  Uiso   1.00
H736   H     0.71838   0.12046   0.61762   0.00000  Uiso   1.00
H737   H     0.76001   0.11169   0.57581   0.00000  Uiso   1.00
C738   C     0.92888   0.18458   0.38394   0.00000  Uiso   1.00
C739   C     0.97552   0.18778   0.35537   0.00000  Uiso   1.00
H740   H     0.67688   0.17767   0.37703   0.00000  Uiso   1.00
H741   H     0.96859   0.16724   0.65816   0.00000  Uiso   1.00
H742   H     0.98544   0.22014   0.34533   0.00000  Uiso   1.00
H743   H     0.93334   0.20965   0.40910   0.00000  Uiso   1.00
H744   H     0.93204   0.15358   0.39992   0.00000  Uiso   1.00
C745   C     0.17330   0.42164   0.50081   0.00000  Uiso   1.00
C746   C     0.16869   0.57957   0.49981   0.00000  Uiso   1.00
C747   C     0.06845   0.50332   0.48871   0.00000  Uiso   1.00
C748   C     0.26558   0.50300   0.51172   0.00000  Uiso   1.00
C749   C     0.01643   0.51749   0.48428   0.00000  Uiso   1.00
C750   C     0.32155   0.51015   0.51968   0.00000  Uiso   1.00
C751   C     0.19507   0.35774   0.46154   0.00000  Uiso   1.00
C752   C     0.16960   0.64680   0.54069   0.00000  Uiso   1.00
C753   C     0.19413   0.64777   0.46125   0.00000  Uiso   1.00
C754   C     0.18489   0.35527   0.54371   0.00000  Uiso   1.00
C755   C     0.17597   0.62514   0.49982   0.00000  Uiso   1.00
C756   C     0.18487   0.37797   0.50206   0.00000  Uiso   1.00
C757   C     0.12936   0.47694   0.35535   0.00000  Uiso   1.00
C758   C     0.20165   0.52429   0.64461   0.00000  Uiso   1.00
C759   C     0.13123   0.47443   0.63948   0.00000  Uiso   1.00
C760   C     0.20768   0.51769   0.36003   0.00000  Uiso   1.00
Cu761  Cu    0.16667   0.50001   0.54689   0.00000  Uiso   1.00
Cu762  Cu    0.16667   0.49999   0.45311   0.00000  Uiso   1.00
N763   N     0.16668   0.50001   0.61736   0.00000  Uiso   1.00
N764   N     0.16665   0.49999   0.38264   0.00000  Uiso   1.00
O765   O     0.16666   0.43989   0.53958   0.00000  Uiso   1.00
O766   O     0.16667   0.56011   0.46042   0.00000  Uiso   1.00
O767   O     0.16666   0.43988   0.46039   0.00000  Uiso   1.00
O768   O     0.16667   0.56012   0.53961   0.00000  Uiso   1.00
O769   O     0.09161   0.50000   0.53046   0.00000  Uiso   1.00
O770   O     0.24172   0.50000   0.46954   0.00000  Uiso   1.00
O771   O     0.09161   0.49999   0.45127   0.00000  Uiso   1.00
O772   O     0.24172   0.50001   0.54873   0.00000  Uiso   1.00
Cl773  Cl    0.01542   0.56783   0.46097   0.00000  Uiso   1.00
Cl774  Cl    0.01292   0.52878   0.57547   0.00000  Uiso   1.00
Cl775  Cl    0.21465   0.38622   0.41253   0.00000  Uiso   1.00
Cl776  Cl    0.13684   0.62485   0.58681   0.00000  Uiso   1.00
C777   C     0.21313   0.62743   0.41985   0.00000  Uiso   1.00
C778   C     0.16961   0.62092   0.38032   0.00000  Uiso   1.00
H779   H     0.13594   0.60204   0.39173   0.00000  Uiso   1.00
H780   H     0.15603   0.65092   0.36715   0.00000  Uiso   1.00
H781   H     0.18435   0.60503   0.35143   0.00000  Uiso   1.00
H782   H     0.24599   0.64614   0.40678   0.00000  Uiso   1.00
H783   H     0.23143   0.59867   0.42990   0.00000  Uiso   1.00
C784   C     0.21046   0.37257   0.58983   0.00000  Uiso   1.00
C785   C     0.26742   0.38668   0.58662   0.00000  Uiso   1.00
H786   H     0.28892   0.36072   0.57569   0.00000  Uiso   1.00
H787   H     0.27082   0.41252   0.56145   0.00000  Uiso   1.00
H788   H     0.28555   0.39751   0.62107   0.00000  Uiso   1.00
H789   H     0.19052   0.39845   0.60200   0.00000  Uiso   1.00
H790   H     0.20986   0.34890   0.61776   0.00000  Uiso   1.00
Cl791  Cl    0.08221   0.44548   0.38172   0.00000  Uiso   1.00
Cl792  Cl    0.23805   0.56473   0.61928   0.00000  Uiso   1.00
C793   C     0.09119   0.44443   0.61290   0.00000  Uiso   1.00
C794   C     0.09486   0.39895   0.62755   0.00000  Uiso   1.00
H795   H     0.05918   0.38741   0.64305   0.00000  Uiso   1.00
H796   H     0.09761   0.37949   0.59689   0.00000  Uiso   1.00
H797   H     0.12887   0.39441   0.65321   0.00000  Uiso   1.00
H798   H     0.05171   0.45379   0.61762   0.00000  Uiso   1.00
H799   H     0.09334   0.44502   0.57581   0.00000  Uiso   1.00
C800   C     0.26222   0.51791   0.38394   0.00000  Uiso   1.00
C801   C     0.30885   0.52112   0.35537   0.00000  Uiso   1.00
H802   H     0.01021   0.51101   0.37703   0.00000  Uiso   1.00
H803   H     0.30192   0.50057   0.65816   0.00000  Uiso   1.00
H804   H     0.31877   0.55348   0.34533   0.00000  Uiso   1.00
H805   H     0.26668   0.54298   0.40910   0.00000  Uiso   1.00
H806   H     0.26537   0.48692   0.39992   0.00000  Uiso   1.00
C807   C     0.50663   0.42164   0.50081   0.00000  Uiso   1.00
C808   C     0.50202   0.57957   0.49981   0.00000  Uiso   1.00
C809   C     0.40178   0.50332   0.48871   0.00000  Uiso   1.00
C810   C     0.59891   0.50300   0.51172   0.00000  Uiso   1.00
C811   C     0.34976   0.51749   0.48428   0.00000  Uiso   1.00
C812   C     0.65489   0.51015   0.51968   0.00000  Uiso   1.00
C813   C     0.52841   0.35774   0.46154   0.00000  Uiso   1.00
C814   C     0.50293   0.64680   0.54069   0.00000  Uiso   1.00
C815   C     0.52746   0.64777   0.46125   0.00000  Uiso   1.00
C816   C     0.51822   0.35527   0.54371   0.00000  Uiso   1.00
C817   C     0.50930   0.62514   0.49982   0.00000  Uiso   1.00
C818   C     0.51820   0.37797   0.50206   0.00000  Uiso   1.00
C819   C     0.46270   0.47694   0.35535   0.00000  Uiso   1.00
C820   C     0.53499   0.52429   0.64461   0.00000  Uiso   1.00
C821   C     0.46456   0.47443   0.63948   0.00000  Uiso   1.00
C822   C     0.54102   0.51769   0.36003   0.00000  Uiso   1.00
Cu823  Cu    0.50000   0.50001   0.54689   0.00000  Uiso   1.00
Cu824  Cu    0.50000   0.49999   0.45311   0.00000  Uiso   1.00
N825   N     0.50001   0.50001   0.61736   0.00000  Uiso   1.00
N826   N     0.49999   0.49999   0.38264   0.00000  Uiso   1.00
O827   O     0.50000   0.43989   0.53958   0.00000  Uiso   1.00
O828   O     0.50000   0.56011   0.46042   0.00000  Uiso   1.00
O829   O     0.50000   0.43988   0.46039   0.00000  Uiso   1.00
O830   O     0.50000   0.56012   0.53961   0.00000  Uiso   1.00
O831   O     0.42495   0.50000   0.53046   0.00000  Uiso   1.00
O832   O     0.57505   0.50000   0.46954   0.00000  Uiso   1.00
O833   O     0.42494   0.49999   0.45127   0.00000  Uiso   1.00
O834   O     0.57506   0.50001   0.54873   0.00000  Uiso   1.00
Cl835  Cl    0.34875   0.56783   0.46097   0.00000  Uiso   1.00
Cl836  Cl    0.34625   0.52878   0.57547   0.00000  Uiso   1.00
Cl837  Cl    0.54798   0.38622   0.41253   0.00000  Uiso   1.00
Cl838  Cl    0.47017   0.62485   0.58681   0.00000  Uiso   1.00
C839   C     0.54646   0.62743   0.41985   0.00000  Uiso   1.00
C840   C     0.50294   0.62092   0.38032   0.00000  Uiso   1.00
H841   H     0.46927   0.60204   0.39173   0.00000  Uiso   1.00
H842   H     0.48936   0.65092   0.36715   0.00000  Uiso   1.00
H843   H     0.51769   0.60503   0.35143   0.00000  Uiso   1.00
H844   H     0.57933   0.64614   0.40678   0.00000  Uiso   1.00
H845   H     0.56476   0.59867   0.42990   0.00000  Uiso   1.00
C846   C     0.54379   0.37257   0.58983   0.00000  Uiso   1.00
C847   C     0.60075   0.38668   0.58662   0.00000  Uiso   1.00
H848   H     0.62225   0.36072   0.57569   0.00000  Uiso   1.00
H849   H     0.60416   0.41252   0.56145   0.00000  Uiso   1.00
H850   H     0.61888   0.39751   0.62107   0.00000  Uiso   1.00
H851   H     0.52386   0.39845   0.60200   0.00000  Uiso   1.00
H852   H     0.54320   0.34890   0.61776   0.00000  Uiso   1.00
Cl853  Cl    0.41554   0.44548   0.38172   0.00000  Uiso   1.00
Cl854  Cl    0.57138   0.56473   0.61928   0.00000  Uiso   1.00
C855   C     0.42452   0.44443   0.61290   0.00000  Uiso   1.00
C856   C     0.42819   0.39895   0.62755   0.00000  Uiso   1.00
H857   H     0.39252   0.38741   0.64305   0.00000  Uiso   1.00
H858   H     0.43094   0.37949   0.59689   0.00000  Uiso   1.00
H859   H     0.46221   0.39441   0.65321   0.00000  Uiso   1.00
H860   H     0.38504   0.45379   0.61762   0.00000  Uiso   1.00
H861   H     0.42668   0.44502   0.57581   0.00000  Uiso   1.00
C862   C     0.59555   0.51791   0.38394   0.00000  Uiso   1.00
C863   C     0.64219   0.52112   0.35537   0.00000  Uiso   1.00
H864   H     0.34354   0.51101   0.37703   0.00000  Uiso   1.00
H865   H     0.63525   0.50057   0.65816   0.00000  Uiso   1.00
H866   H     0.65210   0.55348   0.34533   0.00000  Uiso   1.00
H867   H     0.60001   0.54298   0.40910   0.00000  Uiso   1.00
H868   H     0.59871   0.48692   0.39992   0.00000  Uiso   1.00
C869   C     0.83996   0.42164   0.50081   0.00000  Uiso   1.00
C870   C     0.83536   0.57957   0.49981   0.00000  Uiso   1.00
C871   C     0.73512   0.50332   0.48871   0.00000  Uiso   1.00
C872   C     0.93224   0.50300   0.51172   0.00000  Uiso   1.00
C873   C     0.68309   0.51749   0.48428   0.00000  Uiso   1.00
C874   C     0.98822   0.51015   0.51968   0.00000  Uiso   1.00
C875   C     0.86174   0.35774   0.46154   0.00000  Uiso   1.00
C876   C     0.83626   0.64680   0.54069   0.00000  Uiso   1.00
C877   C     0.86080   0.64777   0.46125   0.00000  Uiso   1.00
C878   C     0.85156   0.35527   0.54371   0.00000  Uiso   1.00
C879   C     0.84264   0.62514   0.49982   0.00000  Uiso   1.00
C880   C     0.85153   0.37797   0.50206   0.00000  Uiso   1.00
C881   C     0.79603   0.47694   0.35535   0.00000  Uiso   1.00
C882   C     0.86832   0.52429   0.64461   0.00000  Uiso   1.00
C883   C     0.79789   0.47443   0.63948   0.00000  Uiso   1.00
C884   C     0.87435   0.51769   0.36003   0.00000  Uiso   1.00
Cu885  Cu    0.83333   0.50001   0.54689   0.00000  Uiso   1.00
Cu886  Cu    0.83333   0.49999   0.45311   0.00000  Uiso   1.00
N887   N     0.83335   0.50001   0.61736   0.00000  Uiso   1.00
N888   N     0.83332   0.49999   0.38264   0.00000  Uiso   1.00
O889   O     0.83333   0.43989   0.53958   0.00000  Uiso   1.00
O890   O     0.83334   0.56011   0.46042   0.00000  Uiso   1.00
O891   O     0.83333   0.43988   0.46039   0.00000  Uiso   1.00
O892   O     0.83334   0.56012   0.53961   0.00000  Uiso   1.00
O893   O     0.75828   0.50000   0.53046   0.00000  Uiso   1.00
O894   O     0.90839   0.50000   0.46954   0.00000  Uiso   1.00
O895   O     0.75828   0.49999   0.45127   0.00000  Uiso   1.00
O896   O     0.90839   0.50001   0.54873   0.00000  Uiso   1.00
Cl897  Cl    0.68209   0.56783   0.46097   0.00000  Uiso   1.00
Cl898  Cl    0.67958   0.52878   0.57547   0.00000  Uiso   1.00
Cl899  Cl    0.88131   0.38622   0.41253   0.00000  Uiso   1.00
Cl900  Cl    0.80350   0.62485   0.58681   0.00000  Uiso   1.00
C901   C     0.87979   0.62743   0.41985   0.00000  Uiso   1.00
C902   C     0.83627   0.62092   0.38032   0.00000  Uiso   1.00
H903   H     0.80261   0.60204   0.39173   0.00000  Uiso   1.00
H904   H     0.82270   0.65092   0.36715   0.00000  Uiso   1.00
H905   H     0.85102   0.60503   0.35143   0.00000  Uiso   1.00
H906   H     0.91266   0.64614   0.40678   0.00000  Uiso   1.00
H907   H     0.89809   0.59867   0.42990   0.00000  Uiso   1.00
C908   C     0.87713   0.37257   0.58983   0.00000  Uiso   1.00
C909   C     0.93409   0.38668   0.58662   0.00000  Uiso   1.00
H910   H     0.95559   0.36072   0.57569   0.00000  Uiso   1.00
H911   H     0.93749   0.41252   0.56145   0.00000  Uiso   1.00
H912   H     0.95222   0.39751   0.62107   0.00000  Uiso   1.00
H913   H     0.85719   0.39845   0.60200   0.00000  Uiso   1.00
H914   H     0.87653   0.34890   0.61776   0.00000  Uiso   1.00
Cl915  Cl    0.74888   0.44548   0.38172   0.00000  Uiso   1.00
Cl916  Cl    0.90472   0.56473   0.61928   0.00000  Uiso   1.00
C917   C     0.75786   0.44443   0.61290   0.00000  Uiso   1.00
C918   C     0.76153   0.39895   0.62755   0.00000  Uiso   1.00
H919   H     0.72585   0.38741   0.64305   0.00000  Uiso   1.00
H920   H     0.76428   0.37949   0.59689   0.00000  Uiso   1.00
H921   H     0.79554   0.39441   0.65321   0.00000  Uiso   1.00
H922   H     0.71838   0.45379   0.61762   0.00000  Uiso   1.00
H923   H     0.76001   0.44502   0.57581   0.00000  Uiso   1.00
C924   C     0.92888   0.51791   0.38394   0.00000  Uiso   1.00
C925   C     0.97552   0.52112   0.35537   0.00000  Uiso   1.00
H926   H     0.67688   0.51101   0.37703   0.00000  Uiso   1.00
H927   H     0.96859   0.50057   0.65816   0.00000  Uiso   1.00
H928   H     0.98544   0.55348   0.34533   0.00000  Uiso   1.00
H929   H     0.93334   0.54298   0.40910   0.00000  Uiso   1.00
H930   H     0.93204   0.48692   0.39992   0.00000  Uiso   1.00
C931   C     0.17330   0.75497   0.50081   0.00000  Uiso   1.00
C932   C     0.16869   0.91291   0.49981   0.00000  Uiso   1.00
C933   C     0.06845   0.83666   0.48871   0.00000  Uiso   1.00
C934   C     0.26558   0.83634   0.51172   0.00000  Uiso   1.00
C935   C     0.01643   0.85082   0.48428   0.00000  Uiso   1.00
C936   C     0.32155   0.84348   0.51968   0.00000  Uiso   1.00
C937   C     0.19507   0.69107   0.46154   0.00000  Uiso   1.00
C938   C     0.16960   0.98014   0.54069   0.00000  Uiso   1.00
C939   C     0.19413   0.98110   0.46125   0.00000  Uiso   1.00
C940   C     0.18489   0.68860   0.54371   0.00000  Uiso   1.00
C941   C     0.17597   0.95847   0.49982   0.00000  Uiso   1.00
C942   C     0.18487   0.71130   0.50206   0.00000  Uiso   1.00
C943   C     0.12936   0.81027   0.35535   0.00000  Uiso   1.00
C944   C     0.20165   0.85762   0.64461   0.00000  Uiso   1.00
C945   C     0.13123   0.80776   0.63948   0.00000  Uiso   1.00
C946   C     0.20768   0.85103   0.36003   0.00000  Uiso   1.00
Cu947  Cu    0.16667   0.83334   0.54689   0.00000  Uiso   1.00
Cu948  Cu    0.16667   0.83333   0.45311   0.00000  Uiso   1.00
N949   N     0.16668   0.83334   0.61736   0.00000  Uiso   1.00
N950   N     0.16665   0.83332   0.38264   0.00000  Uiso   1.00
O951   O     0.16666   0.77322   0.53958   0.00000  Uiso   1.00
O952   O     0.16667   0.89345   0.46042   0.00000  Uiso   1.00
O953   O     0.16666   0.77321   0.46039   0.00000  Uiso   1.00
O954   O     0.16667   0.89346   0.53961   0.00000  Uiso   1.00
O955   O     0.09161   0.83334   0.53046   0.00000  Uiso   1.00
O956   O     0.24172   0.83333   0.46954   0.00000  Uiso   1.00
O957   O     0.09161   0.83333   0.45127   0.00000  Uiso   1.00
O958   O     0.24172   0.83334   0.54873   0.00000  Uiso   1.00
Cl959  Cl    0.01542   0.90116   0.46097   0.00000  Uiso   1.00
Cl960  Cl    0.01292   0.86212   0.57547   0.00000  Uiso   1.00
Cl961  Cl    0.21465   0.71955   0.41253   0.00000  Uiso   1.00
Cl962  Cl    0.13684   0.95819   0.58681   0.00000  Uiso   1.00
C963   C     0.21313   0.96076   0.41985   0.00000  Uiso   1.00
C964   C     0.16961   0.95425   0.38032   0.00000  Uiso   1.00
H965   H     0.13594   0.93538   0.39173   0.00000  Uiso   1.00
H966   H     0.15603   0.98426   0.36715   0.00000  Uiso   1.00
H967   H     0.18435   0.93836   0.35143   0.00000  Uiso   1.00
H968   H     0.24599   0.97948   0.40678   0.00000  Uiso   1.00
H969   H     0.23143   0.93201   0.42990   0.00000  Uiso   1.00
C970   C     0.21046   0.70590   0.58983   0.00000  Uiso   1.00
C971   C     0.26742   0.72001   0.58662   0.00000  Uiso   1.00
H972   H     0.28892   0.69406   0.57569   0.00000  Uiso   1.00
H973   H     0.27082   0.74585   0.56145   0.00000  Uiso   1.00
H974   H     0.28555   0.73084   0.62107   0.00000  Uiso   1.00
H975   H     0.19052   0.73178   0.60200   0.00000  Uiso   1.00
H976   H     0.20986   0.68223   0.61776   0.00000  Uiso   1.00
Cl977  Cl    0.08221   0.77881   0.38172   0.00000  Uiso   1.00
Cl978  Cl    0.23805   0.89807   0.61928   0.00000  Uiso   1.00
C979   C     0.09119   0.77777   0.61290   0.00000  Uiso   1.00
C980   C     0.09486   0.73229   0.62755   0.00000  Uiso   1.00
H981   H     0.05918   0.72074   0.64305   0.00000  Uiso   1.00
H982   H     0.09761   0.71282   0.59689   0.00000  Uiso   1.00
H983   H     0.12887   0.72774   0.65321   0.00000  Uiso   1.00
H984   H     0.05171   0.78712   0.61762   0.00000  Uiso   1.00
H985   H     0.09334   0.77835   0.57581   0.00000  Uiso   1.00
C986   C     0.26222   0.85125   0.38394   0.00000  Uiso   1.00
C987   C     0.30885   0.85445   0.35537   0.00000  Uiso   1.00
H988   H     0.01021   0.84434   0.37703   0.00000  Uiso   1.00
H989   H     0.30192   0.83390   0.65816   0.00000  Uiso   1.00
H990   H     0.31877   0.88681   0.34533   0.00000  Uiso   1.00
H991   H     0.26668   0.87631   0.40910   0.00000  Uiso   1.00
H992   H     0.26537   0.82025   0.39992   0.00000  Uiso   1.00
C993   C     0.50663   0.75497   0.50081   0.00000  Uiso   1.00
C994   C     0.50202   0.91291   0.49981   0.00000  Uiso   1.00
C995   C     0.40178   0.83666   0.48871   0.00000  Uiso   1.00
C996   C     0.59891   0.83634   0.51172   0.00000  Uiso   1.00
C997   C     0.34976   0.85082   0.48428   0.00000  Uiso   1.00
C998   C     0.65489   0.84348   0.51968   0.00000  Uiso   1.00
C999   C     0.52841   0.69107   0.46154   0.00000  Uiso   1.00
C1000  C     0.50293   0.98014   0.54069   0.00000  Uiso   1.00
C1001  C     0.52746   0.98110   0.46125   0.00000  Uiso   1.00
C1002  C     0.51822   0.68860   0.54371   0.00000  Uiso   1.00
C1003  C     0.50930   0.95847   0.49982   0.00000  Uiso   1.00
C1004  C     0.51820   0.71130   0.50206   0.00000  Uiso   1.00
C1005  C     0.46270   0.81027   0.35535   0.00000  Uiso   1.00
C1006  C     0.53499   0.85762   0.64461   0.00000  Uiso   1.00
C1007  C     0.46456   0.80776   0.63948   0.00000  Uiso   1.00
C1008  C     0.54102   0.85103   0.36003   0.00000  Uiso   1.00
Cu1009 Cu    0.50000   0.83334   0.54689   0.00000  Uiso   1.00
Cu1010 Cu    0.50000   0.83333   0.45311   0.00000  Uiso   1.00
N1011  N     0.50001   0.83334   0.61736   0.00000  Uiso   1.00
N1012  N     0.49999   0.83332   0.38264   0.00000  Uiso   1.00
O1013  O     0.50000   0.77322   0.53958   0.00000  Uiso   1.00
O1014  O     0.50000   0.89345   0.46042   0.00000  Uiso   1.00
O1015  O     0.50000   0.77321   0.46039   0.00000  Uiso   1.00
O1016  O     0.50000   0.89346   0.53961   0.00000  Uiso   1.00
O1017  O     0.42495   0.83334   0.53046   0.00000  Uiso   1.00
O1018  O     0.57505   0.83333   0.46954   0.00000  Uiso   1.00
O1019  O     0.42494   0.83333   0.45127   0.00000  Uiso   1.00
O1020  O     0.57506   0.83334   0.54873   0.00000  Uiso   1.00
Cl1021 Cl    0.34875   0.90116   0.46097   0.00000  Uiso   1.00
Cl1022 Cl    0.34625   0.86212   0.57547   0.00000  Uiso   1.00
Cl1023 Cl    0.54798   0.71955   0.41253   0.00000  Uiso   1.00
Cl1024 Cl    0.47017   0.95819   0.58681   0.00000  Uiso   1.00
C1025  C     0.54646   0.96076   0.41985   0.00000  Uiso   1.00
C1026  C     0.50294   0.95425   0.38032   0.00000  Uiso   1.00
H1027  H     0.46927   0.93538   0.39173   0.00000  Uiso   1.00
H1028  H     0.48936   0.98426   0.36715   0.00000  Uiso   1.00
H1029  H     0.51769   0.93836   0.35143   0.00000  Uiso   1.00
H1030  H     0.57933   0.97948   0.40678   0.00000  Uiso   1.00
H1031  H     0.56476   0.93201   0.42990   0.00000  Uiso   1.00
C1032  C     0.54379   0.70590   0.58983   0.00000  Uiso   1.00
C1033  C     0.60075   0.72001   0.58662   0.00000  Uiso   1.00
H1034  H     0.62225   0.69406   0.57569   0.00000  Uiso   1.00
H1035  H     0.60416   0.74585   0.56145   0.00000  Uiso   1.00
H1036  H     0.61888   0.73084   0.62107   0.00000  Uiso   1.00
H1037  H     0.52386   0.73178   0.60200   0.00000  Uiso   1.00
H1038  H     0.54320   0.68223   0.61776   0.00000  Uiso   1.00
Cl1039 Cl    0.41554   0.77881   0.38172   0.00000  Uiso   1.00
Cl1040 Cl    0.57138   0.89807   0.61928   0.00000  Uiso   1.00
C1041  C     0.42452   0.77777   0.61290   0.00000  Uiso   1.00
C1042  C     0.42819   0.73229   0.62755   0.00000  Uiso   1.00
H1043  H     0.39252   0.72074   0.64305   0.00000  Uiso   1.00
H1044  H     0.43094   0.71282   0.59689   0.00000  Uiso   1.00
H1045  H     0.46221   0.72774   0.65321   0.00000  Uiso   1.00
H1046  H     0.38504   0.78712   0.61762   0.00000  Uiso   1.00
H1047  H     0.42668   0.77835   0.57581   0.00000  Uiso   1.00
C1048  C     0.59555   0.85125   0.38394   0.00000  Uiso   1.00
C1049  C     0.64219   0.85445   0.35537   0.00000  Uiso   1.00
H1050  H     0.34354   0.84434   0.37703   0.00000  Uiso   1.00
H1051  H     0.63525   0.83390   0.65816   0.00000  Uiso   1.00
H1052  H     0.65210   0.88681   0.34533   0.00000  Uiso   1.00
H1053  H     0.60001   0.87631   0.40910   0.00000  Uiso   1.00
H1054  H     0.59871   0.82025   0.39992   0.00000  Uiso   1.00
C1055  C     0.83996   0.75497   0.50081   0.00000  Uiso   1.00
C1056  C     0.83536   0.91291   0.49981   0.00000  Uiso   1.00
C1057  C     0.73512   0.83666   0.48871   0.00000  Uiso   1.00
C1058  C     0.93224   0.83634   0.51172   0.00000  Uiso   1.00
C1059  C     0.68309   0.85082   0.48428   0.00000  Uiso   1.00
C1060  C     0.98822   0.84348   0.51968   0.00000  Uiso   1.00
C1061  C     0.86174   0.69107   0.46154   0.00000  Uiso   1.00
C1062  C     0.83626   0.98014   0.54069   0.00000  Uiso   1.00
C1063  C     0.86080   0.98110   0.46125   0.00000  Uiso   1.00
C1064  C     0.85156   0.68860   0.54371   0.00000  Uiso   1.00
C1065  C     0.84264   0.95847   0.49982   0.00000  Uiso   1.00
C1066  C     0.85153   0.71130   0.50206   0.00000  Uiso   1.00
C1067  C     0.79603   0.81027   0.35535   0.00000  Uiso   1.00
C1068  C     0.86832   0.85762   0.64461   0.00000  Uiso   1.00
C1069  C     0.79789   0.80776   0.63948   0.00000  Uiso   1.00
C1070  C     0.87435   0.85103   0.36003   0.00000  Uiso   1.00
Cu1071 Cu    0.83333   0.83334   0.54689   0.00000  Uiso   1.00
Cu1072 Cu    0.83333   0.83333   0.45311   0.00000  Uiso   1.00
N1073  N     0.83335   0.83334   0.61736   0.00000  Uiso   1.00
N1074  N     0.83332   0.83332   0.38264   0.00000  Uiso   1.00
O1075  O     0.83333   0.77322   0.53958   0.00000  Uiso   1.00
O1076  O     0.83334   0.89345   0.46042   0.00000  Uiso   1.00
O1077  O     0.83333   0.77321   0.46039   0.00000  Uiso   1.00
O1078  O     0.83334   0.89346   0.53961   0.00000  Uiso   1.00
O1079  O     0.75828   0.83334   0.53046   0.00000  Uiso   1.00
O1080  O     0.90839   0.83333   0.46954   0.00000  Uiso   1.00
O1081  O     0.75828   0.83333   0.45127   0.00000  Uiso   1.00
O1082  O     0.90839   0.83334   0.54873   0.00000  Uiso   1.00
Cl1083 Cl    0.68209   0.90116   0.46097   0.00000  Uiso   1.00
Cl1084 Cl    0.67958   0.86212   0.57547   0.00000  Uiso   1.00
Cl1085 Cl    0.88131   0.71955   0.41253   0.00000  Uiso   1.00
Cl1086 Cl    0.80350   0.95819   0.58681   0.00000  Uiso   1.00
C1087  C     0.87979   0.96076   0.41985   0.00000  Uiso   1.00
C1088  C     0.83627   0.95425   0.38032   0.00000  Uiso   1.00
H1089  H     0.80261   0.93538   0.39173   0.00000  Uiso   1.00
H1090  H     0.82270   0.98426   0.36715   0.00000  Uiso   1.00
H1091  H     0.85102   0.93836   0.35143   0.00000  Uiso   1.00
H1092  H     0.91266   0.97948   0.40678   0.00000  Uiso   1.00
H1093  H     0.89809   0.93201   0.42990   0.00000  Uiso   1.00
C1094  C     0.87713   0.70590   0.58983   0.00000  Uiso   1.00
C1095  C     0.93409   0.72001   0.58662   0.00000  Uiso   1.00
H1096  H     0.95559   0.69406   0.57569   0.00000  Uiso   1.00
H1097  H     0.93749   0.74585   0.56145   0.00000  Uiso   1.00
H1098  H     0.95222   0.73084   0.62107   0.00000  Uiso   1.00
H1099  H     0.85719   0.73178   0.60200   0.00000  Uiso   1.00
H1100  H     0.87653   0.68223   0.61776   0.00000  Uiso   1.00
Cl1101 Cl    0.74888   0.77881   0.38172   0.00000  Uiso   1.00
Cl1102 Cl    0.90472   0.89807   0.61928   0.00000  Uiso   1.00
C1103  C     0.75786   0.77777   0.61290   0.00000  Uiso   1.00
C1104  C     0.76153   0.73229   0.62755   0.00000  Uiso   1.00
H1105  H     0.72585   0.72074   0.64305   0.00000  Uiso   1.00
H1106  H     0.76428   0.71282   0.59689   0.00000  Uiso   1.00
H1107  H     0.79554   0.72774   0.65321   0.00000  Uiso   1.00
H1108  H     0.71838   0.78712   0.61762   0.00000  Uiso   1.00
H1109  H     0.76001   0.77835   0.57581   0.00000  Uiso   1.00
C1110  C     0.92888   0.85125   0.38394   0.00000  Uiso   1.00
C1111  C     0.97552   0.85445   0.35537   0.00000  Uiso   1.00
H1112  H     0.67688   0.84434   0.37703   0.00000  Uiso   1.00
H1113  H     0.96859   0.83390   0.65816   0.00000  Uiso   1.00
H1114  H     0.98544   0.88681   0.34533   0.00000  Uiso   1.00
H1115  H     0.93334   0.87631   0.40910   0.00000  Uiso   1.00
H1116  H     0.93204   0.82025   0.39992   0.00000  Uiso   1.00
C1117  C     0.17330   0.08831   0.83415   0.00000  Uiso   1.00
C1118  C     0.16869   0.24624   0.83315   0.00000  Uiso   1.00
C1119  C     0.06845   0.16999   0.82204   0.00000  Uiso   1.00
C1120  C     0.26558   0.16967   0.84505   0.00000  Uiso   1.00
C1121  C     0.01643   0.18416   0.81761   0.00000  Uiso   1.00
C1122  C     0.32155   0.17681   0.85301   0.00000  Uiso   1.00
C1123  C     0.19507   0.02440   0.79487   0.00000  Uiso   1.00
C1124  C     0.16960   0.31347   0.87402   0.00000  Uiso   1.00
C1125  C     0.19413   0.31444   0.79458   0.00000  Uiso   1.00
C1126  C     0.18489   0.02193   0.87704   0.00000  Uiso   1.00
C1127  C     0.17597   0.29180   0.83315   0.00000  Uiso   1.00
C1128  C     0.18487   0.04464   0.83539   0.00000  Uiso   1.00
C1129  C     0.12936   0.14361   0.68868   0.00000  Uiso   1.00
C1130  C     0.20165   0.19096   0.97795   0.00000  Uiso   1.00
C1131  C     0.13123   0.14109   0.97281   0.00000  Uiso   1.00
C1132  C     0.20768   0.18436   0.69337   0.00000  Uiso   1.00
Cu1133 Cu    0.16667   0.16667   0.88022   0.00000  Uiso   1.00
Cu1134 Cu    0.16667   0.16666   0.78645   0.00000  Uiso   1.00
N1135  N     0.16668   0.16668   0.95069   0.00000  Uiso   1.00
N1136  N     0.16665   0.16666   0.71597   0.00000  Uiso   1.00
O1137  O     0.16666   0.10655   0.87291   0.00000  Uiso   1.00
O1138  O     0.16667   0.22678   0.79375   0.00000  Uiso   1.00
O1139  O     0.16666   0.10654   0.79372   0.00000  Uiso   1.00
O1140  O     0.16667   0.22679   0.87294   0.00000  Uiso   1.00
O1141  O     0.09161   0.16667   0.86379   0.00000  Uiso   1.00
O1142  O     0.24172   0.16666   0.80288   0.00000  Uiso   1.00
O1143  O     0.09161   0.16666   0.78460   0.00000  Uiso   1.00
O1144  O     0.24172   0.16667   0.88207   0.00000  Uiso   1.00
Cl1145 Cl    0.01542   0.23450   0.79431   0.00000  Uiso   1.00
Cl1146 Cl    0.01292   0.19545   0.90880   0.00000  Uiso   1.00
Cl1147 Cl    0.21465   0.05288   0.74586   0.00000  Uiso   1.00
Cl1148 Cl    0.13684   0.29152   0.92015   0.00000  Uiso   1.00
C1149  C     0.21313   0.29410   0.75318   0.00000  Uiso   1.00
C1150  C     0.16961   0.28758   0.71365   0.00000  Uiso   1.00
H1151  H     0.13594   0.26871   0.72506   0.00000  Uiso   1.00
H1152  H     0.15603   0.31759   0.70049   0.00000  Uiso   1.00
H1153  H     0.18435   0.27169   0.68476   0.00000  Uiso   1.00
H1154  H     0.24599   0.31281   0.74011   0.00000  Uiso   1.00
H1155  H     0.23143   0.26534   0.76323   0.00000  Uiso   1.00
C1156  C     0.21046   0.03924   0.92316   0.00000  Uiso   1.00
C1157  C     0.26742   0.05334   0.91995   0.00000  Uiso   1.00
H1158  H     0.28892   0.02739   0.90903   0.00000  Uiso   1.00
H1159  H     0.27082   0.07918   0.89478   0.00000  Uiso   1.00
H1160  H     0.28555   0.06417   0.95440   0.00000  Uiso   1.00
H1161  H     0.19052   0.06512   0.93533   0.00000  Uiso   1.00
H1162  H     0.20986   0.01557   0.95110   0.00000  Uiso   1.00
Cl1163 Cl    0.08221   0.11214   0.71506   0.00000  Uiso   1.00
Cl1164 Cl    0.23805   0.23140   0.95261   0.00000  Uiso   1.00
C1165  C     0.09119   0.11110   0.94623   0.00000  Uiso   1.00
C1166  C     0.09486   0.06562   0.96088   0.00000  Uiso   1.00
H1167  H     0.05918   0.05408   0.97639   0.00000  Uiso   1.00
H1168  H     0.09761   0.04615   0.93022   0.00000  Uiso   1.00
H1169  H     0.12887   0.06107   0.98654   0.00000  Uiso   1.00
H1170  H     0.05171   0.12046   0.95096   0.00000  Uiso   1.00
H1171  H     0.09334   0.11169   0.90915   0.00000  Uiso   1.00
C1172  C     0.26222   0.18458   0.71727   0.00000  Uiso   1.00
C1173  C     0.30885   0.18778   0.68871   0.00000  Uiso   1.00
H1174  H     0.01021   0.17767   0.71036   0.00000  Uiso   1.00
H1175  H     0.30192   0.16724   0.99150   0.00000  Uiso   1.00
H1176  H     0.31877   0.22014   0.67867   0.00000  Uiso   1.00
H1177  H     0.26668   0.20965   0.74243   0.00000  Uiso   1.00
H1178  H     0.26537   0.15358   0.73325   0.00000  Uiso   1.00
C1179  C     0.50663   0.08831   0.83415   0.00000  Uiso   1.00
C1180  C     0.50202   0.24624   0.83315   0.00000  Uiso   1.00
C1181  C     0.40178   0.16999   0.82204   0.00000  Uiso   1.00
C1182  C     0.59891   0.16967   0.84505   0.00000  Uiso   1.00
C1183  C     0.34976   0.18416   0.81761   0.00000  Uiso   1.00
C1184  C     0.65489   0.17681   0.85301   0.00000  Uiso   1.00
C1185  C     0.52841   0.02440   0.79487   0.00000  Uiso   1.00
C1186  C     0.50293   0.31347   0.87402   0.00000  Uiso   1.00
C1187  C     0.52746   0.31444   0.79458   0.00000  Uiso   1.00
C1188  C     0.51822   0.02193   0.87704   0.00000  Uiso   1.00
C1189  C     0.50930   0.29180   0.83315   0.00000  Uiso   1.00
C1190  C     0.51820   0.04464   0.83539   0.00000  Uiso   1.00
C1191  C     0.46270   0.14361   0.68868   0.00000  Uiso   1.00
C1192  C     0.53499   0.19096   0.97795   0.00000  Uiso   1.00
C1193  C     0.46456   0.14109   0.97281   0.00000  Uiso   1.00
C1194  C     0.54102   0.18436   0.69337   0.00000  Uiso   1.00
Cu1195 Cu    0.50000   0.16667   0.88022   0.00000  Uiso   1.00
Cu1196 Cu    0.50000   0.16666   0.78645   0.00000  Uiso   1.00
N1197  N     0.50001   0.16668   0.95069   0.00000  Uiso   1.00
N1198  N     0.49999   0.16666   0.71597   0.00000  Uiso   1.00
O1199  O     0.50000   0.10655   0.87291   0.00000  Uiso   1.00
O1200  O     0.50000   0.22678   0.79375   0.00000  Uiso   1.00
O1201  O     0.50000   0.10654   0.79372   0.00000  Uiso   1.00
O1202  O     0.50000   0.22679   0.87294   0.00000  Uiso   1.00
O1203  O     0.42495   0.16667   0.86379   0.00000  Uiso   1.00
O1204  O     0.57505   0.16666   0.80288   0.00000  Uiso   1.00
O1205  O     0.42494   0.16666   0.78460   0.00000  Uiso   1.00
O1206  O     0.57506   0.16667   0.88207   0.00000  Uiso   1.00
Cl1207 Cl    0.34875   0.23450   0.79431   0.00000  Uiso   1.00
Cl1208 Cl    0.34625   0.19545   0.90880   0.00000  Uiso   1.00
Cl1209 Cl    0.54798   0.05288   0.74586   0.00000  Uiso   1.00
Cl1210 Cl    0.47017   0.29152   0.92015   0.00000  Uiso   1.00
C1211  C     0.54646   0.29410   0.75318   0.00000  Uiso   1.00
C1212  C     0.50294   0.28758   0.71365   0.00000  Uiso   1.00
H1213  H     0.46927   0.26871   0.72506   0.00000  Uiso   1.00
H1214  H     0.48936   0.31759   0.70049   0.00000  Uiso   1.00
H1215  H     0.51769   0.27169   0.68476   0.00000  Uiso   1.00
H1216  H     0.57933   0.31281   0.74011   0.00000  Uiso   1.00
H1217  H     0.56476   0.26534   0.76323   0.00000  Uiso   1.00
C1218  C     0.54379   0.03924   0.92316   0.00000  Uiso   1.00
C1219  C     0.60075   0.05334   0.91995   0.00000  Uiso   1.00
H1220  H     0.62225   0.02739   0.90903   0.00000  Uiso   1.00
H1221  H     0.60416   0.07918   0.89478   0.00000  Uiso   1.00
H1222  H     0.61888   0.06417   0.95440   0.00000  Uiso   1.00
H1223  H     0.52386   0.06512   0.93533   0.00000  Uiso   1.00
H1224  H     0.54320   0.01557   0.95110   0.00000  Uiso   1.00
Cl1225 Cl    0.41554   0.11214   0.71506   0.00000  Uiso   1.00
Cl1226 Cl    0.57138   0.23140   0.95261   0.00000  Uiso   1.00
C1227  C     0.42452   0.11110   0.94623   0.00000  Uiso   1.00
C1228  C     0.42819   0.06562   0.96088   0.00000  Uiso   1.00
H1229  H     0.39252   0.05408   0.97639   0.00000  Uiso   1.00
H1230  H     0.43094   0.04615   0.93022   0.00000  Uiso   1.00
H1231  H     0.46221   0.06107   0.98654   0.00000  Uiso   1.00
H1232  H     0.38504   0.12046   0.95096   0.00000  Uiso   1.00
H1233  H     0.42668   0.11169   0.90915   0.00000  Uiso   1.00
C1234  C     0.59555   0.18458   0.71727   0.00000  Uiso   1.00
C1235  C     0.64219   0.18778   0.68871   0.00000  Uiso   1.00
H1236  H     0.34354   0.17767   0.71036   0.00000  Uiso   1.00
H1237  H     0.63525   0.16724   0.99150   0.00000  Uiso   1.00
H1238  H     0.65210   0.22014   0.67867   0.00000  Uiso   1.00
H1239  H     0.60001   0.20965   0.74243   0.00000  Uiso   1.00
H1240  H     0.59871   0.15358   0.73325   0.00000  Uiso   1.00
C1241  C     0.83996   0.08831   0.83415   0.00000  Uiso   1.00
C1242  C     0.83536   0.24624   0.83315   0.00000  Uiso   1.00
C1243  C     0.73512   0.16999   0.82204   0.00000  Uiso   1.00
C1244  C     0.93224   0.16967   0.84505   0.00000  Uiso   1.00
C1245  C     0.68309   0.18416   0.81761   0.00000  Uiso   1.00
C1246  C     0.98822   0.17681   0.85301   0.00000  Uiso   1.00
C1247  C     0.86174   0.02440   0.79487   0.00000  Uiso   1.00
C1248  C     0.83626   0.31347   0.87402   0.00000  Uiso   1.00
C1249  C     0.86080   0.31444   0.79458   0.00000  Uiso   1.00
C1250  C     0.85156   0.02193   0.87704   0.00000  Uiso   1.00
C1251  C     0.84264   0.29180   0.83315   0.00000  Uiso   1.00
C1252  C     0.85153   0.04464   0.83539   0.00000  Uiso   1.00
C1253  C     0.79603   0.14361   0.68868   0.00000  Uiso   1.00
C1254  C     0.86832   0.19096   0.97795   0.00000  Uiso   1.00
C1255  C     0.79789   0.14109   0.97281   0.00000  Uiso   1.00
C1256  C     0.87435   0.18436   0.69337   0.00000  Uiso   1.00
Cu1257 Cu    0.83333   0.16667   0.88022   0.00000  Uiso   1.00
Cu1258 Cu    0.83333   0.16666   0.78645   0.00000  Uiso   1.00
N1259  N     0.83335   0.16668   0.95069   0.00000  Uiso   1.00
N1260  N     0.83332   0.16666   0.71597   0.00000  Uiso   1.00
O1261  O     0.83333   0.10655   0.87291   0.00000  Uiso   1.00
O1262  O     0.83334   0.22678   0.79375   0.00000  Uiso   1.00
O1263  O     0.83333   0.10654   0.79372   0.00000  Uiso   1.00
O1264  O     0.83334   0.22679   0.87294   0.00000  Uiso   1.00
O1265  O     0.75828   0.16667   0.86379   0.00000  Uiso   1.00
O1266  O     0.90839   0.16666   0.80288   0.00000  Uiso   1.00
O1267  O     0.75828   0.16666   0.78460   0.00000  Uiso   1.00
O1268  O     0.90839   0.16667   0.88207   0.00000  Uiso   1.00
Cl1269 Cl    0.68209   0.23450   0.79431   0.00000  Uiso   1.00
Cl1270 Cl    0.67958   0.19545   0.90880   0.00000  Uiso   1.00
Cl1271 Cl    0.88131   0.05288   0.74586   0.00000  Uiso   1.00
Cl1272 Cl    0.80350   0.29152   0.92015   0.00000  Uiso   1.00
C1273  C     0.87979   0.29410   0.75318   0.00000  Uiso   1.00
C1274  C     0.83627   0.28758   0.71365   0.00000  Uiso   1.00
H1275  H     0.80261   0.26871   0.72506   0.00000  Uiso   1.00
H1276  H     0.82270   0.31759   0.70049   0.00000  Uiso   1.00
H1277  H     0.85102   0.27169   0.68476   0.00000  Uiso   1.00
H1278  H     0.91266   0.31281   0.74011   0.00000  Uiso   1.00
H1279  H     0.89809   0.26534   0.76323   0.00000  Uiso   1.00
C1280  C     0.87713   0.03924   0.92316   0.00000  Uiso   1.00
C1281  C     0.93409   0.05334   0.91995   0.00000  Uiso   1.00
H1282  H     0.95559   0.02739   0.90903   0.00000  Uiso   1.00
H1283  H     0.93749   0.07918   0.89478   0.00000  Uiso   1.00
H1284  H     0.95222   0.06417   0.95440   0.00000  Uiso   1.00
H1285  H     0.85719   0.06512   0.93533   0.00000  Uiso   1.00
H1286  H     0.87653   0.01557   0.95110   0.00000  Uiso   1.00
Cl1287 Cl    0.74888   0.11214   0.71506   0.00000  Uiso   1.00
Cl1288 Cl    0.90472   0.23140   0.95261   0.00000  Uiso   1.00
C1289  C     0.75786   0.11110   0.94623   0.00000  Uiso   1.00
C1290  C     0.76153   0.06562   0.96088   0.00000  Uiso   1.00
H1291  H     0.72585   0.05408   0.97639   0.00000  Uiso   1.00
H1292  H     0.76428   0.04615   0.93022   0.00000  Uiso   1.00
H1293  H     0.79554   0.06107   0.98654   0.00000  Uiso   1.00
H1294  H     0.71838   0.12046   0.95096   0.00000  Uiso   1.00
H1295  H     0.76001   0.11169   0.90915   0.00000  Uiso   1.00
C1296  C     0.92888   0.18458   0.71727   0.00000  Uiso   1.00
C1297  C     0.97552   0.18778   0.68871   0.00000  Uiso   1.00
H1298  H     0.67688   0.17767   0.71036   0.00000  Uiso   1.00
H1299  H     0.96859   0.16724   0.99150   0.00000  Uiso   1.00
H1300  H     0.98544   0.22014   0.67867   0.00000  Uiso   1.00
H1301  H     0.93334   0.20965   0.74243   0.00000  Uiso   1.00
H1302  H     0.93204   0.15358   0.73325   0.00000  Uiso   1.00
C1303  C     0.17330   0.42164   0.83415   0.00000  Uiso   1.00
C1304  C     0.16869   0.57957   0.83315   0.00000  Uiso   1.00
C1305  C     0.06845   0.50332   0.82204   0.00000  Uiso   1.00
C1306  C     0.26558   0.50300   0.84505   0.00000  Uiso   1.00
C1307  C     0.01643   0.51749   0.81761   0.00000  Uiso   1.00
C1308  C     0.32155   0.51015   0.85301   0.00000  Uiso   1.00
C1309  C     0.19507   0.35774   0.79487   0.00000  Uiso   1.00
C1310  C     0.16960   0.64680   0.87402   0.00000  Uiso   1.00
C1311  C     0.19413   0.64777   0.79458   0.00000  Uiso   1.00
C1312  C     0.18489   0.35527   0.87704   0.00000  Uiso   1.00
C1313  C     0.17597   0.62514   0.83315   0.00000  Uiso   1.00
C1314  C     0.18487   0.37797   0.83539   0.00000  Uiso   1.00
C1315  C     0.12936   0.47694   0.68868   0.00000  Uiso   1.00
C1316  C     0.20165   0.52429   0.97795   0.00000  Uiso   1.00
C1317  C     0.13123   0.47443   0.97281   0.00000  Uiso   1.00
C1318  C     0.20768   0.51769   0.69337   0.00000  Uiso   1.00
Cu1319 Cu    0.16667   0.50001   0.88022   0.00000  Uiso   1.00
Cu1320 Cu    0.16667   0.49999   0.78645   0.00000  Uiso   1.00
N1321  N     0.16668   0.50001   0.95069   0.00000  Uiso   1.00
N1322  N     0.16665   0.49999   0.71597   0.00000  Uiso   1.00
O1323  O     0.16666   0.43989   0.87291   0.00000  Uiso   1.00
O1324  O     0.16667   0.56011   0.79375   0.00000  Uiso   1.00
O1325  O     0.16666   0.43988   0.79372   0.00000  Uiso   1.00
O1326  O     0.16667   0.56012   0.87294   0.00000  Uiso   1.00
O1327  O     0.09161   0.50000   0.86379   0.00000  Uiso   1.00
O1328  O     0.24172   0.50000   0.80288   0.00000  Uiso   1.00
O1329  O     0.09161   0.49999   0.78460   0.00000  Uiso   1.00
O1330  O     0.24172   0.50001   0.88207   0.00000  Uiso   1.00
Cl1331 Cl    0.01542   0.56783   0.79431   0.00000  Uiso   1.00
Cl1332 Cl    0.01292   0.52878   0.90880   0.00000  Uiso   1.00
Cl1333 Cl    0.21465   0.38622   0.74586   0.00000  Uiso   1.00
Cl1334 Cl    0.13684   0.62485   0.92015   0.00000  Uiso   1.00
C1335  C     0.21313   0.62743   0.75318   0.00000  Uiso   1.00
C1336  C     0.16961   0.62092   0.71365   0.00000  Uiso   1.00
H1337  H     0.13594   0.60204   0.72506   0.00000  Uiso   1.00
H1338  H     0.15603   0.65092   0.70049   0.00000  Uiso   1.00
H1339  H     0.18435   0.60503   0.68476   0.00000  Uiso   1.00
H1340  H     0.24599   0.64614   0.74011   0.00000  Uiso   1.00
H1341  H     0.23143   0.59867   0.76323   0.00000  Uiso   1.00
C1342  C     0.21046   0.37257   0.92316   0.00000  Uiso   1.00
C1343  C     0.26742   0.38668   0.91995   0.00000  Uiso   1.00
H1344  H     0.28892   0.36072   0.90903   0.00000  Uiso   1.00
H1345  H     0.27082   0.41252   0.89478   0.00000  Uiso   1.00
H1346  H     0.28555   0.39751   0.95440   0.00000  Uiso   1.00
H1347  H     0.19052   0.39845   0.93533   0.00000  Uiso   1.00
H1348  H     0.20986   0.34890   0.95110   0.00000  Uiso   1.00
Cl1349 Cl    0.08221   0.44548   0.71506   0.00000  Uiso   1.00
Cl1350 Cl    0.23805   0.56473   0.95261   0.00000  Uiso   1.00
C1351  C     0.09119   0.44443   0.94623   0.00000  Uiso   1.00
C1352  C     0.09486   0.39895   0.96088   0.00000  Uiso   1.00
H1353  H     0.05918   0.38741   0.97639   0.00000  Uiso   1.00
H1354  H     0.09761   0.37949   0.93022   0.00000  Uiso   1.00
H1355  H     0.12887   0.39441   0.98654   0.00000  Uiso   1.00
H1356  H     0.05171   0.45379   0.95096   0.00000  Uiso   1.00
H1357  H     0.09334   0.44502   0.90915   0.00000  Uiso   1.00
C1358  C     0.26222   0.51791   0.71727   0.00000  Uiso   1.00
C1359  C     0.30885   0.52112   0.68871   0.00000  Uiso   1.00
H1360  H     0.01021   0.51101   0.71036   0.00000  Uiso   1.00
H1361  H     0.30192   0.50057   0.99150   0.00000  Uiso   1.00
H1362  H     0.31877   0.55348   0.67867   0.00000  Uiso   1.00
H1363  H     0.26668   0.54298   0.74243   0.00000  Uiso   1.00
H1364  H     0.26537   0.48692   0.73325   0.00000  Uiso   1.00
C1365  C     0.50663   0.42164   0.83415   0.00000  Uiso   1.00
C1366  C     0.50202   0.57957   0.83315   0.00000  Uiso   1.00
C1367  C     0.40178   0.50332   0.82204   0.00000  Uiso   1.00
C1368  C     0.59891   0.50300   0.84505   0.00000  Uiso   1.00
C1369  C     0.34976   0.51749   0.81761   0.00000  Uiso   1.00
C1370  C     0.65489   0.51015   0.85301   0.00000  Uiso   1.00
C1371  C     0.52841   0.35774   0.79487   0.00000  Uiso   1.00
C1372  C     0.50293   0.64680   0.87402   0.00000  Uiso   1.00
C1373  C     0.52746   0.64777   0.79458   0.00000  Uiso   1.00
C1374  C     0.51822   0.35527   0.87704   0.00000  Uiso   1.00
C1375  C     0.50930   0.62514   0.83315   0.00000  Uiso   1.00
C1376  C     0.51820   0.37797   0.83539   0.00000  Uiso   1.00
C1377  C     0.46270   0.47694   0.68868   0.00000  Uiso   1.00
C1378  C     0.53499   0.52429   0.97795   0.00000  Uiso   1.00
C1379  C     0.46456   0.47443   0.97281   0.00000  Uiso   1.00
C1380  C     0.54102   0.51769   0.69337   0.00000  Uiso   1.00
Cu1381 Cu    0.50000   0.50001   0.88022   0.00000  Uiso   1.00
Cu1382 Cu    0.50000   0.49999   0.78645   0.00000  Uiso   1.00
N1383  N     0.50001   0.50001   0.95069   0.00000  Uiso   1.00
N1384  N     0.49999   0.49999   0.71597   0.00000  Uiso   1.00
O1385  O     0.50000   0.43989   0.87291   0.00000  Uiso   1.00
O1386  O     0.50000   0.56011   0.79375   0.00000  Uiso   1.00
O1387  O     0.50000   0.43988   0.79372   0.00000  Uiso   1.00
O1388  O     0.50000   0.56012   0.87294   0.00000  Uiso   1.00
O1389  O     0.42495   0.50000   0.86379   0.00000  Uiso   1.00
O1390  O     0.57505   0.50000   0.80288   0.00000  Uiso   1.00
O1391  O     0.42494   0.49999   0.78460   0.00000  Uiso   1.00
O1392  O     0.57506   0.50001   0.88207   0.00000  Uiso   1.00
Cl1393 Cl    0.34875   0.56783   0.79431   0.00000  Uiso   1.00
Cl1394 Cl    0.34625   0.52878   0.90880   0.00000  Uiso   1.00
Cl1395 Cl    0.54798   0.38622   0.74586   0.00000  Uiso   1.00
Cl1396 Cl    0.47017   0.62485   0.92015   0.00000  Uiso   1.00
C1397  C     0.54646   0.62743   0.75318   0.00000  Uiso   1.00
C1398  C     0.50294   0.62092   0.71365   0.00000  Uiso   1.00
H1399  H     0.46927   0.60204   0.72506   0.00000  Uiso   1.00
H1400  H     0.48936   0.65092   0.70049   0.00000  Uiso   1.00
H1401  H     0.51769   0.60503   0.68476   0.00000  Uiso   1.00
H1402  H     0.57933   0.64614   0.74011   0.00000  Uiso   1.00
H1403  H     0.56476   0.59867   0.76323   0.00000  Uiso   1.00
C1404  C     0.54379   0.37257   0.92316   0.00000  Uiso   1.00
C1405  C     0.60075   0.38668   0.91995   0.00000  Uiso   1.00
H1406  H     0.62225   0.36072   0.90903   0.00000  Uiso   1.00
H1407  H     0.60416   0.41252   0.89478   0.00000  Uiso   1.00
H1408  H     0.61888   0.39751   0.95440   0.00000  Uiso   1.00
H1409  H     0.52386   0.39845   0.93533   0.00000  Uiso   1.00
H1410  H     0.54320   0.34890   0.95110   0.00000  Uiso   1.00
Cl1411 Cl    0.41554   0.44548   0.71506   0.00000  Uiso   1.00
Cl1412 Cl    0.57138   0.56473   0.95261   0.00000  Uiso   1.00
C1413  C     0.42452   0.44443   0.94623   0.00000  Uiso   1.00
C1414  C     0.42819   0.39895   0.96088   0.00000  Uiso   1.00
H1415  H     0.39252   0.38741   0.97639   0.00000  Uiso   1.00
H1416  H     0.43094   0.37949   0.93022   0.00000  Uiso   1.00
H1417  H     0.46221   0.39441   0.98654   0.00000  Uiso   1.00
H1418  H     0.38504   0.45379   0.95096   0.00000  Uiso   1.00
H1419  H     0.42668   0.44502   0.90915   0.00000  Uiso   1.00
C1420  C     0.59555   0.51791   0.71727   0.00000  Uiso   1.00
C1421  C     0.64219   0.52112   0.68871   0.00000  Uiso   1.00
H1422  H     0.34354   0.51101   0.71036   0.00000  Uiso   1.00
H1423  H     0.63525   0.50057   0.99150   0.00000  Uiso   1.00
H1424  H     0.65210   0.55348   0.67867   0.00000  Uiso   1.00
H1425  H     0.60001   0.54298   0.74243   0.00000  Uiso   1.00
H1426  H     0.59871   0.48692   0.73325   0.00000  Uiso   1.00
C1427  C     0.83996   0.42164   0.83415   0.00000  Uiso   1.00
C1428  C     0.83536   0.57957   0.83315   0.00000  Uiso   1.00
C1429  C     0.73512   0.50332   0.82204   0.00000  Uiso   1.00
C1430  C     0.93224   0.50300   0.84505   0.00000  Uiso   1.00
C1431  C     0.68309   0.51749   0.81761   0.00000  Uiso   1.00
C1432  C     0.98822   0.51015   0.85301   0.00000  Uiso   1.00
C1433  C     0.86174   0.35774   0.79487   0.00000  Uiso   1.00
C1434  C     0.83626   0.64680   0.87402   0.00000  Uiso   1.00
C1435  C     0.86080   0.64777   0.79458   0.00000  Uiso   1.00
C1436  C     0.85156   0.35527   0.87704   0.00000  Uiso   1.00
C1437  C     0.84264   0.62514   0.83315   0.00000  Uiso   1.00
C1438  C     0.85153   0.37797   0.83539   0.00000  Uiso   1.00
C1439  C     0.79603   0.47694   0.68868   0.00000  Uiso   1.00
C1440  C     0.86832   0.52429   0.97795   0.00000  Uiso   1.00
C1441  C     0.79789   0.47443   0.97281   0.00000  Uiso   1.00
C1442  C     0.87435   0.51769   0.69337   0.00000  Uiso   1.00
Cu1443 Cu    0.83333   0.50001   0.88022   0.00000  Uiso   1.00
Cu1444 Cu    0.83333   0.49999   0.78645   0.00000  Uiso   1.00
N1445  N     0.83335   0.50001   0.95069   0.00000  Uiso   1.00
N1446  N     0.83332   0.49999   0.71597   0.00000  Uiso   1.00
O1447  O     0.83333   0.43989   0.87291   0.00000  Uiso   1.00
O1448  O     0.83334   0.56011   0.79375   0.00000  Uiso   1.00
O1449  O     0.83333   0.43988   0.79372   0.00000  Uiso   1.00
O1450  O     0.83334   0.56012   0.87294   0.00000  Uiso   1.00
O1451  O     0.75828   0.50000   0.86379   0.00000  Uiso   1.00
O1452  O     0.90839   0.50000   0.80288   0.00000  Uiso   1.00
O1453  O     0.75828   0.49999   0.78460   0.00000  Uiso   1.00
O1454  O     0.90839   0.50001   0.88207   0.00000  Uiso   1.00
Cl1455 Cl    0.68209   0.56783   0.79431   0.00000  Uiso   1.00
Cl1456 Cl    0.67958   0.52878   0.90880   0.00000  Uiso   1.00
Cl1457 Cl    0.88131   0.38622   0.74586   0.00000  Uiso   1.00
Cl1458 Cl    0.80350   0.62485   0.92015   0.00000  Uiso   1.00
C1459  C     0.87979   0.62743   0.75318   0.00000  Uiso   1.00
C1460  C     0.83627   0.62092   0.71365   0.00000  Uiso   1.00
H1461  H     0.80261   0.60204   0.72506   0.00000  Uiso   1.00
H1462  H     0.82270   0.65092   0.70049   0.00000  Uiso   1.00
H1463  H     0.85102   0.60503   0.68476   0.00000  Uiso   1.00
H1464  H     0.91266   0.64614   0.74011   0.00000  Uiso   1.00
H1465  H     0.89809   0.59867   0.76323   0.00000  Uiso   1.00
C1466  C     0.87713   0.37257   0.92316   0.00000  Uiso   1.00
C1467  C     0.93409   0.38668   0.91995   0.00000  Uiso   1.00
H1468  H     0.95559   0.36072   0.90903   0.00000  Uiso   1.00
H1469  H     0.93749   0.41252   0.89478   0.00000  Uiso   1.00
H1470  H     0.95222   0.39751   0.95440   0.00000  Uiso   1.00
H1471  H     0.85719   0.39845   0.93533   0.00000  Uiso   1.00
H1472  H     0.87653   0.34890   0.95110   0.00000  Uiso   1.00
Cl1473 Cl    0.74888   0.44548   0.71506   0.00000  Uiso   1.00
Cl1474 Cl    0.90472   0.56473   0.95261   0.00000  Uiso   1.00
C1475  C     0.75786   0.44443   0.94623   0.00000  Uiso   1.00
C1476  C     0.76153   0.39895   0.96088   0.00000  Uiso   1.00
H1477  H     0.72585   0.38741   0.97639   0.00000  Uiso   1.00
H1478  H     0.76428   0.37949   0.93022   0.00000  Uiso   1.00
H1479  H     0.79554   0.39441   0.98654   0.00000  Uiso   1.00
H1480  H     0.71838   0.45379   0.95096   0.00000  Uiso   1.00
H1481  H     0.76001   0.44502   0.90915   0.00000  Uiso   1.00
C1482  C     0.92888   0.51791   0.71727   0.00000  Uiso   1.00
C1483  C     0.97552   0.52112   0.68871   0.00000  Uiso   1.00
H1484  H     0.67688   0.51101   0.71036   0.00000  Uiso   1.00
H1485  H     0.96859   0.50057   0.99150   0.00000  Uiso   1.00
H1486  H     0.98544   0.55348   0.67867   0.00000  Uiso   1.00
H1487  H     0.93334   0.54298   0.74243   0.00000  Uiso   1.00
H1488  H     0.93204   0.48692   0.73325   0.00000  Uiso   1.00
C1489  C     0.17330   0.75497   0.83415   0.00000  Uiso   1.00
C1490  C     0.16869   0.91291   0.83315   0.00000  Uiso   1.00
C1491  C     0.06845   0.83666   0.82204   0.00000  Uiso   1.00
C1492  C     0.26558   0.83634   0.84505   0.00000  Uiso   1.00
C1493  C     0.01643   0.85082   0.81761   0.00000  Uiso   1.00
C1494  C     0.32155   0.84348   0.85301   0.00000  Uiso   1.00
C1495  C     0.19507   0.69107   0.79487   0.00000  Uiso   1.00
C1496  C     0.16960   0.98014   0.87402   0.00000  Uiso   1.00
C1497  C     0.19413   0.98110   0.79458   0.00000  Uiso   1.00
C1498  C     0.18489   0.68860   0.87704   0.00000  Uiso   1.00
C1499  C     0.17597   0.95847   0.83315   0.00000  Uiso   1.00
C1500  C     0.18487   0.71130   0.83539   0.00000  Uiso   1.00
C1501  C     0.12936   0.81027   0.68868   0.00000  Uiso   1.00
C1502  C     0.20165   0.85762   0.97795   0.00000  Uiso   1.00
C1503  C     0.13123   0.80776   0.97281   0.00000  Uiso   1.00
C1504  C     0.20768   0.85103   0.69337   0.00000  Uiso   1.00
Cu1505 Cu    0.16667   0.83334   0.88022   0.00000  Uiso   1.00
Cu1506 Cu    0.16667   0.83333   0.78645   0.00000  Uiso   1.00
N1507  N     0.16668   0.83334   0.95069   0.00000  Uiso   1.00
N1508  N     0.16665   0.83332   0.71597   0.00000  Uiso   1.00
O1509  O     0.16666   0.77322   0.87291   0.00000  Uiso   1.00
O1510  O     0.16667   0.89345   0.79375   0.00000  Uiso   1.00
O1511  O     0.16666   0.77321   0.79372   0.00000  Uiso   1.00
O1512  O     0.16667   0.89346   0.87294   0.00000  Uiso   1.00
O1513  O     0.09161   0.83334   0.86379   0.00000  Uiso   1.00
O1514  O     0.24172   0.83333   0.80288   0.00000  Uiso   1.00
O1515  O     0.09161   0.83333   0.78460   0.00000  Uiso   1.00
O1516  O     0.24172   0.83334   0.88207   0.00000  Uiso   1.00
Cl1517 Cl    0.01542   0.90116   0.79431   0.00000  Uiso   1.00
Cl1518 Cl    0.01292   0.86212   0.90880   0.00000  Uiso   1.00
Cl1519 Cl    0.21465   0.71955   0.74586   0.00000  Uiso   1.00
Cl1520 Cl    0.13684   0.95819   0.92015   0.00000  Uiso   1.00
C1521  C     0.21313   0.96076   0.75318   0.00000  Uiso   1.00
C1522  C     0.16961   0.95425   0.71365   0.00000  Uiso   1.00
H1523  H     0.13594   0.93538   0.72506   0.00000  Uiso   1.00
H1524  H     0.15603   0.98426   0.70049   0.00000  Uiso   1.00
H1525  H     0.18435   0.93836   0.68476   0.00000  Uiso   1.00
H1526  H     0.24599   0.97948   0.74011   0.00000  Uiso   1.00
H1527  H     0.23143   0.93201   0.76323   0.00000  Uiso   1.00
C1528  C     0.21046   0.70590   0.92316   0.00000  Uiso   1.00
C1529  C     0.26742   0.72001   0.91995   0.00000  Uiso   1.00
H1530  H     0.28892   0.69406   0.90903   0.00000  Uiso   1.00
H1531  H     0.27082   0.74585   0.89478   0.00000  Uiso   1.00
H1532  H     0.28555   0.73084   0.95440   0.00000  Uiso   1.00
H1533  H     0.19052   0.73178   0.93533   0.00000  Uiso   1.00
H1534  H     0.20986   0.68223   0.95110   0.00000  Uiso   1.00
Cl1535 Cl    0.08221   0.77881   0.71506   0.00000  Uiso   1.00
Cl1536 Cl    0.23805   0.89807   0.95261   0.00000  Uiso   1.00
C1537  C     0.09119   0.77777   0.94623   0.00000  Uiso   1.00
C1538  C     0.09486   0.73229   0.96088   0.00000  Uiso   1.00
H1539  H     0.05918   0.72074   0.97639   0.00000  Uiso   1.00
H1540  H     0.09761   0.71282   0.93022   0.00000  Uiso   1.00
H1541  H     0.12887   0.72774   0.98654   0.00000  Uiso   1.00
H1542  H     0.05171   0.78712   0.95096   0.00000  Uiso   1.00
H1543  H     0.09334   0.77835   0.90915   0.00000  Uiso   1.00
C1544  C     0.26222   0.85125   0.71727   0.00000  Uiso   1.00
C1545  C     0.30885   0.85445   0.68871   0.00000  Uiso   1.00
H1546  H     0.01021   0.84434   0.71036   0.00000  Uiso   1.00
H1547  H     0.30192   0.83390   0.99150   0.00000  Uiso   1.00
H1548  H     0.31877   0.88681   0.67867   0.00000  Uiso   1.00
H1549  H     0.26668   0.87631   0.74243   0.00000  Uiso   1.00
H1550  H     0.26537   0.82025   0.73325   0.00000  Uiso   1.00
C1551  C     0.50663   0.75497   0.83415   0.00000  Uiso   1.00
C1552  C     0.50202   0.91291   0.83315   0.00000  Uiso   1.00
C1553  C     0.40178   0.83666   0.82204   0.00000  Uiso   1.00
C1554  C     0.59891   0.83634   0.84505   0.00000  Uiso   1.00
C1555  C     0.34976   0.85082   0.81761   0.00000  Uiso   1.00
C1556  C     0.65489   0.84348   0.85301   0.00000  Uiso   1.00
C1557  C     0.52841   0.69107   0.79487   0.00000  Uiso   1.00
C1558  C     0.50293   0.98014   0.87402   0.00000  Uiso   1.00
C1559  C     0.52746   0.98110   0.79458   0.00000  Uiso   1.00
C1560  C     0.51822   0.68860   0.87704   0.00000  Uiso   1.00
C1561  C     0.50930   0.95847   0.83315   0.00000  Uiso   1.00
C1562  C     0.51820   0.71130   0.83539   0.00000  Uiso   1.00
C1563  C     0.46270   0.81027   0.68868   0.00000  Uiso   1.00
C1564  C     0.53499   0.85762   0.97795   0.00000  Uiso   1.00
C1565  C     0.46456   0.80776   0.97281   0.00000  Uiso   1.00
C1566  C     0.54102   0.85103   0.69337   0.00000  Uiso   1.00
Cu1567 Cu    0.50000   0.83334   0.88022   0.00000  Uiso   1.00
Cu1568 Cu    0.50000   0.83333   0.78645   0.00000  Uiso   1.00
N1569  N     0.50001   0.83334   0.95069   0.00000  Uiso   1.00
N1570  N     0.49999   0.83332   0.71597   0.00000  Uiso   1.00
O1571  O     0.50000   0.77322   0.87291   0.00000  Uiso   1.00
O1572  O     0.50000   0.89345   0.79375   0.00000  Uiso   1.00
O1573  O     0.50000   0.77321   0.79372   0.00000  Uiso   1.00
O1574  O     0.50000   0.89346   0.87294   0.00000  Uiso   1.00
O1575  O     0.42495   0.83334   0.86379   0.00000  Uiso   1.00
O1576  O     0.57505   0.83333   0.80288   0.00000  Uiso   1.00
O1577  O     0.42494   0.83333   0.78460   0.00000  Uiso   1.00
O1578  O     0.57506   0.83334   0.88207   0.00000  Uiso   1.00
Cl1579 Cl    0.34875   0.90116   0.79431   0.00000  Uiso   1.00
Cl1580 Cl    0.34625   0.86212   0.90880   0.00000  Uiso   1.00
Cl1581 Cl    0.54798   0.71955   0.74586   0.00000  Uiso   1.00
Cl1582 Cl    0.47017   0.95819   0.92015   0.00000  Uiso   1.00
C1583  C     0.54646   0.96076   0.75318   0.00000  Uiso   1.00
C1584  C     0.50294   0.95425   0.71365   0.00000  Uiso   1.00
H1585  H     0.46927   0.93538   0.72506   0.00000  Uiso   1.00
H1586  H     0.48936   0.98426   0.70049   0.00000  Uiso   1.00
H1587  H     0.51769   0.93836   0.68476   0.00000  Uiso   1.00
H1588  H     0.57933   0.97948   0.74011   0.00000  Uiso   1.00
H1589  H     0.56476   0.93201   0.76323   0.00000  Uiso   1.00
C1590  C     0.54379   0.70590   0.92316   0.00000  Uiso   1.00
C1591  C     0.60075   0.72001   0.91995   0.00000  Uiso   1.00
H1592  H     0.62225   0.69406   0.90903   0.00000  Uiso   1.00
H1593  H     0.60416   0.74585   0.89478   0.00000  Uiso   1.00
H1594  H     0.61888   0.73084   0.95440   0.00000  Uiso   1.00
H1595  H     0.52386   0.73178   0.93533   0.00000  Uiso   1.00
H1596  H     0.54320   0.68223   0.95110   0.00000  Uiso   1.00
Cl1597 Cl    0.41554   0.77881   0.71506   0.00000  Uiso   1.00
Cl1598 Cl    0.57138   0.89807   0.95261   0.00000  Uiso   1.00
C1599  C     0.42452   0.77777   0.94623   0.00000  Uiso   1.00
C1600  C     0.42819   0.73229   0.96088   0.00000  Uiso   1.00
H1601  H     0.39252   0.72074   0.97639   0.00000  Uiso   1.00
H1602  H     0.43094   0.71282   0.93022   0.00000  Uiso   1.00
H1603  H     0.46221   0.72774   0.98654   0.00000  Uiso   1.00
H1604  H     0.38504   0.78712   0.95096   0.00000  Uiso   1.00
H1605  H     0.42668   0.77835   0.90915   0.00000  Uiso   1.00
C1606  C     0.59555   0.85125   0.71727   0.00000  Uiso   1.00
C1607  C     0.64219   0.85445   0.68871   0.00000  Uiso   1.00
H1608  H     0.34354   0.84434   0.71036   0.00000  Uiso   1.00
H1609  H     0.63525   0.83390   0.99150   0.00000  Uiso   1.00
H1610  H     0.65210   0.88681   0.67867   0.00000  Uiso   1.00
H1611  H     0.60001   0.87631   0.74243   0.00000  Uiso   1.00
H1612  H     0.59871   0.82025   0.73325   0.00000  Uiso   1.00
C1613  C     0.83996   0.75497   0.83415   0.00000  Uiso   1.00
C1614  C     0.83536   0.91291   0.83315   0.00000  Uiso   1.00
C1615  C     0.73512   0.83666   0.82204   0.00000  Uiso   1.00
C1616  C     0.93224   0.83634   0.84505   0.00000  Uiso   1.00
C1617  C     0.68309   0.85082   0.81761   0.00000  Uiso   1.00
C1618  C     0.98822   0.84348   0.85301   0.00000  Uiso   1.00
C1619  C     0.86174   0.69107   0.79487   0.00000  Uiso   1.00
C1620  C     0.83626   0.98014   0.87402   0.00000  Uiso   1.00
C1621  C     0.86080   0.98110   0.79458   0.00000  Uiso   1.00
C1622  C     0.85156   0.68860   0.87704   0.00000  Uiso   1.00
C1623  C     0.84264   0.95847   0.83315   0.00000  Uiso   1.00
C1624  C     0.85153   0.71130   0.83539   0.00000  Uiso   1.00
C1625  C     0.79603   0.81027   0.68868   0.00000  Uiso   1.00
C1626  C     0.86832   0.85762   0.97795   0.00000  Uiso   1.00
C1627  C     0.79789   0.80776   0.97281   0.00000  Uiso   1.00
C1628  C     0.87435   0.85103   0.69337   0.00000  Uiso   1.00
Cu1629 Cu    0.83333   0.83334   0.88022   0.00000  Uiso   1.00
Cu1630 Cu    0.83333   0.83333   0.78645   0.00000  Uiso   1.00
N1631  N     0.83335   0.83334   0.95069   0.00000  Uiso   1.00
N1632  N     0.83332   0.83332   0.71597   0.00000  Uiso   1.00
O1633  O     0.83333   0.77322   0.87291   0.00000  Uiso   1.00
O1634  O     0.83334   0.89345   0.79375   0.00000  Uiso   1.00
O1635  O     0.83333   0.77321   0.79372   0.00000  Uiso   1.00
O1636  O     0.83334   0.89346   0.87294   0.00000  Uiso   1.00
O1637  O     0.75828   0.83334   0.86379   0.00000  Uiso   1.00
O1638  O     0.90839   0.83333   0.80288   0.00000  Uiso   1.00
O1639  O     0.75828   0.83333   0.78460   0.00000  Uiso   1.00
O1640  O     0.90839   0.83334   0.88207   0.00000  Uiso   1.00
Cl1641 Cl    0.68209   0.90116   0.79431   0.00000  Uiso   1.00
Cl1642 Cl    0.67958   0.86212   0.90880   0.00000  Uiso   1.00
Cl1643 Cl    0.88131   0.71955   0.74586   0.00000  Uiso   1.00
Cl1644 Cl    0.80350   0.95819   0.92015   0.00000  Uiso   1.00
C1645  C     0.87979   0.96076   0.75318   0.00000  Uiso   1.00
C1646  C     0.83627   0.95425   0.71365   0.00000  Uiso   1.00
H1647  H     0.80261   0.93538   0.72506   0.00000  Uiso   1.00
H1648  H     0.82270   0.98426   0.70049   0.00000  Uiso   1.00
H1649  H     0.85102   0.93836   0.68476   0.00000  Uiso   1.00
H1650  H     0.91266   0.97948   0.74011   0.00000  Uiso   1.00
H1651  H     0.89809   0.93201   0.76323   0.00000  Uiso   1.00
C1652  C     0.87713   0.70590   0.92316   0.00000  Uiso   1.00
C1653  C     0.93409   0.72001   0.91995   0.00000  Uiso   1.00
H1654  H     0.95559   0.69406   0.90903   0.00000  Uiso   1.00
H1655  H     0.93749   0.74585   0.89478   0.00000  Uiso   1.00
H1656  H     0.95222   0.73084   0.95440   0.00000  Uiso   1.00
H1657  H     0.85719   0.73178   0.93533   0.00000  Uiso   1.00
H1658  H     0.87653   0.68223   0.95110   0.00000  Uiso   1.00
Cl1659 Cl    0.74888   0.77881   0.71506   0.00000  Uiso   1.00
Cl1660 Cl    0.90472   0.89807   0.95261   0.00000  Uiso   1.00
C1661  C     0.75786   0.77777   0.94623   0.00000  Uiso   1.00
C1662  C     0.76153   0.73229   0.96088   0.00000  Uiso   1.00
H1663  H     0.72585   0.72074   0.97639   0.00000  Uiso   1.00
H1664  H     0.76428   0.71282   0.93022   0.00000  Uiso   1.00
H1665  H     0.79554   0.72774   0.98654   0.00000  Uiso   1.00
H1666  H     0.71838   0.78712   0.95096   0.00000  Uiso   1.00
H1667  H     0.76001   0.77835   0.90915   0.00000  Uiso   1.00
C1668  C     0.92888   0.85125   0.71727   0.00000  Uiso   1.00
C1669  C     0.97552   0.85445   0.68871   0.00000  Uiso   1.00
H1670  H     0.67688   0.84434   0.71036   0.00000  Uiso   1.00
H1671  H     0.96859   0.83390   0.99150   0.00000  Uiso   1.00
H1672  H     0.98544   0.88681   0.67867   0.00000  Uiso   1.00
H1673  H     0.93334   0.87631   0.74243   0.00000  Uiso   1.00
H1674  H     0.93204   0.82025   0.73325   0.00000  Uiso   1.00
loop_
_geom_bond_atom_site_label_1
_geom_bond_atom_site_label_2
_geom_bond_distance
_geom_bond_site_symmetry_2
_ccdc_geom_bond_type
C1     O21     1.312   .     A
C1     O23     1.307   .     A
C1     C12     1.472   .     S
C2     O22     1.309   .     A
C2     C11     1.482   .     S
C2     O24     1.312   .     A
C3     O27     1.304   .     A
C3     O25     1.301   .     A
C3     C5      1.449   .     S
C4     O26     1.314   .     A
C4     C6      1.450   .     S
C4     O28     1.293   .     A
C5     Cl29    1.764   .     S
C5     C130    1.331   1_455 S
C6     C67     1.331   .     S
C6     Cl92    1.777   .     S
C7     C12     1.413   .     A
C7     Cl31    1.785   .     S
C7     C381    1.408   1_545 S
C8     C11     1.418   .     A
C8     Cl32    1.774   .     S
C8     C196    1.392   .     S
C9     C11     1.433   .     A
C9     C33     1.522   .     S
C9     C193    1.408   .     S
C10    C12     1.407   .     A
C10    C40     1.528   .     S
C10    C380    1.392   1_545 S
C13    N20     1.372   .     A
C13    Cl47    1.769   .     S
C13    C1131   1.437   1_554 S
C14    Cl48    1.763   .     S
C14    N19     1.358   .     A
C14    C574    1.421   .     S
C15    N19     1.397   .     A
C15    C49     1.530   .     S
C15    C571    1.437   .     S
C16    C56     1.509   .     S
C16    N20     1.395   .     A
C16    C1130   1.421   1_554 S
Cu17   O25     1.956   .     S
Cu17   Cu18    2.720   .     S
Cu17   O24     1.964   .     S
Cu17   N19     2.044   .     S
Cu17   O28     1.943   .     S
Cu17   O21     1.971   .     S
Cu18   O26     1.956   .     S
Cu18   N20     2.044   .     S
Cu18   O23     1.964   .     S
Cu18   O22     1.971   .     S
Cu18   O27     1.943   .     S
Cl30   C130    1.777   1_455 S
C33    H38     1.109   .     S
C33    H39     1.100   .     S
C33    C34     1.530   .     S
C34    H37     1.106   .     S
C34    H36     1.110   .     S
C34    H35     1.109   .     S
C40    C41     1.529   .     S
C40    H46     1.110   .     S
C40    H45     1.099   .     S
C41    H43     1.110   .     S
C41    H42     1.111   .     S
C41    H44     1.111   .     S
C49    C50     1.540   .     S
C49    H55     1.083   .     S
C49    H54     1.111   .     S
C50    H52     1.111   .     S
C50    H53     1.110   .     S
C50    H51     1.111   .     S
C56    C57     1.533   .     S
C56    H62     1.108   .     S
C56    H61     1.095   .     S
C57    H60     1.109   .     S
C57    H120    1.109   .     S
C57    H1175   1.110   1_554 S
H58    C181    1.109   1_455 S
H59    C615    1.110   .     S
C63    O83     1.312   .     A
C63    O85     1.307   .     A
C63    C74     1.472   .     S
C64    O84     1.309   .     A
C64    C73     1.482   .     S
C64    O86     1.312   .     A
C65    O89     1.304   .     A
C65    O87     1.301   .     A
C65    C67     1.449   .     S
C66    O88     1.314   .     A
C66    C68     1.450   .     S
C66    O90     1.293   .     A
C67    Cl91    1.764   .     S
C68    C129    1.331   .     S
C68    Cl154   1.777   .     S
C69    C74     1.413   .     A
C69    Cl93    1.785   .     S
C69    C443    1.408   1_545 S
C70    C73     1.418   .     A
C70    Cl94    1.774   .     S
C70    C258    1.392   .     S
C71    C73     1.433   .     A
C71    C95     1.522   .     S
C71    C255    1.408   .     S
C72    C74     1.407   .     A
C72    C102    1.528   .     S
C72    C442    1.392   1_545 S
C75    N82     1.372   .     A
C75    Cl109   1.769   .     S
C75    C1193   1.437   1_554 S
C76    Cl110   1.763   .     S
C76    N81     1.358   .     A
C76    C636    1.421   .     S
C77    N81     1.397   .     A
C77    C111    1.530   .     S
C77    C633    1.437   .     S
C78    C118    1.509   .     S
C78    N82     1.395   .     A
C78    C1192   1.421   1_554 S
Cu79   O87     1.956   .     S
Cu79   Cu80    2.720   .     S
Cu79   O86     1.964   .     S
Cu79   N81     2.044   .     S
Cu79   O90     1.943   .     S
Cu79   O83     1.971   .     S
Cu80   O88     1.956   .     S
Cu80   N82     2.044   .     S
Cu80   O85     1.964   .     S
Cu80   O84     1.971   .     S
Cu80   O89     1.943   .     S
C95    H100    1.109   .     S
C95    H101    1.100   .     S
C95    C96     1.530   .     S
C96    H99     1.106   .     S
C96    H98     1.110   .     S
C96    H97     1.109   .     S
C102   C103    1.529   .     S
C102   H108    1.110   .     S
C102   H107    1.099   .     S
C103   H105    1.110   .     S
C103   H104    1.111   .     S
C103   H106    1.111   .     S
C111   C112    1.540   .     S
C111   H117    1.083   .     S
C111   H116    1.111   .     S
C112   H114    1.111   .     S
C112   H115    1.110   .     S
C112   H113    1.111   .     S
C118   C119    1.533   .     S
C118   H124    1.108   .     S
C118   H123    1.095   .     S
C119   H122    1.109   .     S
C119   H182    1.109   .     S
C119   H1237   1.110   1_554 S
H121   C677    1.110   .     S
C125   O145    1.312   .     A
C125   O147    1.307   .     A
C125   C136    1.472   .     S
C126   O146    1.309   .     A
C126   C135    1.482   .     S
C126   O148    1.312   .     A
C127   O151    1.304   .     A
C127   O149    1.301   .     A
C127   C129    1.449   .     S
C128   O150    1.314   .     A
C128   C130    1.450   .     S
C128   O152    1.293   .     A
C129   Cl153   1.764   .     S
C130   C5      1.331   1_655 S
C130   Cl30    1.777   1_655 S
C131   C136    1.413   .     A
C131   Cl155   1.785   .     S
C131   C505    1.408   1_545 S
C132   C135    1.418   .     A
C132   Cl156   1.774   .     S
C132   C320    1.392   .     S
C133   C135    1.433   .     A
C133   C157    1.522   .     S
C133   C317    1.408   .     S
C134   C136    1.407   .     A
C134   C164    1.528   .     S
C134   C504    1.392   1_545 S
C137   N144    1.372   .     A
C137   Cl171   1.769   .     S
C137   C1255   1.437   1_554 S
C138   Cl172   1.763   .     S
C138   N143    1.358   .     A
C138   C698    1.421   .     S
C139   N143    1.397   .     A
C139   C173    1.530   .     S
C139   C695    1.437   .     S
C140   C180    1.509   .     S
C140   N144    1.395   .     A
C140   C1254   1.421   1_554 S
Cu141  O149    1.956   .     S
Cu141  Cu142   2.720   .     S
Cu141  O148    1.964   .     S
Cu141  N143    2.044   .     S
Cu141  O152    1.943   .     S
Cu141  O145    1.971   .     S
Cu142  O150    1.956   .     S
Cu142  N144    2.044   .     S
Cu142  O147    1.964   .     S
Cu142  O146    1.971   .     S
Cu142  O151    1.943   .     S
C157   H162    1.109   .     S
C157   H163    1.100   .     S
C157   C158    1.530   .     S
C158   H161    1.106   .     S
C158   H160    1.110   .     S
C158   H159    1.109   .     S
C164   C165    1.529   .     S
C164   H170    1.110   .     S
C164   H169    1.099   .     S
C165   H167    1.110   .     S
C165   H166    1.111   .     S
C165   H168    1.111   .     S
C173   C174    1.540   .     S
C173   H179    1.083   .     S
C173   H178    1.111   .     S
C174   H176    1.111   .     S
C174   H177    1.110   .     S
C174   H175    1.111   .     S
C180   C181    1.533   .     S
C180   H186    1.108   .     S
C180   H185    1.095   .     S
C181   H184    1.109   .     S
C181   H58     1.109   1_655 S
C181   H1299   1.110   1_554 S
H183   C739    1.110   .     S
C187   O207    1.312   .     A
C187   O209    1.307   .     A
C187   C198    1.472   .     S
C188   O208    1.309   .     A
C188   C197    1.482   .     S
C188   O210    1.312   .     A
C189   O213    1.304   .     A
C189   O211    1.301   .     A
C189   C191    1.449   .     S
C190   O212    1.314   .     A
C190   C192    1.450   .     S
C190   O214    1.293   .     A
C191   Cl215   1.764   .     S
C191   C316    1.331   1_455 S
C192   C253    1.331   .     S
C192   Cl278   1.777   .     S
C193   C198    1.413   .     A
C193   Cl217   1.785   .     S
C194   C197    1.418   .     A
C194   Cl218   1.774   .     S
C194   C382    1.392   .     S
C195   C197    1.433   .     A
C195   C219    1.522   .     S
C195   C379    1.408   .     S
C196   C198    1.407   .     A
C196   C226    1.528   .     S
C199   N206    1.372   .     A
C199   Cl233   1.769   .     S
C199   C1317   1.437   1_554 S
C200   Cl234   1.763   .     S
C200   N205    1.358   .     A
C200   C760    1.421   .     S
C201   N205    1.397   .     A
C201   C235    1.530   .     S
C201   C757    1.437   .     S
C202   C242    1.509   .     S
C202   N206    1.395   .     A
C202   C1316   1.421   1_554 S
Cu203  O211    1.956   .     S
Cu203  Cu204   2.720   .     S
Cu203  O210    1.964   .     S
Cu203  N205    2.044   .     S
Cu203  O214    1.943   .     S
Cu203  O207    1.971   .     S
Cu204  O212    1.956   .     S
Cu204  N206    2.044   .     S
Cu204  O209    1.964   .     S
Cu204  O208    1.971   .     S
Cu204  O213    1.943   .     S
Cl216  C316    1.777   1_455 S
C219   H224    1.109   .     S
C219   H225    1.100   .     S
C219   C220    1.530   .     S
C220   H223    1.106   .     S
C220   H222    1.110   .     S
C220   H221    1.109   .     S
C226   C227    1.529   .     S
C226   H232    1.110   .     S
C226   H231    1.099   .     S
C227   H229    1.110   .     S
C227   H228    1.111   .     S
C227   H230    1.111   .     S
C235   C236    1.540   .     S
C235   H241    1.083   .     S
C235   H240    1.111   .     S
C236   H238    1.111   .     S
C236   H239    1.110   .     S
C236   H237    1.111   .     S
C242   C243    1.533   .     S
C242   H248    1.108   .     S
C242   H247    1.095   .     S
C243   H246    1.109   .     S
C243   H306    1.109   .     S
C243   H1361   1.110   1_554 S
H244   C367    1.109   1_455 S
H245   C801    1.110   .     S
C249   O269    1.312   .     A
C249   O271    1.307   .     A
C249   C260    1.472   .     S
C250   O270    1.309   .     A
C250   C259    1.482   .     S
C250   O272    1.312   .     A
C251   O275    1.304   .     A
C251   O273    1.301   .     A
C251   C253    1.449   .     S
C252   O274    1.314   .     A
C252   C254    1.450   .     S
C252   O276    1.293   .     A
C253   Cl277   1.764   .     S
C254   C315    1.331   .     S
C254   Cl340   1.777   .     S
C255   C260    1.413   .     A
C255   Cl279   1.785   .     S
C256   C259    1.418   .     A
C256   Cl280   1.774   .     S
C256   C444    1.392   .     S
C257   C259    1.433   .     A
C257   C281    1.522   .     S
C257   C441    1.408   .     S
C258   C260    1.407   .     A
C258   C288    1.528   .     S
C261   N268    1.372   .     A
C261   Cl295   1.769   .     S
C261   C1379   1.437   1_554 S
C262   Cl296   1.763   .     S
C262   N267    1.358   .     A
C262   C822    1.421   .     S
C263   N267    1.397   .     A
C263   C297    1.530   .     S
C263   C819    1.437   .     S
C264   C304    1.509   .     S
C264   N268    1.395   .     A
C264   C1378   1.421   1_554 S
Cu265  O273    1.956   .     S
Cu265  Cu266   2.720   .     S
Cu265  O272    1.964   .     S
Cu265  N267    2.044   .     S
Cu265  O276    1.943   .     S
Cu265  O269    1.971   .     S
Cu266  O274    1.956   .     S
Cu266  N268    2.044   .     S
Cu266  O271    1.964   .     S
Cu266  O270    1.971   .     S
Cu266  O275    1.943   .     S
C281   H286    1.109   .     S
C281   H287    1.100   .     S
C281   C282    1.530   .     S
C282   H285    1.106   .     S
C282   H284    1.110   .     S
C282   H283    1.109   .     S
C288   C289    1.529   .     S
C288   H294    1.110   .     S
C288   H293    1.099   .     S
C289   H291    1.110   .     S
C289   H290    1.111   .     S
C289   H292    1.111   .     S
C297   C298    1.540   .     S
C297   H303    1.083   .     S
C297   H302    1.111   .     S
C298   H300    1.111   .     S
C298   H301    1.110   .     S
C298   H299    1.111   .     S
C304   C305    1.533   .     S
C304   H310    1.108   .     S
C304   H309    1.095   .     S
C305   H308    1.109   .     S
C305   H368    1.109   .     S
C305   H1423   1.110   1_554 S
H307   C863    1.110   .     S
C311   O331    1.312   .     A
C311   O333    1.307   .     A
C311   C322    1.472   .     S
C312   O332    1.309   .     A
C312   C321    1.482   .     S
C312   O334    1.312   .     A
C313   O337    1.304   .     A
C313   O335    1.301   .     A
C313   C315    1.449   .     S
C314   O336    1.314   .     A
C314   C316    1.450   .     S
C314   O338    1.293   .     A
C315   Cl339   1.764   .     S
C316   C191    1.331   1_655 S
C316   Cl216   1.777   1_655 S
C317   C322    1.413   .     A
C317   Cl341   1.785   .     S
C318   C321    1.418   .     A
C318   Cl342   1.774   .     S
C318   C506    1.392   .     S
C319   C321    1.433   .     A
C319   C343    1.522   .     S
C319   C503    1.408   .     S
C320   C322    1.407   .     A
C320   C350    1.528   .     S
C323   N330    1.372   .     A
C323   Cl357   1.769   .     S
C323   C1441   1.437   1_554 S
C324   Cl358   1.763   .     S
C324   N329    1.358   .     A
C324   C884    1.421   .     S
C325   N329    1.397   .     A
C325   C359    1.530   .     S
C325   C881    1.437   .     S
C326   C366    1.509   .     S
C326   N330    1.395   .     A
C326   C1440   1.421   1_554 S
Cu327  O335    1.956   .     S
Cu327  Cu328   2.720   .     S
Cu327  O334    1.964   .     S
Cu327  N329    2.044   .     S
Cu327  O338    1.943   .     S
Cu327  O331    1.971   .     S
Cu328  O336    1.956   .     S
Cu328  N330    2.044   .     S
Cu328  O333    1.964   .     S
Cu328  O332    1.971   .     S
Cu328  O337    1.943   .     S
C343   H348    1.109   .     S
C343   H349    1.100   .     S
C343   C344    1.530   .     S
C344   H347    1.106   .     S
C344   H346    1.110   .     S
C344   H345    1.109   .     S
C350   C351    1.529   .     S
C350   H356    1.110   .     S
C350   H355    1.099   .     S
C351   H353    1.110   .     S
C351   H352    1.111   .     S
C351   H354    1.111   .     S
C359   C360    1.540   .     S
C359   H365    1.083   .     S
C359   H364    1.111   .     S
C360   H362    1.111   .     S
C360   H363    1.110   .     S
C360   H361    1.111   .     S
C366   C367    1.533   .     S
C366   H372    1.108   .     S
C366   H371    1.095   .     S
C367   H370    1.109   .     S
C367   H244    1.109   1_655 S
C367   H1485   1.110   1_554 S
H369   C925    1.110   .     S
C373   O393    1.312   .     A
C373   O395    1.307   .     A
C373   C384    1.472   .     S
C374   O394    1.309   .     A
C374   C383    1.482   .     S
C374   O396    1.312   .     A
C375   O399    1.304   .     A
C375   O397    1.301   .     A
C375   C377    1.449   .     S
C376   O398    1.314   .     A
C376   C378    1.450   .     S
C376   O400    1.293   .     A
C377   Cl401   1.764   .     S
C377   C502    1.331   1_455 S
C378   C439    1.331   .     S
C378   Cl464   1.777   .     S
C379   C384    1.413   .     A
C379   Cl403   1.785   .     S
C380   C383    1.418   .     A
C380   Cl404   1.774   .     S
C380   C10     1.392   1_565 S
C381   C383    1.433   .     A
C381   C405    1.522   .     S
C381   C7      1.408   1_565 S
C382   C384    1.407   .     A
C382   C412    1.528   .     S
C385   N392    1.372   .     A
C385   Cl419   1.769   .     S
C385   C1503   1.437   1_554 S
C386   Cl420   1.763   .     S
C386   N391    1.358   .     A
C386   C946    1.421   .     S
C387   N391    1.397   .     A
C387   C421    1.530   .     S
C387   C943    1.437   .     S
C388   C428    1.509   .     S
C388   N392    1.395   .     A
C388   C1502   1.421   1_554 S
Cu389  O397    1.956   .     S
Cu389  Cu390   2.720   .     S
Cu389  O396    1.964   .     S
Cu389  N391    2.044   .     S
Cu389  O400    1.943   .     S
Cu389  O393    1.971   .     S
Cu390  O398    1.956   .     S
Cu390  N392    2.044   .     S
Cu390  O395    1.964   .     S
Cu390  O394    1.971   .     S
Cu390  O399    1.943   .     S
Cl402  C502    1.777   1_455 S
C405   H410    1.109   .     S
C405   H411    1.100   .     S
C405   C406    1.530   .     S
C406   H409    1.106   .     S
C406   H408    1.110   .     S
C406   H407    1.109   .     S
C412   C413    1.529   .     S
C412   H418    1.110   .     S
C412   H417    1.099   .     S
C413   H415    1.110   .     S
C413   H414    1.111   .     S
C413   H416    1.111   .     S
C421   C422    1.540   .     S
C421   H427    1.083   .     S
C421   H426    1.111   .     S
C422   H424    1.111   .     S
C422   H425    1.110   .     S
C422   H423    1.111   .     S
C428   C429    1.533   .     S
C428   H434    1.108   .     S
C428   H433    1.095   .     S
C429   H432    1.109   .     S
C429   H492    1.109   .     S
C429   H1547   1.110   1_554 S
H430   C553    1.109   1_455 S
H431   C987    1.110   .     S
C435   O455    1.312   .     A
C435   O457    1.307   .     A
C435   C446    1.472   .     S
C436   O456    1.309   .     A
C436   C445    1.482   .     S
C436   O458    1.312   .     A
C437   O461    1.304   .     A
C437   O459    1.301   .     A
C437   C439    1.449   .     S
C438   O460    1.314   .     A
C438   C440    1.450   .     S
C438   O462    1.293   .     A
C439   Cl463   1.764   .     S
C440   C501    1.331   .     S
C440   Cl526   1.777   .     S
C441   C446    1.413   .     A
C441   Cl465   1.785   .     S
C442   C445    1.418   .     A
C442   Cl466   1.774   .     S
C442   C72     1.392   1_565 S
C443   C445    1.433   .     A
C443   C467    1.522   .     S
C443   C69     1.408   1_565 S
C444   C446    1.407   .     A
C444   C474    1.528   .     S
C447   N454    1.372   .     A
C447   Cl481   1.769   .     S
C447   C1565   1.437   1_554 S
C448   Cl482   1.763   .     S
C448   N453    1.358   .     A
C448   C1008   1.421   .     S
C449   N453    1.397   .     A
C449   C483    1.530   .     S
C449   C1005   1.437   .     S
C450   C490    1.509   .     S
C450   N454    1.395   .     A
C450   C1564   1.421   1_554 S
Cu451  O459    1.956   .     S
Cu451  Cu452   2.720   .     S
Cu451  O458    1.964   .     S
Cu451  N453    2.044   .     S
Cu451  O462    1.943   .     S
Cu451  O455    1.971   .     S
Cu452  O460    1.956   .     S
Cu452  N454    2.044   .     S
Cu452  O457    1.964   .     S
Cu452  O456    1.971   .     S
Cu452  O461    1.943   .     S
C467   H472    1.109   .     S
C467   H473    1.100   .     S
C467   C468    1.530   .     S
C468   H471    1.106   .     S
C468   H470    1.110   .     S
C468   H469    1.109   .     S
C474   C475    1.529   .     S
C474   H480    1.110   .     S
C474   H479    1.099   .     S
C475   H477    1.110   .     S
C475   H476    1.111   .     S
C475   H478    1.111   .     S
C483   C484    1.540   .     S
C483   H489    1.083   .     S
C483   H488    1.111   .     S
C484   H486    1.111   .     S
C484   H487    1.110   .     S
C484   H485    1.111   .     S
C490   C491    1.533   .     S
C490   H496    1.108   .     S
C490   H495    1.095   .     S
C491   H494    1.109   .     S
C491   H554    1.109   .     S
C491   H1609   1.110   1_554 S
H493   C1049   1.110   .     S
C497   O517    1.312   .     A
C497   O519    1.307   .     A
C497   C508    1.472   .     S
C498   O518    1.309   .     A
C498   C507    1.482   .     S
C498   O520    1.312   .     A
C499   O523    1.304   .     A
C499   O521    1.301   .     A
C499   C501    1.449   .     S
C500   O522    1.314   .     A
C500   C502    1.450   .     S
C500   O524    1.293   .     A
C501   Cl525   1.764   .     S
C502   C377    1.331   1_655 S
C502   Cl402   1.777   1_655 S
C503   C508    1.413   .     A
C503   Cl527   1.785   .     S
C504   C507    1.418   .     A
C504   Cl528   1.774   .     S
C504   C134    1.392   1_565 S
C505   C507    1.433   .     A
C505   C529    1.522   .     S
C505   C131    1.408   1_565 S
C506   C508    1.407   .     A
C506   C536    1.528   .     S
C509   N516    1.372   .     A
C509   Cl543   1.769   .     S
C509   C1627   1.437   1_554 S
C510   Cl544   1.763   .     S
C510   N515    1.358   .     A
C510   C1070   1.421   .     S
C511   N515    1.397   .     A
C511   C545    1.530   .     S
C511   C1067   1.437   .     S
C512   C552    1.509   .     S
C512   N516    1.395   .     A
C512   C1626   1.421   1_554 S
Cu513  O521    1.956   .     S
Cu513  Cu514   2.720   .     S
Cu513  O520    1.964   .     S
Cu513  N515    2.044   .     S
Cu513  O524    1.943   .     S
Cu513  O517    1.971   .     S
Cu514  O522    1.956   .     S
Cu514  N516    2.044   .     S
Cu514  O519    1.964   .     S
Cu514  O518    1.971   .     S
Cu514  O523    1.943   .     S
C529   H534    1.109   .     S
C529   H535    1.100   .     S
C529   C530    1.530   .     S
C530   H533    1.106   .     S
C530   H532    1.110   .     S
C530   H531    1.109   .     S
C536   C537    1.529   .     S
C536   H542    1.110   .     S
C536   H541    1.099   .     S
C537   H539    1.110   .     S
C537   H538    1.111   .     S
C537   H540    1.111   .     S
C545   C546    1.540   .     S
C545   H551    1.083   .     S
C545   H550    1.111   .     S
C546   H548    1.111   .     S
C546   H549    1.110   .     S
C546   H547    1.111   .     S
C552   C553    1.533   .     S
C552   H558    1.108   .     S
C552   H557    1.095   .     S
C553   H556    1.109   .     S
C553   H430    1.109   1_655 S
C553   H1671   1.110   1_554 S
H555   C1111   1.110   .     S
C559   O579    1.312   .     A
C559   O581    1.307   .     A
C559   C570    1.472   .     S
C560   O580    1.309   .     A
C560   C569    1.482   .     S
C560   O582    1.312   .     A
C561   O585    1.304   .     A
C561   O583    1.301   .     A
C561   C563    1.449   .     S
C562   O584    1.314   .     A
C562   C564    1.450   .     S
C562   O586    1.293   .     A
C563   Cl587   1.764   .     S
C563   C688    1.331   1_455 S
C564   C625    1.331   .     S
C564   Cl650   1.777   .     S
C565   C570    1.413   .     A
C565   Cl589   1.785   .     S
C565   C939    1.408   1_545 S
C566   C569    1.418   .     A
C566   Cl590   1.774   .     S
C566   C754    1.392   .     S
C567   C569    1.433   .     A
C567   C591    1.522   .     S
C567   C751    1.408   .     S
C568   C570    1.407   .     A
C568   C598    1.528   .     S
C568   C938    1.392   1_545 S
C571   N578    1.372   .     A
C571   Cl605   1.769   .     S
C572   Cl606   1.763   .     S
C572   N577    1.358   .     A
C572   C1132   1.421   .     S
C573   N577    1.397   .     A
C573   C607    1.530   .     S
C573   C1129   1.437   .     S
C574   C614    1.509   .     S
C574   N578    1.395   .     A
Cu575  O583    1.956   .     S
Cu575  Cu576   2.720   .     S
Cu575  O582    1.964   .     S
Cu575  N577    2.044   .     S
Cu575  O586    1.943   .     S
Cu575  O579    1.971   .     S
Cu576  O584    1.956   .     S
Cu576  N578    2.044   .     S
Cu576  O581    1.964   .     S
Cu576  O580    1.971   .     S
Cu576  O585    1.943   .     S
Cl588  C688    1.777   1_455 S
C591   H596    1.109   .     S
C591   H597    1.100   .     S
C591   C592    1.530   .     S
C592   H595    1.106   .     S
C592   H594    1.110   .     S
C592   H593    1.109   .     S
C598   C599    1.529   .     S
C598   H604    1.110   .     S
C598   H603    1.099   .     S
C599   H601    1.110   .     S
C599   H600    1.111   .     S
C599   H602    1.111   .     S
C607   C608    1.540   .     S
C607   H613    1.083   .     S
C607   H612    1.111   .     S
C608   H610    1.111   .     S
C608   H611    1.110   .     S
C608   H609    1.111   .     S
C614   C615    1.533   .     S
C614   H620    1.108   .     S
C614   H619    1.095   .     S
C615   H618    1.109   .     S
C615   H678    1.109   .     S
H616   C739    1.109   1_455 S
H617   C1173   1.110   .     S
C621   O641    1.312   .     A
C621   O643    1.307   .     A
C621   C632    1.472   .     S
C622   O642    1.309   .     A
C622   C631    1.482   .     S
C622   O644    1.312   .     A
C623   O647    1.304   .     A
C623   O645    1.301   .     A
C623   C625    1.449   .     S
C624   O646    1.314   .     A
C624   C626    1.450   .     S
C624   O648    1.293   .     A
C625   Cl649   1.764   .     S
C626   C687    1.331   .     S
C626   Cl712   1.777   .     S
C627   C632    1.413   .     A
C627   Cl651   1.785   .     S
C627   C1001   1.408   1_545 S
C628   C631    1.418   .     A
C628   Cl652   1.774   .     S
C628   C816    1.392   .     S
C629   C631    1.433   .     A
C629   C653    1.522   .     S
C629   C813    1.408   .     S
C630   C632    1.407   .     A
C630   C660    1.528   .     S
C630   C1000   1.392   1_545 S
C633   N640    1.372   .     A
C633   Cl667   1.769   .     S
C634   Cl668   1.763   .     S
C634   N639    1.358   .     A
C634   C1194   1.421   .     S
C635   N639    1.397   .     A
C635   C669    1.530   .     S
C635   C1191   1.437   .     S
C636   C676    1.509   .     S
C636   N640    1.395   .     A
Cu637  O645    1.956   .     S
Cu637  Cu638   2.720   .     S
Cu637  O644    1.964   .     S
Cu637  N639    2.044   .     S
Cu637  O648    1.943   .     S
Cu637  O641    1.971   .     S
Cu638  O646    1.956   .     S
Cu638  N640    2.044   .     S
Cu638  O643    1.964   .     S
Cu638  O642    1.971   .     S
Cu638  O647    1.943   .     S
C653   H658    1.109   .     S
C653   H659    1.100   .     S
C653   C654    1.530   .     S
C654   H657    1.106   .     S
C654   H656    1.110   .     S
C654   H655    1.109   .     S
C660   C661    1.529   .     S
C660   H666    1.110   .     S
C660   H665    1.099   .     S
C661   H663    1.110   .     S
C661   H662    1.111   .     S
C661   H664    1.111   .     S
C669   C670    1.540   .     S
C669   H675    1.083   .     S
C669   H674    1.111   .     S
C670   H672    1.111   .     S
C670   H673    1.110   .     S
C670   H671    1.111   .     S
C676   C677    1.533   .     S
C676   H682    1.108   .     S
C676   H681    1.095   .     S
C677   H680    1.109   .     S
C677   H740    1.109   .     S
H679   C1235   1.110   .     S
C683   O703    1.312   .     A
C683   O705    1.307   .     A
C683   C694    1.472   .     S
C684   O704    1.309   .     A
C684   C693    1.482   .     S
C684   O706    1.312   .     A
C685   O709    1.304   .     A
C685   O707    1.301   .     A
C685   C687    1.449   .     S
C686   O708    1.314   .     A
C686   C688    1.450   .     S
C686   O710    1.293   .     A
C687   Cl711   1.764   .     S
C688   C563    1.331   1_655 S
C688   Cl588   1.777   1_655 S
C689   C694    1.413   .     A
C689   Cl713   1.785   .     S
C689   C1063   1.408   1_545 S
C690   C693    1.418   .     A
C690   Cl714   1.774   .     S
C690   C878    1.392   .     S
C691   C693    1.433   .     A
C691   C715    1.522   .     S
C691   C875    1.408   .     S
C692   C694    1.407   .     A
C692   C722    1.528   .     S
C692   C1062   1.392   1_545 S
C695   N702    1.372   .     A
C695   Cl729   1.769   .     S
C696   Cl730   1.763   .     S
C696   N701    1.358   .     A
C696   C1256   1.421   .     S
C697   N701    1.397   .     A
C697   C731    1.530   .     S
C697   C1253   1.437   .     S
C698   C738    1.509   .     S
C698   N702    1.395   .     A
Cu699  O707    1.956   .     S
Cu699  Cu700   2.720   .     S
Cu699  O706    1.964   .     S
Cu699  N701    2.044   .     S
Cu699  O710    1.943   .     S
Cu699  O703    1.971   .     S
Cu700  O708    1.956   .     S
Cu700  N702    2.044   .     S
Cu700  O705    1.964   .     S
Cu700  O704    1.971   .     S
Cu700  O709    1.943   .     S
C715   H720    1.109   .     S
C715   H721    1.100   .     S
C715   C716    1.530   .     S
C716   H719    1.106   .     S
C716   H718    1.110   .     S
C716   H717    1.109   .     S
C722   C723    1.529   .     S
C722   H728    1.110   .     S
C722   H727    1.099   .     S
C723   H725    1.110   .     S
C723   H724    1.111   .     S
C723   H726    1.111   .     S
C731   C732    1.540   .     S
C731   H737    1.083   .     S
C731   H736    1.111   .     S
C732   H734    1.111   .     S
C732   H735    1.110   .     S
C732   H733    1.111   .     S
C738   C739    1.533   .     S
C738   H744    1.108   .     S
C738   H743    1.095   .     S
C739   H742    1.109   .     S
C739   H616    1.109   1_655 S
H741   C1297   1.110   .     S
C745   O765    1.312   .     A
C745   O767    1.307   .     A
C745   C756    1.472   .     S
C746   O766    1.309   .     A
C746   C755    1.482   .     S
C746   O768    1.312   .     A
C747   O771    1.304   .     A
C747   O769    1.301   .     A
C747   C749    1.449   .     S
C748   O770    1.314   .     A
C748   C750    1.450   .     S
C748   O772    1.293   .     A
C749   Cl773   1.764   .     S
C749   C874    1.331   1_455 S
C750   C811    1.331   .     S
C750   Cl836   1.777   .     S
C751   C756    1.413   .     A
C751   Cl775   1.785   .     S
C752   C755    1.418   .     A
C752   Cl776   1.774   .     S
C752   C940    1.392   .     S
C753   C755    1.433   .     A
C753   C777    1.522   .     S
C753   C937    1.408   .     S
C754   C756    1.407   .     A
C754   C784    1.528   .     S
C757   N764    1.372   .     A
C757   Cl791   1.769   .     S
C758   Cl792   1.763   .     S
C758   N763    1.358   .     A
C758   C1318   1.421   .     S
C759   N763    1.397   .     A
C759   C793    1.530   .     S
C759   C1315   1.437   .     S
C760   C800    1.509   .     S
C760   N764    1.395   .     A
Cu761  O769    1.956   .     S
Cu761  Cu762   2.720   .     S
Cu761  O768    1.964   .     S
Cu761  N763    2.044   .     S
Cu761  O772    1.943   .     S
Cu761  O765    1.971   .     S
Cu762  O770    1.956   .     S
Cu762  N764    2.044   .     S
Cu762  O767    1.964   .     S
Cu762  O766    1.971   .     S
Cu762  O771    1.943   .     S
Cl774  C874    1.777   1_455 S
C777   H782    1.109   .     S
C777   H783    1.100   .     S
C777   C778    1.530   .     S
C778   H781    1.106   .     S
C778   H780    1.110   .     S
C778   H779    1.109   .     S
C784   C785    1.529   .     S
C784   H790    1.110   .     S
C784   H789    1.099   .     S
C785   H787    1.110   .     S
C785   H786    1.111   .     S
C785   H788    1.111   .     S
C793   C794    1.540   .     S
C793   H799    1.083   .     S
C793   H798    1.111   .     S
C794   H796    1.111   .     S
C794   H797    1.110   .     S
C794   H795    1.111   .     S
C800   C801    1.533   .     S
C800   H806    1.108   .     S
C800   H805    1.095   .     S
C801   H804    1.109   .     S
C801   H864    1.109   .     S
H802   C925    1.109   1_455 S
H803   C1359   1.110   .     S
C807   O827    1.312   .     A
C807   O829    1.307   .     A
C807   C818    1.472   .     S
C808   O828    1.309   .     A
C808   C817    1.482   .     S
C808   O830    1.312   .     A
C809   O833    1.304   .     A
C809   O831    1.301   .     A
C809   C811    1.449   .     S
C810   O832    1.314   .     A
C810   C812    1.450   .     S
C810   O834    1.293   .     A
C811   Cl835   1.764   .     S
C812   C873    1.331   .     S
C812   Cl898   1.777   .     S
C813   C818    1.413   .     A
C813   Cl837   1.785   .     S
C814   C817    1.418   .     A
C814   Cl838   1.774   .     S
C814   C1002   1.392   .     S
C815   C817    1.433   .     A
C815   C839    1.522   .     S
C815   C999    1.408   .     S
C816   C818    1.407   .     A
C816   C846    1.528   .     S
C819   N826    1.372   .     A
C819   Cl853   1.769   .     S
C820   Cl854   1.763   .     S
C820   N825    1.358   .     A
C820   C1380   1.421   .     S
C821   N825    1.397   .     A
C821   C855    1.530   .     S
C821   C1377   1.437   .     S
C822   C862    1.509   .     S
C822   N826    1.395   .     A
Cu823  O831    1.956   .     S
Cu823  Cu824   2.720   .     S
Cu823  O830    1.964   .     S
Cu823  N825    2.044   .     S
Cu823  O834    1.943   .     S
Cu823  O827    1.971   .     S
Cu824  O832    1.956   .     S
Cu824  N826    2.044   .     S
Cu824  O829    1.964   .     S
Cu824  O828    1.971   .     S
Cu824  O833    1.943   .     S
C839   H844    1.109   .     S
C839   H845    1.100   .     S
C839   C840    1.530   .     S
C840   H843    1.106   .     S
C840   H842    1.110   .     S
C840   H841    1.109   .     S
C846   C847    1.529   .     S
C846   H852    1.110   .     S
C846   H851    1.099   .     S
C847   H849    1.110   .     S
C847   H848    1.111   .     S
C847   H850    1.111   .     S
C855   C856    1.540   .     S
C855   H861    1.083   .     S
C855   H860    1.111   .     S
C856   H858    1.111   .     S
C856   H859    1.110   .     S
C856   H857    1.111   .     S
C862   C863    1.533   .     S
C862   H868    1.108   .     S
C862   H867    1.095   .     S
C863   H866    1.109   .     S
C863   H926    1.109   .     S
H865   C1421   1.110   .     S
C869   O889    1.312   .     A
C869   O891    1.307   .     A
C869   C880    1.472   .     S
C870   O890    1.309   .     A
C870   C879    1.482   .     S
C870   O892    1.312   .     A
C871   O895    1.304   .     A
C871   O893    1.301   .     A
C871   C873    1.449   .     S
C872   O894    1.314   .     A
C872   C874    1.450   .     S
C872   O896    1.293   .     A
C873   Cl897   1.764   .     S
C874   C749    1.331   1_655 S
C874   Cl774   1.777   1_655 S
C875   C880    1.413   .     A
C875   Cl899   1.785   .     S
C876   C879    1.418   .     A
C876   Cl900   1.774   .     S
C876   C1064   1.392   .     S
C877   C879    1.433   .     A
C877   C901    1.522   .     S
C877   C1061   1.408   .     S
C878   C880    1.407   .     A
C878   C908    1.528   .     S
C881   N888    1.372   .     A
C881   Cl915   1.769   .     S
C882   Cl916   1.763   .     S
C882   N887    1.358   .     A
C882   C1442   1.421   .     S
C883   N887    1.397   .     A
C883   C917    1.530   .     S
C883   C1439   1.437   .     S
C884   C924    1.509   .     S
C884   N888    1.395   .     A
Cu885  O893    1.956   .     S
Cu885  Cu886   2.720   .     S
Cu885  O892    1.964   .     S
Cu885  N887    2.044   .     S
Cu885  O896    1.943   .     S
Cu885  O889    1.971   .     S
Cu886  O894    1.956   .     S
Cu886  N888    2.044   .     S
Cu886  O891    1.964   .     S
Cu886  O890    1.971   .     S
Cu886  O895    1.943   .     S
C901   H906    1.109   .     S
C901   H907    1.100   .     S
C901   C902    1.530   .     S
C902   H905    1.106   .     S
C902   H904    1.110   .     S
C902   H903    1.109   .     S
C908   C909    1.529   .     S
C908   H914    1.110   .     S
C908   H913    1.099   .     S
C909   H911    1.110   .     S
C909   H910    1.111   .     S
C909   H912    1.111   .     S
C917   C918    1.540   .     S
C917   H923    1.083   .     S
C917   H922    1.111   .     S
C918   H920    1.111   .     S
C918   H921    1.110   .     S
C918   H919    1.111   .     S
C924   C925    1.533   .     S
C924   H930    1.108   .     S
C924   H929    1.095   .     S
C925   H928    1.109   .     S
C925   H802    1.109   1_655 S
H927   C1483   1.110   .     S
C931   O951    1.312   .     A
C931   O953    1.307   .     A
C931   C942    1.472   .     S
C932   O952    1.309   .     A
C932   C941    1.482   .     S
C932   O954    1.312   .     A
C933   O957    1.304   .     A
C933   O955    1.301   .     A
C933   C935    1.449   .     S
C934   O956    1.314   .     A
C934   C936    1.450   .     S
C934   O958    1.293   .     A
C935   Cl959   1.764   .     S
C935   C1060   1.331   1_455 S
C936   C997    1.331   .     S
C936   Cl1022  1.777   .     S
C937   C942    1.413   .     A
C937   Cl961   1.785   .     S
C938   C941    1.418   .     A
C938   Cl962   1.774   .     S
C938   C568    1.392   1_565 S
C939   C941    1.433   .     A
C939   C963    1.522   .     S
C939   C565    1.408   1_565 S
C940   C942    1.407   .     A
C940   C970    1.528   .     S
C943   N950    1.372   .     A
C943   Cl977   1.769   .     S
C944   Cl978   1.763   .     S
C944   N949    1.358   .     A
C944   C1504   1.421   .     S
C945   N949    1.397   .     A
C945   C979    1.530   .     S
C945   C1501   1.437   .     S
C946   C986    1.509   .     S
C946   N950    1.395   .     A
Cu947  O955    1.956   .     S
Cu947  Cu948   2.720   .     S
Cu947  O954    1.964   .     S
Cu947  N949    2.044   .     S
Cu947  O958    1.943   .     S
Cu947  O951    1.971   .     S
Cu948  O956    1.956   .     S
Cu948  N950    2.044   .     S
Cu948  O953    1.964   .     S
Cu948  O952    1.971   .     S
Cu948  O957    1.943   .     S
Cl960  C1060   1.777   1_455 S
C963   H968    1.109   .     S
C963   H969    1.100   .     S
C963   C964    1.530   .     S
C964   H967    1.106   .     S
C964   H966    1.110   .     S
C964   H965    1.109   .     S
C970   C971    1.529   .     S
C970   H976    1.110   .     S
C970   H975    1.099   .     S
C971   H973    1.110   .     S
C971   H972    1.111   .     S
C971   H974    1.111   .     S
C979   C980    1.540   .     S
C979   H985    1.083   .     S
C979   H984    1.111   .     S
C980   H982    1.111   .     S
C980   H983    1.110   .     S
C980   H981    1.111   .     S
C986   C987    1.533   .     S
C986   H992    1.108   .     S
C986   H991    1.095   .     S
C987   H990    1.109   .     S
C987   H1050   1.109   .     S
H988   C1111   1.109   1_455 S
H989   C1545   1.110   .     S
C993   O1013   1.312   .     A
C993   O1015   1.307   .     A
C993   C1004   1.472   .     S
C994   O1014   1.309   .     A
C994   C1003   1.482   .     S
C994   O1016   1.312   .     A
C995   O1019   1.304   .     A
C995   O1017   1.301   .     A
C995   C997    1.449   .     S
C996   O1018   1.314   .     A
C996   C998    1.450   .     S
C996   O1020   1.293   .     A
C997   Cl1021  1.764   .     S
C998   C1059   1.331   .     S
C998   Cl1084  1.777   .     S
C999   C1004   1.413   .     A
C999   Cl1023  1.785   .     S
C1000  C1003   1.418   .     A
C1000  Cl1024  1.774   .     S
C1000  C630    1.392   1_565 S
C1001  C1003   1.433   .     A
C1001  C1025   1.522   .     S
C1001  C627    1.408   1_565 S
C1002  C1004   1.407   .     A
C1002  C1032   1.528   .     S
C1005  N1012   1.372   .     A
C1005  Cl1039  1.769   .     S
C1006  Cl1040  1.763   .     S
C1006  N1011   1.358   .     A
C1006  C1566   1.421   .     S
C1007  N1011   1.397   .     A
C1007  C1041   1.530   .     S
C1007  C1563   1.437   .     S
C1008  C1048   1.509   .     S
C1008  N1012   1.395   .     A
Cu1009 O1017   1.956   .     S
Cu1009 Cu1010  2.720   .     S
Cu1009 O1016   1.964   .     S
Cu1009 N1011   2.044   .     S
Cu1009 O1020   1.943   .     S
Cu1009 O1013   1.971   .     S
Cu1010 O1018   1.956   .     S
Cu1010 N1012   2.044   .     S
Cu1010 O1015   1.964   .     S
Cu1010 O1014   1.971   .     S
Cu1010 O1019   1.943   .     S
C1025  H1030   1.109   .     S
C1025  H1031   1.100   .     S
C1025  C1026   1.530   .     S
C1026  H1029   1.106   .     S
C1026  H1028   1.110   .     S
C1026  H1027   1.109   .     S
C1032  C1033   1.529   .     S
C1032  H1038   1.110   .     S
C1032  H1037   1.099   .     S
C1033  H1035   1.110   .     S
C1033  H1034   1.111   .     S
C1033  H1036   1.111   .     S
C1041  C1042   1.540   .     S
C1041  H1047   1.083   .     S
C1041  H1046   1.111   .     S
C1042  H1044   1.111   .     S
C1042  H1045   1.110   .     S
C1042  H1043   1.111   .     S
C1048  C1049   1.533   .     S
C1048  H1054   1.108   .     S
C1048  H1053   1.095   .     S
C1049  H1052   1.109   .     S
C1049  H1112   1.109   .     S
H1051  C1607   1.110   .     S
C1055  O1075   1.312   .     A
C1055  O1077   1.307   .     A
C1055  C1066   1.472   .     S
C1056  O1076   1.309   .     A
C1056  C1065   1.482   .     S
C1056  O1078   1.312   .     A
C1057  O1081   1.304   .     A
C1057  O1079   1.301   .     A
C1057  C1059   1.449   .     S
C1058  O1080   1.314   .     A
C1058  C1060   1.450   .     S
C1058  O1082   1.293   .     A
C1059  Cl1083  1.764   .     S
C1060  C935    1.331   1_655 S
C1060  Cl960   1.777   1_655 S
C1061  C1066   1.413   .     A
C1061  Cl1085  1.785   .     S
C1062  C1065   1.418   .     A
C1062  Cl1086  1.774   .     S
C1062  C692    1.392   1_565 S
C1063  C1065   1.433   .     A
C1063  C1087   1.522   .     S
C1063  C689    1.408   1_565 S
C1064  C1066   1.407   .     A
C1064  C1094   1.528   .     S
C1067  N1074   1.372   .     A
C1067  Cl1101  1.769   .     S
C1068  Cl1102  1.763   .     S
C1068  N1073   1.358   .     A
C1068  C1628   1.421   .     S
C1069  N1073   1.397   .     A
C1069  C1103   1.530   .     S
C1069  C1625   1.437   .     S
C1070  C1110   1.509   .     S
C1070  N1074   1.395   .     A
Cu1071 O1079   1.956   .     S
Cu1071 Cu1072  2.720   .     S
Cu1071 O1078   1.964   .     S
Cu1071 N1073   2.044   .     S
Cu1071 O1082   1.943   .     S
Cu1071 O1075   1.971   .     S
Cu1072 O1080   1.956   .     S
Cu1072 N1074   2.044   .     S
Cu1072 O1077   1.964   .     S
Cu1072 O1076   1.971   .     S
Cu1072 O1081   1.943   .     S
C1087  H1092   1.109   .     S
C1087  H1093   1.100   .     S
C1087  C1088   1.530   .     S
C1088  H1091   1.106   .     S
C1088  H1090   1.110   .     S
C1088  H1089   1.109   .     S
C1094  C1095   1.529   .     S
C1094  H1100   1.110   .     S
C1094  H1099   1.099   .     S
C1095  H1097   1.110   .     S
C1095  H1096   1.111   .     S
C1095  H1098   1.111   .     S
C1103  C1104   1.540   .     S
C1103  H1109   1.083   .     S
C1103  H1108   1.111   .     S
C1104  H1106   1.111   .     S
C1104  H1107   1.110   .     S
C1104  H1105   1.111   .     S
C1110  C1111   1.533   .     S
C1110  H1116   1.108   .     S
C1110  H1115   1.095   .     S
C1111  H1114   1.109   .     S
C1111  H988    1.109   1_655 S
H1113  C1669   1.110   .     S
C1117  O1137   1.312   .     A
C1117  O1139   1.307   .     A
C1117  C1128   1.472   .     S
C1118  O1138   1.309   .     A
C1118  C1127   1.482   .     S
C1118  O1140   1.312   .     A
C1119  O1143   1.304   .     A
C1119  O1141   1.301   .     A
C1119  C1121   1.449   .     S
C1120  O1142   1.314   .     A
C1120  C1122   1.450   .     S
C1120  O1144   1.293   .     A
C1121  Cl1145  1.764   .     S
C1121  C1246   1.331   1_455 S
C1122  C1183   1.331   .     S
C1122  Cl1208  1.777   .     S
C1123  C1128   1.413   .     A
C1123  Cl1147  1.785   .     S
C1123  C1497   1.408   1_545 S
C1124  C1127   1.418   .     A
C1124  Cl1148  1.774   .     S
C1124  C1312   1.392   .     S
C1125  C1127   1.433   .     A
C1125  C1149   1.522   .     S
C1125  C1309   1.408   .     S
C1126  C1128   1.407   .     A
C1126  C1156   1.528   .     S
C1126  C1496   1.392   1_545 S
C1129  N1136   1.372   .     A
C1129  Cl1163  1.769   .     S
C1130  Cl1164  1.763   .     S
C1130  N1135   1.358   .     A
C1130  C16     1.421   1_556 S
C1131  N1135   1.397   .     A
C1131  C1165   1.530   .     S
C1131  C13     1.437   1_556 S
C1132  C1172   1.509   .     S
C1132  N1136   1.395   .     A
Cu1133 O1141   1.956   .     S
Cu1133 Cu1134  2.720   .     S
Cu1133 O1140   1.964   .     S
Cu1133 N1135   2.044   .     S
Cu1133 O1144   1.943   .     S
Cu1133 O1137   1.971   .     S
Cu1134 O1142   1.956   .     S
Cu1134 N1136   2.044   .     S
Cu1134 O1139   1.964   .     S
Cu1134 O1138   1.971   .     S
Cu1134 O1143   1.943   .     S
Cl1146 C1246   1.777   1_455 S
C1149  H1154   1.109   .     S
C1149  H1155   1.100   .     S
C1149  C1150   1.530   .     S
C1150  H1153   1.106   .     S
C1150  H1152   1.110   .     S
C1150  H1151   1.109   .     S
C1156  C1157   1.529   .     S
C1156  H1162   1.110   .     S
C1156  H1161   1.099   .     S
C1157  H1159   1.110   .     S
C1157  H1158   1.111   .     S
C1157  H1160   1.111   .     S
C1165  C1166   1.540   .     S
C1165  H1171   1.083   .     S
C1165  H1170   1.111   .     S
C1166  H1168   1.111   .     S
C1166  H1169   1.110   .     S
C1166  H1167   1.111   .     S
C1172  C1173   1.533   .     S
C1172  H1178   1.108   .     S
C1172  H1177   1.095   .     S
C1173  H1176   1.109   .     S
C1173  H1236   1.109   .     S
H1174  C1297   1.109   1_455 S
H1175  C57     1.110   1_556 S
C1179  O1199   1.312   .     A
C1179  O1201   1.307   .     A
C1179  C1190   1.472   .     S
C1180  O1200   1.309   .     A
C1180  C1189   1.482   .     S
C1180  O1202   1.312   .     A
C1181  O1205   1.304   .     A
C1181  O1203   1.301   .     A
C1181  C1183   1.449   .     S
C1182  O1204   1.314   .     A
C1182  C1184   1.450   .     S
C1182  O1206   1.293   .     A
C1183  Cl1207  1.764   .     S
C1184  C1245   1.331   .     S
C1184  Cl1270  1.777   .     S
C1185  C1190   1.413   .     A
C1185  Cl1209  1.785   .     S
C1185  C1559   1.408   1_545 S
C1186  C1189   1.418   .     A
C1186  Cl1210  1.774   .     S
C1186  C1374   1.392   .     S
C1187  C1189   1.433   .     A
C1187  C1211   1.522   .     S
C1187  C1371   1.408   .     S
C1188  C1190   1.407   .     A
C1188  C1218   1.528   .     S
C1188  C1558   1.392   1_545 S
C1191  N1198   1.372   .     A
C1191  Cl1225  1.769   .     S
C1192  Cl1226  1.763   .     S
C1192  N1197   1.358   .     A
C1192  C78     1.421   1_556 S
C1193  N1197   1.397   .     A
C1193  C1227   1.530   .     S
C1193  C75     1.437   1_556 S
C1194  C1234   1.509   .     S
C1194  N1198   1.395   .     A
Cu1195 O1203   1.956   .     S
Cu1195 Cu1196  2.720   .     S
Cu1195 O1202   1.964   .     S
Cu1195 N1197   2.044   .     S
Cu1195 O1206   1.943   .     S
Cu1195 O1199   1.971   .     S
Cu1196 O1204   1.956   .     S
Cu1196 N1198   2.044   .     S
Cu1196 O1201   1.964   .     S
Cu1196 O1200   1.971   .     S
Cu1196 O1205   1.943   .     S
C1211  H1216   1.109   .     S
C1211  H1217   1.100   .     S
C1211  C1212   1.530   .     S
C1212  H1215   1.106   .     S
C1212  H1214   1.110   .     S
C1212  H1213   1.109   .     S
C1218  C1219   1.529   .     S
C1218  H1224   1.110   .     S
C1218  H1223   1.099   .     S
C1219  H1221   1.110   .     S
C1219  H1220   1.111   .     S
C1219  H1222   1.111   .     S
C1227  C1228   1.540   .     S
C1227  H1233   1.083   .     S
C1227  H1232   1.111   .     S
C1228  H1230   1.111   .     S
C1228  H1231   1.110   .     S
C1228  H1229   1.111   .     S
C1234  C1235   1.533   .     S
C1234  H1240   1.108   .     S
C1234  H1239   1.095   .     S
C1235  H1238   1.109   .     S
C1235  H1298   1.109   .     S
H1237  C119    1.110   1_556 S
C1241  O1261   1.312   .     A
C1241  O1263   1.307   .     A
C1241  C1252   1.472   .     S
C1242  O1262   1.309   .     A
C1242  C1251   1.482   .     S
C1242  O1264   1.312   .     A
C1243  O1267   1.304   .     A
C1243  O1265   1.301   .     A
C1243  C1245   1.449   .     S
C1244  O1266   1.314   .     A
C1244  C1246   1.450   .     S
C1244  O1268   1.293   .     A
C1245  Cl1269  1.764   .     S
C1246  C1121   1.331   1_655 S
C1246  Cl1146  1.777   1_655 S
C1247  C1252   1.413   .     A
C1247  Cl1271  1.785   .     S
C1247  C1621   1.408   1_545 S
C1248  C1251   1.418   .     A
C1248  Cl1272  1.774   .     S
C1248  C1436   1.392   .     S
C1249  C1251   1.433   .     A
C1249  C1273   1.522   .     S
C1249  C1433   1.408   .     S
C1250  C1252   1.407   .     A
C1250  C1280   1.528   .     S
C1250  C1620   1.392   1_545 S
C1253  N1260   1.372   .     A
C1253  Cl1287  1.769   .     S
C1254  Cl1288  1.763   .     S
C1254  N1259   1.358   .     A
C1254  C140    1.421   1_556 S
C1255  N1259   1.397   .     A
C1255  C1289   1.530   .     S
C1255  C137    1.437   1_556 S
C1256  C1296   1.509   .     S
C1256  N1260   1.395   .     A
Cu1257 O1265   1.956   .     S
Cu1257 Cu1258  2.720   .     S
Cu1257 O1264   1.964   .     S
Cu1257 N1259   2.044   .     S
Cu1257 O1268   1.943   .     S
Cu1257 O1261   1.971   .     S
Cu1258 O1266   1.956   .     S
Cu1258 N1260   2.044   .     S
Cu1258 O1263   1.964   .     S
Cu1258 O1262   1.971   .     S
Cu1258 O1267   1.943   .     S
C1273  H1278   1.109   .     S
C1273  H1279   1.100   .     S
C1273  C1274   1.530   .     S
C1274  H1277   1.106   .     S
C1274  H1276   1.110   .     S
C1274  H1275   1.109   .     S
C1280  C1281   1.529   .     S
C1280  H1286   1.110   .     S
C1280  H1285   1.099   .     S
C1281  H1283   1.110   .     S
C1281  H1282   1.111   .     S
C1281  H1284   1.111   .     S
C1289  C1290   1.540   .     S
C1289  H1295   1.083   .     S
C1289  H1294   1.111   .     S
C1290  H1292   1.111   .     S
C1290  H1293   1.110   .     S
C1290  H1291   1.111   .     S
C1296  C1297   1.533   .     S
C1296  H1302   1.108   .     S
C1296  H1301   1.095   .     S
C1297  H1300   1.109   .     S
C1297  H1174   1.109   1_655 S
H1299  C181    1.110   1_556 S
C1303  O1323   1.312   .     A
C1303  O1325   1.307   .     A
C1303  C1314   1.472   .     S
C1304  O1324   1.309   .     A
C1304  C1313   1.482   .     S
C1304  O1326   1.312   .     A
C1305  O1329   1.304   .     A
C1305  O1327   1.301   .     A
C1305  C1307   1.449   .     S
C1306  O1328   1.314   .     A
C1306  C1308   1.450   .     S
C1306  O1330   1.293   .     A
C1307  Cl1331  1.764   .     S
C1307  C1432   1.331   1_455 S
C1308  C1369   1.331   .     S
C1308  Cl1394  1.777   .     S
C1309  C1314   1.413   .     A
C1309  Cl1333  1.785   .     S
C1310  C1313   1.418   .     A
C1310  Cl1334  1.774   .     S
C1310  C1498   1.392   .     S
C1311  C1313   1.433   .     A
C1311  C1335   1.522   .     S
C1311  C1495   1.408   .     S
C1312  C1314   1.407   .     A
C1312  C1342   1.528   .     S
C1315  N1322   1.372   .     A
C1315  Cl1349  1.769   .     S
C1316  Cl1350  1.763   .     S
C1316  N1321   1.358   .     A
C1316  C202    1.421   1_556 S
C1317  N1321   1.397   .     A
C1317  C1351   1.530   .     S
C1317  C199    1.437   1_556 S
C1318  C1358   1.509   .     S
C1318  N1322   1.395   .     A
Cu1319 O1327   1.956   .     S
Cu1319 Cu1320  2.720   .     S
Cu1319 O1326   1.964   .     S
Cu1319 N1321   2.044   .     S
Cu1319 O1330   1.943   .     S
Cu1319 O1323   1.971   .     S
Cu1320 O1328   1.956   .     S
Cu1320 N1322   2.044   .     S
Cu1320 O1325   1.964   .     S
Cu1320 O1324   1.971   .     S
Cu1320 O1329   1.943   .     S
Cl1332 C1432   1.777   1_455 S
C1335  H1340   1.109   .     S
C1335  H1341   1.100   .     S
C1335  C1336   1.530   .     S
C1336  H1339   1.106   .     S
C1336  H1338   1.110   .     S
C1336  H1337   1.109   .     S
C1342  C1343   1.529   .     S
C1342  H1348   1.110   .     S
C1342  H1347   1.099   .     S
C1343  H1345   1.110   .     S
C1343  H1344   1.111   .     S
C1343  H1346   1.111   .     S
C1351  C1352   1.540   .     S
C1351  H1357   1.083   .     S
C1351  H1356   1.111   .     S
C1352  H1354   1.111   .     S
C1352  H1355   1.110   .     S
C1352  H1353   1.111   .     S
C1358  C1359   1.533   .     S
C1358  H1364   1.108   .     S
C1358  H1363   1.095   .     S
C1359  H1362   1.109   .     S
C1359  H1422   1.109   .     S
H1360  C1483   1.109   1_455 S
H1361  C243    1.110   1_556 S
C1365  O1385   1.312   .     A
C1365  O1387   1.307   .     A
C1365  C1376   1.472   .     S
C1366  O1386   1.309   .     A
C1366  C1375   1.482   .     S
C1366  O1388   1.312   .     A
C1367  O1391   1.304   .     A
C1367  O1389   1.301   .     A
C1367  C1369   1.449   .     S
C1368  O1390   1.314   .     A
C1368  C1370   1.450   .     S
C1368  O1392   1.293   .     A
C1369  Cl1393  1.764   .     S
C1370  C1431   1.331   .     S
C1370  Cl1456  1.777   .     S
C1371  C1376   1.413   .     A
C1371  Cl1395  1.785   .     S
C1372  C1375   1.418   .     A
C1372  Cl1396  1.774   .     S
C1372  C1560   1.392   .     S
C1373  C1375   1.433   .     A
C1373  C1397   1.522   .     S
C1373  C1557   1.408   .     S
C1374  C1376   1.407   .     A
C1374  C1404   1.528   .     S
C1377  N1384   1.372   .     A
C1377  Cl1411  1.769   .     S
C1378  Cl1412  1.763   .     S
C1378  N1383   1.358   .     A
C1378  C264    1.421   1_556 S
C1379  N1383   1.397   .     A
C1379  C1413   1.530   .     S
C1379  C261    1.437   1_556 S
C1380  C1420   1.509   .     S
C1380  N1384   1.395   .     A
Cu1381 O1389   1.956   .     S
Cu1381 Cu1382  2.720   .     S
Cu1381 O1388   1.964   .     S
Cu1381 N1383   2.044   .     S
Cu1381 O1392   1.943   .     S
Cu1381 O1385   1.971   .     S
Cu1382 O1390   1.956   .     S
Cu1382 N1384   2.044   .     S
Cu1382 O1387   1.964   .     S
Cu1382 O1386   1.971   .     S
Cu1382 O1391   1.943   .     S
C1397  H1402   1.109   .     S
C1397  H1403   1.100   .     S
C1397  C1398   1.530   .     S
C1398  H1401   1.106   .     S
C1398  H1400   1.110   .     S
C1398  H1399   1.109   .     S
C1404  C1405   1.529   .     S
C1404  H1410   1.110   .     S
C1404  H1409   1.099   .     S
C1405  H1407   1.110   .     S
C1405  H1406   1.111   .     S
C1405  H1408   1.111   .     S
C1413  C1414   1.540   .     S
C1413  H1419   1.083   .     S
C1413  H1418   1.111   .     S
C1414  H1416   1.111   .     S
C1414  H1417   1.110   .     S
C1414  H1415   1.111   .     S
C1420  C1421   1.533   .     S
C1420  H1426   1.108   .     S
C1420  H1425   1.095   .     S
C1421  H1424   1.109   .     S
C1421  H1484   1.109   .     S
H1423  C305    1.110   1_556 S
C1427  O1447   1.312   .     A
C1427  O1449   1.307   .     A
C1427  C1438   1.472   .     S
C1428  O1448   1.309   .     A
C1428  C1437   1.482   .     S
C1428  O1450   1.312   .     A
C1429  O1453   1.304   .     A
C1429  O1451   1.301   .     A
C1429  C1431   1.449   .     S
C1430  O1452   1.314   .     A
C1430  C1432   1.450   .     S
C1430  O1454   1.293   .     A
C1431  Cl1455  1.764   .     S
C1432  C1307   1.331   1_655 S
C1432  Cl1332  1.777   1_655 S
C1433  C1438   1.413   .     A
C1433  Cl1457  1.785   .     S
C1434  C1437   1.418   .     A
C1434  Cl1458  1.774   .     S
C1434  C1622   1.392   .     S
C1435  C1437   1.433   .     A
C1435  C1459   1.522   .     S
C1435  C1619   1.408   .     S
C1436  C1438   1.407   .     A
C1436  C1466   1.528   .     S
C1439  N1446   1.372   .     A
C1439  Cl1473  1.769   .     S
C1440  Cl1474  1.763   .     S
C1440  N1445   1.358   .     A
C1440  C326    1.421   1_556 S
C1441  N1445   1.397   .     A
C1441  C1475   1.530   .     S
C1441  C323    1.437   1_556 S
C1442  C1482   1.509   .     S
C1442  N1446   1.395   .     A
Cu1443 O1451   1.956   .     S
Cu1443 Cu1444  2.720   .     S
Cu1443 O1450   1.964   .     S
Cu1443 N1445   2.044   .     S
Cu1443 O1454   1.943   .     S
Cu1443 O1447   1.971   .     S
Cu1444 O1452   1.956   .     S
Cu1444 N1446   2.044   .     S
Cu1444 O1449   1.964   .     S
Cu1444 O1448   1.971   .     S
Cu1444 O1453   1.943   .     S
C1459  H1464   1.109   .     S
C1459  H1465   1.100   .     S
C1459  C1460   1.530   .     S
C1460  H1463   1.106   .     S
C1460  H1462   1.110   .     S
C1460  H1461   1.109   .     S
C1466  C1467   1.529   .     S
C1466  H1472   1.110   .     S
C1466  H1471   1.099   .     S
C1467  H1469   1.110   .     S
C1467  H1468   1.111   .     S
C1467  H1470   1.111   .     S
C1475  C1476   1.540   .     S
C1475  H1481   1.083   .     S
C1475  H1480   1.111   .     S
C1476  H1478   1.111   .     S
C1476  H1479   1.110   .     S
C1476  H1477   1.111   .     S
C1482  C1483   1.533   .     S
C1482  H1488   1.108   .     S
C1482  H1487   1.095   .     S
C1483  H1486   1.109   .     S
C1483  H1360   1.109   1_655 S
H1485  C367    1.110   1_556 S
C1489  O1509   1.312   .     A
C1489  O1511   1.307   .     A
C1489  C1500   1.472   .     S
C1490  O1510   1.309   .     A
C1490  C1499   1.482   .     S
C1490  O1512   1.312   .     A
C1491  O1515   1.304   .     A
C1491  O1513   1.301   .     A
C1491  C1493   1.449   .     S
C1492  O1514   1.314   .     A
C1492  C1494   1.450   .     S
C1492  O1516   1.293   .     A
C1493  Cl1517  1.764   .     S
C1493  C1618   1.331   1_455 S
C1494  C1555   1.331   .     S
C1494  Cl1580  1.777   .     S
C1495  C1500   1.413   .     A
C1495  Cl1519  1.785   .     S
C1496  C1499   1.418   .     A
C1496  Cl1520  1.774   .     S
C1496  C1126   1.392   1_565 S
C1497  C1499   1.433   .     A
C1497  C1521   1.522   .     S
C1497  C1123   1.408   1_565 S
C1498  C1500   1.407   .     A
C1498  C1528   1.528   .     S
C1501  N1508   1.372   .     A
C1501  Cl1535  1.769   .     S
C1502  Cl1536  1.763   .     S
C1502  N1507   1.358   .     A
C1502  C388    1.421   1_556 S
C1503  N1507   1.397   .     A
C1503  C1537   1.530   .     S
C1503  C385    1.437   1_556 S
C1504  C1544   1.509   .     S
C1504  N1508   1.395   .     A
Cu1505 O1513   1.956   .     S
Cu1505 Cu1506  2.720   .     S
Cu1505 O1512   1.964   .     S
Cu1505 N1507   2.044   .     S
Cu1505 O1516   1.943   .     S
Cu1505 O1509   1.971   .     S
Cu1506 O1514   1.956   .     S
Cu1506 N1508   2.044   .     S
Cu1506 O1511   1.964   .     S
Cu1506 O1510   1.971   .     S
Cu1506 O1515   1.943   .     S
Cl1518 C1618   1.777   1_455 S
C1521  H1526   1.109   .     S
C1521  H1527   1.100   .     S
C1521  C1522   1.530   .     S
C1522  H1525   1.106   .     S
C1522  H1524   1.110   .     S
C1522  H1523   1.109   .     S
C1528  C1529   1.529   .     S
C1528  H1534   1.110   .     S
C1528  H1533   1.099   .     S
C1529  H1531   1.110   .     S
C1529  H1530   1.111   .     S
C1529  H1532   1.111   .     S
C1537  C1538   1.540   .     S
C1537  H1543   1.083   .     S
C1537  H1542   1.111   .     S
C1538  H1540   1.111   .     S
C1538  H1541   1.110   .     S
C1538  H1539   1.111   .     S
C1544  C1545   1.533   .     S
C1544  H1550   1.108   .     S
C1544  H1549   1.095   .     S
C1545  H1548   1.109   .     S
C1545  H1608   1.109   .     S
H1546  C1669   1.109   1_455 S
H1547  C429    1.110   1_556 S
C1551  O1571   1.312   .     A
C1551  O1573   1.307   .     A
C1551  C1562   1.472   .     S
C1552  O1572   1.309   .     A
C1552  C1561   1.482   .     S
C1552  O1574   1.312   .     A
C1553  O1577   1.304   .     A
C1553  O1575   1.301   .     A
C1553  C1555   1.449   .     S
C1554  O1576   1.314   .     A
C1554  C1556   1.450   .     S
C1554  O1578   1.293   .     A
C1555  Cl1579  1.764   .     S
C1556  C1617   1.331   .     S
C1556  Cl1642  1.777   .     S
C1557  C1562   1.413   .     A
C1557  Cl1581  1.785   .     S
C1558  C1561   1.418   .     A
C1558  Cl1582  1.774   .     S
C1558  C1188   1.392   1_565 S
C1559  C1561   1.433   .     A
C1559  C1583   1.522   .     S
C1559  C1185   1.408   1_565 S
C1560  C1562   1.407   .     A
C1560  C1590   1.528   .     S
C1563  N1570   1.372   .     A
C1563  Cl1597  1.769   .     S
C1564  Cl1598  1.763   .     S
C1564  N1569   1.358   .     A
C1564  C450    1.421   1_556 S
C1565  N1569   1.397   .     A
C1565  C1599   1.530   .     S
C1565  C447    1.437   1_556 S
C1566  C1606   1.509   .     S
C1566  N1570   1.395   .     A
Cu1567 O1575   1.956   .     S
Cu1567 Cu1568  2.720   .     S
Cu1567 O1574   1.964   .     S
Cu1567 N1569   2.044   .     S
Cu1567 O1578   1.943   .     S
Cu1567 O1571   1.971   .     S
Cu1568 O1576   1.956   .     S
Cu1568 N1570   2.044   .     S
Cu1568 O1573   1.964   .     S
Cu1568 O1572   1.971   .     S
Cu1568 O1577   1.943   .     S
C1583  H1588   1.109   .     S
C1583  H1589   1.100   .     S
C1583  C1584   1.530   .     S
C1584  H1587   1.106   .     S
C1584  H1586   1.110   .     S
C1584  H1585   1.109   .     S
C1590  C1591   1.529   .     S
C1590  H1596   1.110   .     S
C1590  H1595   1.099   .     S
C1591  H1593   1.110   .     S
C1591  H1592   1.111   .     S
C1591  H1594   1.111   .     S
C1599  C1600   1.540   .     S
C1599  H1605   1.083   .     S
C1599  H1604   1.111   .     S
C1600  H1602   1.111   .     S
C1600  H1603   1.110   .     S
C1600  H1601   1.111   .     S
C1606  C1607   1.533   .     S
C1606  H1612   1.108   .     S
C1606  H1611   1.095   .     S
C1607  H1610   1.109   .     S
C1607  H1670   1.109   .     S
H1609  C491    1.110   1_556 S
C1613  O1633   1.312   .     A
C1613  O1635   1.307   .     A
C1613  C1624   1.472   .     S
C1614  O1634   1.309   .     A
C1614  C1623   1.482   .     S
C1614  O1636   1.312   .     A
C1615  O1639   1.304   .     A
C1615  O1637   1.301   .     A
C1615  C1617   1.449   .     S
C1616  O1638   1.314   .     A
C1616  C1618   1.450   .     S
C1616  O1640   1.293   .     A
C1617  Cl1641  1.764   .     S
C1618  C1493   1.331   1_655 S
C1618  Cl1518  1.777   1_655 S
C1619  C1624   1.413   .     A
C1619  Cl1643  1.785   .     S
C1620  C1623   1.418   .     A
C1620  Cl1644  1.774   .     S
C1620  C1250   1.392   1_565 S
C1621  C1623   1.433   .     A
C1621  C1645   1.522   .     S
C1621  C1247   1.408   1_565 S
C1622  C1624   1.407   .     A
C1622  C1652   1.528   .     S
C1625  N1632   1.372   .     A
C1625  Cl1659  1.769   .     S
C1626  Cl1660  1.763   .     S
C1626  N1631   1.358   .     A
C1626  C512    1.421   1_556 S
C1627  N1631   1.397   .     A
C1627  C1661   1.530   .     S
C1627  C509    1.437   1_556 S
C1628  C1668   1.509   .     S
C1628  N1632   1.395   .     A
Cu1629 O1637   1.956   .     S
Cu1629 Cu1630  2.720   .     S
Cu1629 O1636   1.964   .     S
Cu1629 N1631   2.044   .     S
Cu1629 O1640   1.943   .     S
Cu1629 O1633   1.971   .     S
Cu1630 O1638   1.956   .     S
Cu1630 N1632   2.044   .     S
Cu1630 O1635   1.964   .     S
Cu1630 O1634   1.971   .     S
Cu1630 O1639   1.943   .     S
C1645  H1650   1.109   .     S
C1645  H1651   1.100   .     S
C1645  C1646   1.530   .     S
C1646  H1649   1.106   .     S
C1646  H1648   1.110   .     S
C1646  H1647   1.109   .     S
C1652  C1653   1.529   .     S
C1652  H1658   1.110   .     S
C1652  H1657   1.099   .     S
C1653  H1655   1.110   .     S
C1653  H1654   1.111   .     S
C1653  H1656   1.111   .     S
C1661  C1662   1.540   .     S
C1661  H1667   1.083   .     S
C1661  H1666   1.111   .     S
C1662  H1664   1.111   .     S
C1662  H1665   1.110   .     S
C1662  H1663   1.111   .     S
C1668  C1669   1.533   .     S
C1668  H1674   1.108   .     S
C1668  H1673   1.095   .     S
C1669  H1672   1.109   .     S
C1669  H1546   1.109   1_655 S
H1671  C553    1.110   1_556 S
