data_str_m2_o1_o17_pcu_sym.2
_audit_creation_date              2020-01-03
_audit_creation_method            'Materials Studio'
_symmetry_space_group_name_H-M    'P1'
_symmetry_Int_Tables_number       1
_symmetry_cell_setting            triclinic
loop_
_symmetry_equiv_pos_as_xyz
  x,y,z
_cell_length_a                    32.5029
_cell_length_b                    28.4992
_cell_length_c                    30.2809
_cell_angle_alpha                 88.9277
_cell_angle_beta                  90.1569
_cell_angle_gamma                 90.0190
loop_
_atom_site_label
_atom_site_type_symbol
_atom_site_fract_x
_atom_site_fract_y
_atom_site_fract_z
_atom_site_U_iso_or_equiv
_atom_site_adp_type
_atom_site_occupancy
C1     C     0.08733   0.16666   0.24995   0.00000  Uiso   1.00
C2     C     0.04273   0.16666   0.24994   0.00000  Uiso   1.00
C3     C     0.13917   0.02531   0.22473   0.00000  Uiso   1.00
C4     C     0.19416   0.30802   0.27527   0.00000  Uiso   1.00
C5     C     0.19419   0.02434   0.27524   0.00000  Uiso   1.00
C6     C     0.13915   0.30900   0.22476   0.00000  Uiso   1.00
C7     C     0.16552   0.16723   0.16430   0.00000  Uiso   1.00
C8     C     0.16781   0.16611   0.33570   0.00000  Uiso   1.00
C9     C     0.18542   0.12622   0.40855   0.00000  Uiso   1.00
C10    C     0.14791   0.20712   0.09145   0.00000  Uiso   1.00
C11    C     0.16883   0.16481   0.38413   0.00000  Uiso   1.00
C12    C     0.24600   0.16667   0.25005   0.00000  Uiso   1.00
C13    C     0.16450   0.16852   0.11587   0.00000  Uiso   1.00
C14    C     0.15295   0.20338   0.40601   0.00000  Uiso   1.00
C15    C     0.18038   0.12995   0.09399   0.00000  Uiso   1.00
C16    C     0.15236   0.20435   0.45174   0.00000  Uiso   1.00
C17    C     0.18097   0.12898   0.04826   0.00000  Uiso   1.00
C18    C     0.16742   0.16590   0.47675   0.00000  Uiso   1.00
C19    C     0.16591   0.16744   0.02325   0.00000  Uiso   1.00
C20    C     0.18399   0.12609   0.45533   0.00000  Uiso   1.00
C21    C     0.14934   0.20725   0.04467   0.00000  Uiso   1.00
C22    C     0.13659   0.24368   0.47251   0.00000  Uiso   1.00
C23    C     0.13502   0.24580   0.01842   0.00000  Uiso   1.00
C24    C     0.19673   0.08965   0.02749   0.00000  Uiso   1.00
C25    C     0.19830   0.08753   0.48158   0.00000  Uiso   1.00
C26    C     0.02127   0.12401   0.25054   0.00000  Uiso   1.00
C27    C     0.31206   0.20932   0.24946   0.00000  Uiso   1.00
C28    C     0.31204   0.12402   0.25062   0.00000  Uiso   1.00
C29    C     0.02129   0.20932   0.24938   0.00000  Uiso   1.00
C30    C     0.29060   0.16667   0.25006   0.00000  Uiso   1.00
Cu31   Cu    0.16667   0.21355   0.25000   0.00000  Uiso   1.00
Cu32   Cu    0.16667   0.11978   0.25000   0.00000  Uiso   1.00
H33    H     0.03727   0.09067   0.25098   0.00000  Uiso   1.00
H34    H     0.19282   0.10041   0.11281   0.00000  Uiso   1.00
H35    H     0.12543   0.27334   0.45296   0.00000  Uiso   1.00
H36    H     0.20789   0.05998   0.04704   0.00000  Uiso   1.00
H37    H     0.13743   0.31605   0.02665   0.00000  Uiso   1.00
H38    H     0.08938   0.29317   0.02608   0.00000  Uiso   1.00
H39    H     0.24394   0.04016   0.47392   0.00000  Uiso   1.00
H40    H     0.19589   0.01728   0.47335   0.00000  Uiso   1.00
H41    H     0.11718   0.04445   0.20447   0.00000  Uiso   1.00
H42    H     0.21616   0.28888   0.29553   0.00000  Uiso   1.00
H43    H     0.21627   0.04268   0.29537   0.00000  Uiso   1.00
H44    H     0.29606   0.24266   0.24902   0.00000  Uiso   1.00
H45    H     0.11707   0.29065   0.20463   0.00000  Uiso   1.00
H46    H     0.29601   0.09068   0.25113   0.00000  Uiso   1.00
H47    H     0.03732   0.24266   0.24887   0.00000  Uiso   1.00
H48    H     0.18311   0.06856   0.36985   0.00000  Uiso   1.00
H49    H     0.22712   0.10167   0.36427   0.00000  Uiso   1.00
H50    H     0.10621   0.23167   0.13573   0.00000  Uiso   1.00
H51    H     0.15023   0.26477   0.13015   0.00000  Uiso   1.00
H52    H     0.14050   0.23292   0.38719   0.00000  Uiso   1.00
N53    N     0.16667   0.28402   0.25000   0.00000  Uiso   1.00
N54    N     0.16667   0.04931   0.25000   0.00000  Uiso   1.00
N55    N     0.20521   0.08830   0.38638   0.00000  Uiso   1.00
N56    N     0.12812   0.24504   0.11362   0.00000  Uiso   1.00
N57    N     0.11939   0.28778   0.03762   0.00000  Uiso   1.00
N58    N     0.21393   0.04555   0.46238   0.00000  Uiso   1.00
O59    O     0.10655   0.20625   0.25000   0.00000  Uiso   1.00
O60    O     0.22679   0.12709   0.25000   0.00000  Uiso   1.00
O61    O     0.22679   0.20625   0.25001   0.00000  Uiso   1.00
O62    O     0.10655   0.12709   0.25000   0.00000  Uiso   1.00
O63    O     0.16666   0.20627   0.18513   0.00000  Uiso   1.00
O64    O     0.16668   0.12707   0.31487   0.00000  Uiso   1.00
O65    O     0.16668   0.20627   0.31487   0.00000  Uiso   1.00
O66    O     0.16666   0.12707   0.18513   0.00000  Uiso   1.00
C67    C     0.42067   0.16666   0.24995   0.00000  Uiso   1.00
C68    C     0.37606   0.16666   0.24994   0.00000  Uiso   1.00
C69    C     0.47250   0.02531   0.22473   0.00000  Uiso   1.00
C70    C     0.52750   0.30802   0.27527   0.00000  Uiso   1.00
C71    C     0.52752   0.02434   0.27524   0.00000  Uiso   1.00
C72    C     0.47248   0.30900   0.22476   0.00000  Uiso   1.00
C73    C     0.49885   0.16723   0.16430   0.00000  Uiso   1.00
C74    C     0.50115   0.16611   0.33570   0.00000  Uiso   1.00
C75    C     0.51875   0.12622   0.40855   0.00000  Uiso   1.00
C76    C     0.48125   0.20712   0.09145   0.00000  Uiso   1.00
C77    C     0.50217   0.16481   0.38413   0.00000  Uiso   1.00
C78    C     0.57933   0.16667   0.25005   0.00000  Uiso   1.00
C79    C     0.49783   0.16852   0.11587   0.00000  Uiso   1.00
C80    C     0.48628   0.20338   0.40601   0.00000  Uiso   1.00
C81    C     0.51371   0.12995   0.09399   0.00000  Uiso   1.00
C82    C     0.48569   0.20435   0.45174   0.00000  Uiso   1.00
C83    C     0.51430   0.12898   0.04826   0.00000  Uiso   1.00
C84    C     0.50076   0.16590   0.47675   0.00000  Uiso   1.00
C85    C     0.49924   0.16744   0.02325   0.00000  Uiso   1.00
C86    C     0.51732   0.12609   0.45533   0.00000  Uiso   1.00
C87    C     0.48267   0.20725   0.04467   0.00000  Uiso   1.00
C88    C     0.46993   0.24368   0.47251   0.00000  Uiso   1.00
C89    C     0.46836   0.24580   0.01842   0.00000  Uiso   1.00
C90    C     0.53007   0.08965   0.02749   0.00000  Uiso   1.00
C91    C     0.53164   0.08753   0.48158   0.00000  Uiso   1.00
C92    C     0.35460   0.12401   0.25054   0.00000  Uiso   1.00
C93    C     0.64540   0.20932   0.24946   0.00000  Uiso   1.00
C94    C     0.64537   0.12402   0.25062   0.00000  Uiso   1.00
C95    C     0.35463   0.20932   0.24938   0.00000  Uiso   1.00
C96    C     0.62394   0.16667   0.25006   0.00000  Uiso   1.00
Cu97   Cu    0.50000   0.21355   0.25000   0.00000  Uiso   1.00
Cu98   Cu    0.50000   0.11978   0.25000   0.00000  Uiso   1.00
H99    H     0.37061   0.09067   0.25098   0.00000  Uiso   1.00
H100   H     0.52616   0.10041   0.11281   0.00000  Uiso   1.00
H101   H     0.45877   0.27334   0.45296   0.00000  Uiso   1.00
H102   H     0.54122   0.05998   0.04704   0.00000  Uiso   1.00
H103   H     0.47076   0.31605   0.02665   0.00000  Uiso   1.00
H104   H     0.42271   0.29317   0.02608   0.00000  Uiso   1.00
H105   H     0.57728   0.04016   0.47392   0.00000  Uiso   1.00
H106   H     0.52922   0.01728   0.47335   0.00000  Uiso   1.00
H107   H     0.45051   0.04445   0.20447   0.00000  Uiso   1.00
H108   H     0.54949   0.28888   0.29553   0.00000  Uiso   1.00
H109   H     0.54960   0.04268   0.29537   0.00000  Uiso   1.00
H110   H     0.62939   0.24266   0.24902   0.00000  Uiso   1.00
H111   H     0.45040   0.29065   0.20463   0.00000  Uiso   1.00
H112   H     0.62935   0.09068   0.25113   0.00000  Uiso   1.00
H113   H     0.37065   0.24266   0.24887   0.00000  Uiso   1.00
H114   H     0.51645   0.06856   0.36985   0.00000  Uiso   1.00
H115   H     0.56046   0.10167   0.36427   0.00000  Uiso   1.00
H116   H     0.43955   0.23167   0.13573   0.00000  Uiso   1.00
H117   H     0.48356   0.26477   0.13015   0.00000  Uiso   1.00
H118   H     0.47384   0.23292   0.38719   0.00000  Uiso   1.00
N119   N     0.50000   0.28402   0.25000   0.00000  Uiso   1.00
N120   N     0.50000   0.04931   0.25000   0.00000  Uiso   1.00
N121   N     0.53855   0.08830   0.38638   0.00000  Uiso   1.00
N122   N     0.46146   0.24504   0.11362   0.00000  Uiso   1.00
N123   N     0.45272   0.28778   0.03762   0.00000  Uiso   1.00
N124   N     0.54727   0.04555   0.46238   0.00000  Uiso   1.00
O125   O     0.43988   0.20625   0.25000   0.00000  Uiso   1.00
O126   O     0.56012   0.12709   0.25000   0.00000  Uiso   1.00
O127   O     0.56012   0.20625   0.25001   0.00000  Uiso   1.00
O128   O     0.43988   0.12709   0.25000   0.00000  Uiso   1.00
O129   O     0.49999   0.20627   0.18513   0.00000  Uiso   1.00
O130   O     0.50001   0.12707   0.31487   0.00000  Uiso   1.00
O131   O     0.50001   0.20627   0.31487   0.00000  Uiso   1.00
O132   O     0.49999   0.12707   0.18513   0.00000  Uiso   1.00
C133   C     0.75400   0.16666   0.24995   0.00000  Uiso   1.00
C134   C     0.70940   0.16666   0.24994   0.00000  Uiso   1.00
C135   C     0.80584   0.02531   0.22473   0.00000  Uiso   1.00
C136   C     0.86083   0.30802   0.27527   0.00000  Uiso   1.00
C137   C     0.86085   0.02434   0.27524   0.00000  Uiso   1.00
C138   C     0.80581   0.30900   0.22476   0.00000  Uiso   1.00
C139   C     0.83219   0.16723   0.16430   0.00000  Uiso   1.00
C140   C     0.83448   0.16611   0.33570   0.00000  Uiso   1.00
C141   C     0.85209   0.12622   0.40855   0.00000  Uiso   1.00
C142   C     0.81458   0.20712   0.09145   0.00000  Uiso   1.00
C143   C     0.83550   0.16481   0.38413   0.00000  Uiso   1.00
C144   C     0.91266   0.16667   0.25005   0.00000  Uiso   1.00
C145   C     0.83116   0.16852   0.11587   0.00000  Uiso   1.00
C146   C     0.81961   0.20338   0.40601   0.00000  Uiso   1.00
C147   C     0.84705   0.12995   0.09399   0.00000  Uiso   1.00
C148   C     0.81902   0.20435   0.45174   0.00000  Uiso   1.00
C149   C     0.84764   0.12898   0.04826   0.00000  Uiso   1.00
C150   C     0.83409   0.16590   0.47675   0.00000  Uiso   1.00
C151   C     0.83257   0.16744   0.02325   0.00000  Uiso   1.00
C152   C     0.85066   0.12609   0.45533   0.00000  Uiso   1.00
C153   C     0.81601   0.20725   0.04467   0.00000  Uiso   1.00
C154   C     0.80326   0.24368   0.47251   0.00000  Uiso   1.00
C155   C     0.80169   0.24580   0.01842   0.00000  Uiso   1.00
C156   C     0.86340   0.08965   0.02749   0.00000  Uiso   1.00
C157   C     0.86497   0.08753   0.48158   0.00000  Uiso   1.00
C158   C     0.68794   0.12401   0.25054   0.00000  Uiso   1.00
C159   C     0.97873   0.20932   0.24946   0.00000  Uiso   1.00
C160   C     0.97871   0.12402   0.25062   0.00000  Uiso   1.00
C161   C     0.68796   0.20932   0.24938   0.00000  Uiso   1.00
C162   C     0.95727   0.16667   0.25006   0.00000  Uiso   1.00
Cu163  Cu    0.83333   0.21355   0.25000   0.00000  Uiso   1.00
Cu164  Cu    0.83333   0.11978   0.25000   0.00000  Uiso   1.00
H165   H     0.70394   0.09067   0.25098   0.00000  Uiso   1.00
H166   H     0.85949   0.10041   0.11281   0.00000  Uiso   1.00
H167   H     0.79210   0.27334   0.45296   0.00000  Uiso   1.00
H168   H     0.87455   0.05998   0.04704   0.00000  Uiso   1.00
H169   H     0.80409   0.31605   0.02665   0.00000  Uiso   1.00
H170   H     0.75604   0.29317   0.02608   0.00000  Uiso   1.00
H171   H     0.91061   0.04016   0.47392   0.00000  Uiso   1.00
H172   H     0.86256   0.01728   0.47335   0.00000  Uiso   1.00
H173   H     0.78384   0.04445   0.20447   0.00000  Uiso   1.00
H174   H     0.88282   0.28888   0.29553   0.00000  Uiso   1.00
H175   H     0.88293   0.04268   0.29537   0.00000  Uiso   1.00
H176   H     0.96273   0.24266   0.24902   0.00000  Uiso   1.00
H177   H     0.78373   0.29065   0.20463   0.00000  Uiso   1.00
H178   H     0.96268   0.09068   0.25113   0.00000  Uiso   1.00
H179   H     0.70398   0.24266   0.24887   0.00000  Uiso   1.00
H180   H     0.84978   0.06856   0.36985   0.00000  Uiso   1.00
H181   H     0.89379   0.10167   0.36427   0.00000  Uiso   1.00
H182   H     0.77288   0.23167   0.13573   0.00000  Uiso   1.00
H183   H     0.81689   0.26477   0.13015   0.00000  Uiso   1.00
H184   H     0.80717   0.23292   0.38719   0.00000  Uiso   1.00
N185   N     0.83333   0.28402   0.25000   0.00000  Uiso   1.00
N186   N     0.83333   0.04931   0.25000   0.00000  Uiso   1.00
N187   N     0.87188   0.08830   0.38638   0.00000  Uiso   1.00
N188   N     0.79479   0.24504   0.11362   0.00000  Uiso   1.00
N189   N     0.78606   0.28778   0.03762   0.00000  Uiso   1.00
N190   N     0.88060   0.04555   0.46238   0.00000  Uiso   1.00
O191   O     0.77321   0.20625   0.25000   0.00000  Uiso   1.00
O192   O     0.89345   0.12709   0.25000   0.00000  Uiso   1.00
O193   O     0.89345   0.20625   0.25001   0.00000  Uiso   1.00
O194   O     0.77321   0.12709   0.25000   0.00000  Uiso   1.00
O195   O     0.83332   0.20627   0.18513   0.00000  Uiso   1.00
O196   O     0.83334   0.12707   0.31487   0.00000  Uiso   1.00
O197   O     0.83334   0.20627   0.31487   0.00000  Uiso   1.00
O198   O     0.83332   0.12707   0.18513   0.00000  Uiso   1.00
C199   C     0.08733   0.50000   0.24995   0.00000  Uiso   1.00
C200   C     0.04273   0.50000   0.24994   0.00000  Uiso   1.00
C201   C     0.13917   0.35865   0.22473   0.00000  Uiso   1.00
C202   C     0.19416   0.64135   0.27527   0.00000  Uiso   1.00
C203   C     0.19419   0.35767   0.27524   0.00000  Uiso   1.00
C204   C     0.13915   0.64233   0.22476   0.00000  Uiso   1.00
C205   C     0.16552   0.50056   0.16430   0.00000  Uiso   1.00
C206   C     0.16781   0.49944   0.33570   0.00000  Uiso   1.00
C207   C     0.18542   0.45955   0.40855   0.00000  Uiso   1.00
C208   C     0.14791   0.54045   0.09145   0.00000  Uiso   1.00
C209   C     0.16883   0.49814   0.38413   0.00000  Uiso   1.00
C210   C     0.24600   0.50000   0.25005   0.00000  Uiso   1.00
C211   C     0.16450   0.50186   0.11587   0.00000  Uiso   1.00
C212   C     0.15295   0.53671   0.40601   0.00000  Uiso   1.00
C213   C     0.18038   0.46329   0.09399   0.00000  Uiso   1.00
C214   C     0.15236   0.53769   0.45174   0.00000  Uiso   1.00
C215   C     0.18097   0.46231   0.04826   0.00000  Uiso   1.00
C216   C     0.16742   0.49923   0.47675   0.00000  Uiso   1.00
C217   C     0.16591   0.50077   0.02325   0.00000  Uiso   1.00
C218   C     0.18399   0.45942   0.45533   0.00000  Uiso   1.00
C219   C     0.14934   0.54058   0.04467   0.00000  Uiso   1.00
C220   C     0.13659   0.57701   0.47251   0.00000  Uiso   1.00
C221   C     0.13502   0.57914   0.01842   0.00000  Uiso   1.00
C222   C     0.19673   0.42299   0.02749   0.00000  Uiso   1.00
C223   C     0.19830   0.42086   0.48158   0.00000  Uiso   1.00
C224   C     0.02127   0.45735   0.25054   0.00000  Uiso   1.00
C225   C     0.31206   0.54265   0.24946   0.00000  Uiso   1.00
C226   C     0.31204   0.45735   0.25062   0.00000  Uiso   1.00
C227   C     0.02129   0.54265   0.24938   0.00000  Uiso   1.00
C228   C     0.29060   0.50000   0.25006   0.00000  Uiso   1.00
Cu229  Cu    0.16667   0.54689   0.25000   0.00000  Uiso   1.00
Cu230  Cu    0.16667   0.45311   0.25000   0.00000  Uiso   1.00
H231   H     0.03727   0.42400   0.25098   0.00000  Uiso   1.00
H232   H     0.19282   0.43374   0.11281   0.00000  Uiso   1.00
H233   H     0.12543   0.60668   0.45296   0.00000  Uiso   1.00
H234   H     0.20789   0.39332   0.04704   0.00000  Uiso   1.00
H235   H     0.13743   0.64938   0.02665   0.00000  Uiso   1.00
H236   H     0.08938   0.62650   0.02608   0.00000  Uiso   1.00
H237   H     0.24394   0.37349   0.47392   0.00000  Uiso   1.00
H238   H     0.19589   0.35062   0.47335   0.00000  Uiso   1.00
H239   H     0.11718   0.37778   0.20447   0.00000  Uiso   1.00
H240   H     0.21616   0.62222   0.29553   0.00000  Uiso   1.00
H241   H     0.21627   0.37602   0.29537   0.00000  Uiso   1.00
H242   H     0.29606   0.57600   0.24902   0.00000  Uiso   1.00
H243   H     0.11707   0.62398   0.20463   0.00000  Uiso   1.00
H244   H     0.29601   0.42401   0.25113   0.00000  Uiso   1.00
H245   H     0.03732   0.57599   0.24887   0.00000  Uiso   1.00
H246   H     0.18311   0.40190   0.36985   0.00000  Uiso   1.00
H247   H     0.22712   0.43500   0.36427   0.00000  Uiso   1.00
H248   H     0.10621   0.56500   0.13573   0.00000  Uiso   1.00
H249   H     0.15023   0.59811   0.13015   0.00000  Uiso   1.00
H250   H     0.14050   0.56625   0.38719   0.00000  Uiso   1.00
N251   N     0.16667   0.61736   0.25000   0.00000  Uiso   1.00
N252   N     0.16667   0.38264   0.25000   0.00000  Uiso   1.00
N253   N     0.20521   0.42163   0.38638   0.00000  Uiso   1.00
N254   N     0.12812   0.57838   0.11362   0.00000  Uiso   1.00
N255   N     0.11939   0.62112   0.03762   0.00000  Uiso   1.00
N256   N     0.21393   0.37888   0.46238   0.00000  Uiso   1.00
O257   O     0.10655   0.53958   0.25000   0.00000  Uiso   1.00
O258   O     0.22679   0.46042   0.25000   0.00000  Uiso   1.00
O259   O     0.22679   0.53958   0.25001   0.00000  Uiso   1.00
O260   O     0.10655   0.46042   0.25000   0.00000  Uiso   1.00
O261   O     0.16666   0.53960   0.18513   0.00000  Uiso   1.00
O262   O     0.16668   0.46040   0.31487   0.00000  Uiso   1.00
O263   O     0.16668   0.53960   0.31487   0.00000  Uiso   1.00
O264   O     0.16666   0.46040   0.18513   0.00000  Uiso   1.00
C265   C     0.42067   0.50000   0.24995   0.00000  Uiso   1.00
C266   C     0.37606   0.50000   0.24994   0.00000  Uiso   1.00
C267   C     0.47250   0.35865   0.22473   0.00000  Uiso   1.00
C268   C     0.52750   0.64135   0.27527   0.00000  Uiso   1.00
C269   C     0.52752   0.35767   0.27524   0.00000  Uiso   1.00
C270   C     0.47248   0.64233   0.22476   0.00000  Uiso   1.00
C271   C     0.49885   0.50056   0.16430   0.00000  Uiso   1.00
C272   C     0.50115   0.49944   0.33570   0.00000  Uiso   1.00
C273   C     0.51875   0.45955   0.40855   0.00000  Uiso   1.00
C274   C     0.48125   0.54045   0.09145   0.00000  Uiso   1.00
C275   C     0.50217   0.49814   0.38413   0.00000  Uiso   1.00
C276   C     0.57933   0.50000   0.25005   0.00000  Uiso   1.00
C277   C     0.49783   0.50186   0.11587   0.00000  Uiso   1.00
C278   C     0.48628   0.53671   0.40601   0.00000  Uiso   1.00
C279   C     0.51371   0.46329   0.09399   0.00000  Uiso   1.00
C280   C     0.48569   0.53769   0.45174   0.00000  Uiso   1.00
C281   C     0.51430   0.46231   0.04826   0.00000  Uiso   1.00
C282   C     0.50076   0.49923   0.47675   0.00000  Uiso   1.00
C283   C     0.49924   0.50077   0.02325   0.00000  Uiso   1.00
C284   C     0.51732   0.45942   0.45533   0.00000  Uiso   1.00
C285   C     0.48267   0.54058   0.04467   0.00000  Uiso   1.00
C286   C     0.46993   0.57701   0.47251   0.00000  Uiso   1.00
C287   C     0.46836   0.57914   0.01842   0.00000  Uiso   1.00
C288   C     0.53007   0.42299   0.02749   0.00000  Uiso   1.00
C289   C     0.53164   0.42086   0.48158   0.00000  Uiso   1.00
C290   C     0.35460   0.45735   0.25054   0.00000  Uiso   1.00
C291   C     0.64540   0.54265   0.24946   0.00000  Uiso   1.00
C292   C     0.64537   0.45735   0.25062   0.00000  Uiso   1.00
C293   C     0.35463   0.54265   0.24938   0.00000  Uiso   1.00
C294   C     0.62394   0.50000   0.25006   0.00000  Uiso   1.00
Cu295  Cu    0.50000   0.54689   0.25000   0.00000  Uiso   1.00
Cu296  Cu    0.50000   0.45311   0.25000   0.00000  Uiso   1.00
H297   H     0.37061   0.42400   0.25098   0.00000  Uiso   1.00
H298   H     0.52616   0.43374   0.11281   0.00000  Uiso   1.00
H299   H     0.45877   0.60668   0.45296   0.00000  Uiso   1.00
H300   H     0.54122   0.39332   0.04704   0.00000  Uiso   1.00
H301   H     0.47076   0.64938   0.02665   0.00000  Uiso   1.00
H302   H     0.42271   0.62650   0.02608   0.00000  Uiso   1.00
H303   H     0.57728   0.37349   0.47392   0.00000  Uiso   1.00
H304   H     0.52922   0.35062   0.47335   0.00000  Uiso   1.00
H305   H     0.45051   0.37778   0.20447   0.00000  Uiso   1.00
H306   H     0.54949   0.62222   0.29553   0.00000  Uiso   1.00
H307   H     0.54960   0.37602   0.29537   0.00000  Uiso   1.00
H308   H     0.62939   0.57600   0.24902   0.00000  Uiso   1.00
H309   H     0.45040   0.62398   0.20463   0.00000  Uiso   1.00
H310   H     0.62935   0.42401   0.25113   0.00000  Uiso   1.00
H311   H     0.37065   0.57599   0.24887   0.00000  Uiso   1.00
H312   H     0.51645   0.40190   0.36985   0.00000  Uiso   1.00
H313   H     0.56046   0.43500   0.36427   0.00000  Uiso   1.00
H314   H     0.43955   0.56500   0.13573   0.00000  Uiso   1.00
H315   H     0.48356   0.59811   0.13015   0.00000  Uiso   1.00
H316   H     0.47384   0.56625   0.38719   0.00000  Uiso   1.00
N317   N     0.50000   0.61736   0.25000   0.00000  Uiso   1.00
N318   N     0.50000   0.38264   0.25000   0.00000  Uiso   1.00
N319   N     0.53855   0.42163   0.38638   0.00000  Uiso   1.00
N320   N     0.46146   0.57838   0.11362   0.00000  Uiso   1.00
N321   N     0.45272   0.62112   0.03762   0.00000  Uiso   1.00
N322   N     0.54727   0.37888   0.46238   0.00000  Uiso   1.00
O323   O     0.43988   0.53958   0.25000   0.00000  Uiso   1.00
O324   O     0.56012   0.46042   0.25000   0.00000  Uiso   1.00
O325   O     0.56012   0.53958   0.25001   0.00000  Uiso   1.00
O326   O     0.43988   0.46042   0.25000   0.00000  Uiso   1.00
O327   O     0.49999   0.53960   0.18513   0.00000  Uiso   1.00
O328   O     0.50001   0.46040   0.31487   0.00000  Uiso   1.00
O329   O     0.50001   0.53960   0.31487   0.00000  Uiso   1.00
O330   O     0.49999   0.46040   0.18513   0.00000  Uiso   1.00
C331   C     0.75400   0.50000   0.24995   0.00000  Uiso   1.00
C332   C     0.70940   0.50000   0.24994   0.00000  Uiso   1.00
C333   C     0.80584   0.35865   0.22473   0.00000  Uiso   1.00
C334   C     0.86083   0.64135   0.27527   0.00000  Uiso   1.00
C335   C     0.86085   0.35767   0.27524   0.00000  Uiso   1.00
C336   C     0.80581   0.64233   0.22476   0.00000  Uiso   1.00
C337   C     0.83219   0.50056   0.16430   0.00000  Uiso   1.00
C338   C     0.83448   0.49944   0.33570   0.00000  Uiso   1.00
C339   C     0.85209   0.45955   0.40855   0.00000  Uiso   1.00
C340   C     0.81458   0.54045   0.09145   0.00000  Uiso   1.00
C341   C     0.83550   0.49814   0.38413   0.00000  Uiso   1.00
C342   C     0.91266   0.50000   0.25005   0.00000  Uiso   1.00
C343   C     0.83116   0.50186   0.11587   0.00000  Uiso   1.00
C344   C     0.81961   0.53671   0.40601   0.00000  Uiso   1.00
C345   C     0.84705   0.46329   0.09399   0.00000  Uiso   1.00
C346   C     0.81902   0.53769   0.45174   0.00000  Uiso   1.00
C347   C     0.84764   0.46231   0.04826   0.00000  Uiso   1.00
C348   C     0.83409   0.49923   0.47675   0.00000  Uiso   1.00
C349   C     0.83257   0.50077   0.02325   0.00000  Uiso   1.00
C350   C     0.85066   0.45942   0.45533   0.00000  Uiso   1.00
C351   C     0.81601   0.54058   0.04467   0.00000  Uiso   1.00
C352   C     0.80326   0.57701   0.47251   0.00000  Uiso   1.00
C353   C     0.80169   0.57914   0.01842   0.00000  Uiso   1.00
C354   C     0.86340   0.42299   0.02749   0.00000  Uiso   1.00
C355   C     0.86497   0.42086   0.48158   0.00000  Uiso   1.00
C356   C     0.68794   0.45735   0.25054   0.00000  Uiso   1.00
C357   C     0.97873   0.54265   0.24946   0.00000  Uiso   1.00
C358   C     0.97871   0.45735   0.25062   0.00000  Uiso   1.00
C359   C     0.68796   0.54265   0.24938   0.00000  Uiso   1.00
C360   C     0.95727   0.50000   0.25006   0.00000  Uiso   1.00
Cu361  Cu    0.83333   0.54689   0.25000   0.00000  Uiso   1.00
Cu362  Cu    0.83333   0.45311   0.25000   0.00000  Uiso   1.00
H363   H     0.70394   0.42400   0.25098   0.00000  Uiso   1.00
H364   H     0.85949   0.43374   0.11281   0.00000  Uiso   1.00
H365   H     0.79210   0.60668   0.45296   0.00000  Uiso   1.00
H366   H     0.87455   0.39332   0.04704   0.00000  Uiso   1.00
H367   H     0.80409   0.64938   0.02665   0.00000  Uiso   1.00
H368   H     0.75604   0.62650   0.02608   0.00000  Uiso   1.00
H369   H     0.91061   0.37349   0.47392   0.00000  Uiso   1.00
H370   H     0.86256   0.35062   0.47335   0.00000  Uiso   1.00
H371   H     0.78384   0.37778   0.20447   0.00000  Uiso   1.00
H372   H     0.88282   0.62222   0.29553   0.00000  Uiso   1.00
H373   H     0.88293   0.37602   0.29537   0.00000  Uiso   1.00
H374   H     0.96273   0.57600   0.24902   0.00000  Uiso   1.00
H375   H     0.78373   0.62398   0.20463   0.00000  Uiso   1.00
H376   H     0.96268   0.42401   0.25113   0.00000  Uiso   1.00
H377   H     0.70398   0.57599   0.24887   0.00000  Uiso   1.00
H378   H     0.84978   0.40190   0.36985   0.00000  Uiso   1.00
H379   H     0.89379   0.43500   0.36427   0.00000  Uiso   1.00
H380   H     0.77288   0.56500   0.13573   0.00000  Uiso   1.00
H381   H     0.81689   0.59811   0.13015   0.00000  Uiso   1.00
H382   H     0.80717   0.56625   0.38719   0.00000  Uiso   1.00
N383   N     0.83333   0.61736   0.25000   0.00000  Uiso   1.00
N384   N     0.83333   0.38264   0.25000   0.00000  Uiso   1.00
N385   N     0.87188   0.42163   0.38638   0.00000  Uiso   1.00
N386   N     0.79479   0.57838   0.11362   0.00000  Uiso   1.00
N387   N     0.78606   0.62112   0.03762   0.00000  Uiso   1.00
N388   N     0.88060   0.37888   0.46238   0.00000  Uiso   1.00
O389   O     0.77321   0.53958   0.25000   0.00000  Uiso   1.00
O390   O     0.89345   0.46042   0.25000   0.00000  Uiso   1.00
O391   O     0.89345   0.53958   0.25001   0.00000  Uiso   1.00
O392   O     0.77321   0.46042   0.25000   0.00000  Uiso   1.00
O393   O     0.83332   0.53960   0.18513   0.00000  Uiso   1.00
O394   O     0.83334   0.46040   0.31487   0.00000  Uiso   1.00
O395   O     0.83334   0.53960   0.31487   0.00000  Uiso   1.00
O396   O     0.83332   0.46040   0.18513   0.00000  Uiso   1.00
C397   C     0.08733   0.83333   0.24995   0.00000  Uiso   1.00
C398   C     0.04273   0.83333   0.24994   0.00000  Uiso   1.00
C399   C     0.13917   0.69198   0.22473   0.00000  Uiso   1.00
C400   C     0.19416   0.97469   0.27527   0.00000  Uiso   1.00
C401   C     0.19419   0.69100   0.27524   0.00000  Uiso   1.00
C402   C     0.13915   0.97566   0.22476   0.00000  Uiso   1.00
C403   C     0.16552   0.83389   0.16430   0.00000  Uiso   1.00
C404   C     0.16781   0.83277   0.33570   0.00000  Uiso   1.00
C405   C     0.18542   0.79288   0.40855   0.00000  Uiso   1.00
C406   C     0.14791   0.87378   0.09145   0.00000  Uiso   1.00
C407   C     0.16883   0.83148   0.38413   0.00000  Uiso   1.00
C408   C     0.24600   0.83334   0.25005   0.00000  Uiso   1.00
C409   C     0.16450   0.83519   0.11587   0.00000  Uiso   1.00
C410   C     0.15295   0.87005   0.40601   0.00000  Uiso   1.00
C411   C     0.18038   0.79662   0.09399   0.00000  Uiso   1.00
C412   C     0.15236   0.87102   0.45174   0.00000  Uiso   1.00
C413   C     0.18097   0.79565   0.04826   0.00000  Uiso   1.00
C414   C     0.16742   0.83256   0.47675   0.00000  Uiso   1.00
C415   C     0.16591   0.83410   0.02325   0.00000  Uiso   1.00
C416   C     0.18399   0.79275   0.45533   0.00000  Uiso   1.00
C417   C     0.14934   0.87391   0.04467   0.00000  Uiso   1.00
C418   C     0.13659   0.91034   0.47251   0.00000  Uiso   1.00
C419   C     0.13502   0.91247   0.01842   0.00000  Uiso   1.00
C420   C     0.19673   0.75632   0.02749   0.00000  Uiso   1.00
C421   C     0.19830   0.75419   0.48158   0.00000  Uiso   1.00
C422   C     0.02127   0.79068   0.25054   0.00000  Uiso   1.00
C423   C     0.31206   0.87599   0.24946   0.00000  Uiso   1.00
C424   C     0.31204   0.79068   0.25062   0.00000  Uiso   1.00
C425   C     0.02129   0.87598   0.24938   0.00000  Uiso   1.00
C426   C     0.29060   0.83334   0.25006   0.00000  Uiso   1.00
Cu427  Cu    0.16667   0.88022   0.25000   0.00000  Uiso   1.00
Cu428  Cu    0.16667   0.78645   0.25000   0.00000  Uiso   1.00
H429   H     0.03727   0.75734   0.25098   0.00000  Uiso   1.00
H430   H     0.19282   0.76708   0.11281   0.00000  Uiso   1.00
H431   H     0.12543   0.94001   0.45296   0.00000  Uiso   1.00
H432   H     0.20789   0.72665   0.04704   0.00000  Uiso   1.00
H433   H     0.13743   0.98272   0.02665   0.00000  Uiso   1.00
H434   H     0.08938   0.95983   0.02608   0.00000  Uiso   1.00
H435   H     0.24394   0.70682   0.47392   0.00000  Uiso   1.00
H436   H     0.19589   0.68395   0.47335   0.00000  Uiso   1.00
H437   H     0.11718   0.71112   0.20447   0.00000  Uiso   1.00
H438   H     0.21616   0.95555   0.29553   0.00000  Uiso   1.00
H439   H     0.21627   0.70935   0.29537   0.00000  Uiso   1.00
H440   H     0.29606   0.90933   0.24902   0.00000  Uiso   1.00
H441   H     0.11707   0.95732   0.20463   0.00000  Uiso   1.00
H442   H     0.29601   0.75734   0.25113   0.00000  Uiso   1.00
H443   H     0.03732   0.90932   0.24887   0.00000  Uiso   1.00
H444   H     0.18311   0.73523   0.36985   0.00000  Uiso   1.00
H445   H     0.22712   0.76834   0.36427   0.00000  Uiso   1.00
H446   H     0.10621   0.89834   0.13573   0.00000  Uiso   1.00
H447   H     0.15023   0.93144   0.13015   0.00000  Uiso   1.00
H448   H     0.14050   0.89959   0.38719   0.00000  Uiso   1.00
N449   N     0.16667   0.95069   0.25000   0.00000  Uiso   1.00
N450   N     0.16667   0.71598   0.25000   0.00000  Uiso   1.00
N451   N     0.20521   0.75496   0.38638   0.00000  Uiso   1.00
N452   N     0.12812   0.91171   0.11362   0.00000  Uiso   1.00
N453   N     0.11939   0.95445   0.03762   0.00000  Uiso   1.00
N454   N     0.21393   0.71221   0.46238   0.00000  Uiso   1.00
O455   O     0.10655   0.87291   0.25000   0.00000  Uiso   1.00
O456   O     0.22679   0.79375   0.25000   0.00000  Uiso   1.00
O457   O     0.22679   0.87291   0.25001   0.00000  Uiso   1.00
O458   O     0.10655   0.79375   0.25000   0.00000  Uiso   1.00
O459   O     0.16666   0.87293   0.18513   0.00000  Uiso   1.00
O460   O     0.16668   0.79373   0.31487   0.00000  Uiso   1.00
O461   O     0.16668   0.87293   0.31487   0.00000  Uiso   1.00
O462   O     0.16666   0.79373   0.18513   0.00000  Uiso   1.00
C463   C     0.42067   0.83333   0.24995   0.00000  Uiso   1.00
C464   C     0.37606   0.83333   0.24994   0.00000  Uiso   1.00
C465   C     0.47250   0.69198   0.22473   0.00000  Uiso   1.00
C466   C     0.52750   0.97469   0.27527   0.00000  Uiso   1.00
C467   C     0.52752   0.69100   0.27524   0.00000  Uiso   1.00
C468   C     0.47248   0.97566   0.22476   0.00000  Uiso   1.00
C469   C     0.49885   0.83389   0.16430   0.00000  Uiso   1.00
C470   C     0.50115   0.83277   0.33570   0.00000  Uiso   1.00
C471   C     0.51875   0.79288   0.40855   0.00000  Uiso   1.00
C472   C     0.48125   0.87378   0.09145   0.00000  Uiso   1.00
C473   C     0.50217   0.83148   0.38413   0.00000  Uiso   1.00
C474   C     0.57933   0.83334   0.25005   0.00000  Uiso   1.00
C475   C     0.49783   0.83519   0.11587   0.00000  Uiso   1.00
C476   C     0.48628   0.87005   0.40601   0.00000  Uiso   1.00
C477   C     0.51371   0.79662   0.09399   0.00000  Uiso   1.00
C478   C     0.48569   0.87102   0.45174   0.00000  Uiso   1.00
C479   C     0.51430   0.79565   0.04826   0.00000  Uiso   1.00
C480   C     0.50076   0.83256   0.47675   0.00000  Uiso   1.00
C481   C     0.49924   0.83410   0.02325   0.00000  Uiso   1.00
C482   C     0.51732   0.79275   0.45533   0.00000  Uiso   1.00
C483   C     0.48267   0.87391   0.04467   0.00000  Uiso   1.00
C484   C     0.46993   0.91034   0.47251   0.00000  Uiso   1.00
C485   C     0.46836   0.91247   0.01842   0.00000  Uiso   1.00
C486   C     0.53007   0.75632   0.02749   0.00000  Uiso   1.00
C487   C     0.53164   0.75419   0.48158   0.00000  Uiso   1.00
C488   C     0.35460   0.79068   0.25054   0.00000  Uiso   1.00
C489   C     0.64540   0.87599   0.24946   0.00000  Uiso   1.00
C490   C     0.64537   0.79068   0.25062   0.00000  Uiso   1.00
C491   C     0.35463   0.87598   0.24938   0.00000  Uiso   1.00
C492   C     0.62394   0.83334   0.25006   0.00000  Uiso   1.00
Cu493  Cu    0.50000   0.88022   0.25000   0.00000  Uiso   1.00
Cu494  Cu    0.50000   0.78645   0.25000   0.00000  Uiso   1.00
H495   H     0.37061   0.75734   0.25098   0.00000  Uiso   1.00
H496   H     0.52616   0.76708   0.11281   0.00000  Uiso   1.00
H497   H     0.45877   0.94001   0.45296   0.00000  Uiso   1.00
H498   H     0.54122   0.72665   0.04704   0.00000  Uiso   1.00
H499   H     0.47076   0.98272   0.02665   0.00000  Uiso   1.00
H500   H     0.42271   0.95983   0.02608   0.00000  Uiso   1.00
H501   H     0.57728   0.70682   0.47392   0.00000  Uiso   1.00
H502   H     0.52922   0.68395   0.47335   0.00000  Uiso   1.00
H503   H     0.45051   0.71112   0.20447   0.00000  Uiso   1.00
H504   H     0.54949   0.95555   0.29553   0.00000  Uiso   1.00
H505   H     0.54960   0.70935   0.29537   0.00000  Uiso   1.00
H506   H     0.62939   0.90933   0.24902   0.00000  Uiso   1.00
H507   H     0.45040   0.95732   0.20463   0.00000  Uiso   1.00
H508   H     0.62935   0.75734   0.25113   0.00000  Uiso   1.00
H509   H     0.37065   0.90932   0.24887   0.00000  Uiso   1.00
H510   H     0.51645   0.73523   0.36985   0.00000  Uiso   1.00
H511   H     0.56046   0.76834   0.36427   0.00000  Uiso   1.00
H512   H     0.43955   0.89834   0.13573   0.00000  Uiso   1.00
H513   H     0.48356   0.93144   0.13015   0.00000  Uiso   1.00
H514   H     0.47384   0.89959   0.38719   0.00000  Uiso   1.00
N515   N     0.50000   0.95069   0.25000   0.00000  Uiso   1.00
N516   N     0.50000   0.71598   0.25000   0.00000  Uiso   1.00
N517   N     0.53855   0.75496   0.38638   0.00000  Uiso   1.00
N518   N     0.46146   0.91171   0.11362   0.00000  Uiso   1.00
N519   N     0.45272   0.95445   0.03762   0.00000  Uiso   1.00
N520   N     0.54727   0.71221   0.46238   0.00000  Uiso   1.00
O521   O     0.43988   0.87291   0.25000   0.00000  Uiso   1.00
O522   O     0.56012   0.79375   0.25000   0.00000  Uiso   1.00
O523   O     0.56012   0.87291   0.25001   0.00000  Uiso   1.00
O524   O     0.43988   0.79375   0.25000   0.00000  Uiso   1.00
O525   O     0.49999   0.87293   0.18513   0.00000  Uiso   1.00
O526   O     0.50001   0.79373   0.31487   0.00000  Uiso   1.00
O527   O     0.50001   0.87293   0.31487   0.00000  Uiso   1.00
O528   O     0.49999   0.79373   0.18513   0.00000  Uiso   1.00
C529   C     0.75400   0.83333   0.24995   0.00000  Uiso   1.00
C530   C     0.70940   0.83333   0.24994   0.00000  Uiso   1.00
C531   C     0.80584   0.69198   0.22473   0.00000  Uiso   1.00
C532   C     0.86083   0.97469   0.27527   0.00000  Uiso   1.00
C533   C     0.86085   0.69100   0.27524   0.00000  Uiso   1.00
C534   C     0.80581   0.97566   0.22476   0.00000  Uiso   1.00
C535   C     0.83219   0.83389   0.16430   0.00000  Uiso   1.00
C536   C     0.83448   0.83277   0.33570   0.00000  Uiso   1.00
C537   C     0.85209   0.79288   0.40855   0.00000  Uiso   1.00
C538   C     0.81458   0.87378   0.09145   0.00000  Uiso   1.00
C539   C     0.83550   0.83148   0.38413   0.00000  Uiso   1.00
C540   C     0.91266   0.83334   0.25005   0.00000  Uiso   1.00
C541   C     0.83116   0.83519   0.11587   0.00000  Uiso   1.00
C542   C     0.81961   0.87005   0.40601   0.00000  Uiso   1.00
C543   C     0.84705   0.79662   0.09399   0.00000  Uiso   1.00
C544   C     0.81902   0.87102   0.45174   0.00000  Uiso   1.00
C545   C     0.84764   0.79565   0.04826   0.00000  Uiso   1.00
C546   C     0.83409   0.83256   0.47675   0.00000  Uiso   1.00
C547   C     0.83257   0.83410   0.02325   0.00000  Uiso   1.00
C548   C     0.85066   0.79275   0.45533   0.00000  Uiso   1.00
C549   C     0.81601   0.87391   0.04467   0.00000  Uiso   1.00
C550   C     0.80326   0.91034   0.47251   0.00000  Uiso   1.00
C551   C     0.80169   0.91247   0.01842   0.00000  Uiso   1.00
C552   C     0.86340   0.75632   0.02749   0.00000  Uiso   1.00
C553   C     0.86497   0.75419   0.48158   0.00000  Uiso   1.00
C554   C     0.68794   0.79068   0.25054   0.00000  Uiso   1.00
C555   C     0.97873   0.87599   0.24946   0.00000  Uiso   1.00
C556   C     0.97871   0.79068   0.25062   0.00000  Uiso   1.00
C557   C     0.68796   0.87598   0.24938   0.00000  Uiso   1.00
C558   C     0.95727   0.83334   0.25006   0.00000  Uiso   1.00
Cu559  Cu    0.83333   0.88022   0.25000   0.00000  Uiso   1.00
Cu560  Cu    0.83333   0.78645   0.25000   0.00000  Uiso   1.00
H561   H     0.70394   0.75734   0.25098   0.00000  Uiso   1.00
H562   H     0.85949   0.76708   0.11281   0.00000  Uiso   1.00
H563   H     0.79210   0.94001   0.45296   0.00000  Uiso   1.00
H564   H     0.87455   0.72665   0.04704   0.00000  Uiso   1.00
H565   H     0.80409   0.98272   0.02665   0.00000  Uiso   1.00
H566   H     0.75604   0.95983   0.02608   0.00000  Uiso   1.00
H567   H     0.91061   0.70682   0.47392   0.00000  Uiso   1.00
H568   H     0.86256   0.68395   0.47335   0.00000  Uiso   1.00
H569   H     0.78384   0.71112   0.20447   0.00000  Uiso   1.00
H570   H     0.88282   0.95555   0.29553   0.00000  Uiso   1.00
H571   H     0.88293   0.70935   0.29537   0.00000  Uiso   1.00
H572   H     0.96273   0.90933   0.24902   0.00000  Uiso   1.00
H573   H     0.78373   0.95732   0.20463   0.00000  Uiso   1.00
H574   H     0.96268   0.75734   0.25113   0.00000  Uiso   1.00
H575   H     0.70398   0.90932   0.24887   0.00000  Uiso   1.00
H576   H     0.84978   0.73523   0.36985   0.00000  Uiso   1.00
H577   H     0.89379   0.76834   0.36427   0.00000  Uiso   1.00
H578   H     0.77288   0.89834   0.13573   0.00000  Uiso   1.00
H579   H     0.81689   0.93144   0.13015   0.00000  Uiso   1.00
H580   H     0.80717   0.89959   0.38719   0.00000  Uiso   1.00
N581   N     0.83333   0.95069   0.25000   0.00000  Uiso   1.00
N582   N     0.83333   0.71598   0.25000   0.00000  Uiso   1.00
N583   N     0.87188   0.75496   0.38638   0.00000  Uiso   1.00
N584   N     0.79479   0.91171   0.11362   0.00000  Uiso   1.00
N585   N     0.78606   0.95445   0.03762   0.00000  Uiso   1.00
N586   N     0.88060   0.71221   0.46238   0.00000  Uiso   1.00
O587   O     0.77321   0.87291   0.25000   0.00000  Uiso   1.00
O588   O     0.89345   0.79375   0.25000   0.00000  Uiso   1.00
O589   O     0.89345   0.87291   0.25001   0.00000  Uiso   1.00
O590   O     0.77321   0.79375   0.25000   0.00000  Uiso   1.00
O591   O     0.83332   0.87293   0.18513   0.00000  Uiso   1.00
O592   O     0.83334   0.79373   0.31487   0.00000  Uiso   1.00
O593   O     0.83334   0.87293   0.31487   0.00000  Uiso   1.00
O594   O     0.83332   0.79373   0.18513   0.00000  Uiso   1.00
C595   C     0.08733   0.16666   0.74995   0.00000  Uiso   1.00
C596   C     0.04273   0.16666   0.74994   0.00000  Uiso   1.00
C597   C     0.13917   0.02531   0.72473   0.00000  Uiso   1.00
C598   C     0.19416   0.30802   0.77527   0.00000  Uiso   1.00
C599   C     0.19419   0.02434   0.77524   0.00000  Uiso   1.00
C600   C     0.13915   0.30900   0.72476   0.00000  Uiso   1.00
C601   C     0.16552   0.16723   0.66430   0.00000  Uiso   1.00
C602   C     0.16781   0.16611   0.83570   0.00000  Uiso   1.00
C603   C     0.18542   0.12622   0.90855   0.00000  Uiso   1.00
C604   C     0.14791   0.20712   0.59145   0.00000  Uiso   1.00
C605   C     0.16883   0.16481   0.88413   0.00000  Uiso   1.00
C606   C     0.24600   0.16667   0.75005   0.00000  Uiso   1.00
C607   C     0.16450   0.16852   0.61587   0.00000  Uiso   1.00
C608   C     0.15295   0.20338   0.90601   0.00000  Uiso   1.00
C609   C     0.18038   0.12995   0.59399   0.00000  Uiso   1.00
C610   C     0.15236   0.20435   0.95174   0.00000  Uiso   1.00
C611   C     0.18097   0.12898   0.54826   0.00000  Uiso   1.00
C612   C     0.16742   0.16590   0.97675   0.00000  Uiso   1.00
C613   C     0.16591   0.16744   0.52325   0.00000  Uiso   1.00
C614   C     0.18399   0.12609   0.95533   0.00000  Uiso   1.00
C615   C     0.14934   0.20725   0.54467   0.00000  Uiso   1.00
C616   C     0.13659   0.24368   0.97251   0.00000  Uiso   1.00
C617   C     0.13502   0.24580   0.51842   0.00000  Uiso   1.00
C618   C     0.19673   0.08965   0.52749   0.00000  Uiso   1.00
C619   C     0.19830   0.08753   0.98158   0.00000  Uiso   1.00
C620   C     0.02127   0.12401   0.75054   0.00000  Uiso   1.00
C621   C     0.31206   0.20932   0.74946   0.00000  Uiso   1.00
C622   C     0.31204   0.12402   0.75062   0.00000  Uiso   1.00
C623   C     0.02129   0.20932   0.74938   0.00000  Uiso   1.00
C624   C     0.29060   0.16667   0.75006   0.00000  Uiso   1.00
Cu625  Cu    0.16667   0.21355   0.75000   0.00000  Uiso   1.00
Cu626  Cu    0.16667   0.11978   0.75000   0.00000  Uiso   1.00
H627   H     0.03727   0.09067   0.75098   0.00000  Uiso   1.00
H628   H     0.19282   0.10041   0.61281   0.00000  Uiso   1.00
H629   H     0.12543   0.27334   0.95296   0.00000  Uiso   1.00
H630   H     0.20789   0.05998   0.54704   0.00000  Uiso   1.00
H631   H     0.13743   0.31605   0.52665   0.00000  Uiso   1.00
H632   H     0.08938   0.29317   0.52608   0.00000  Uiso   1.00
H633   H     0.24394   0.04016   0.97392   0.00000  Uiso   1.00
H634   H     0.19589   0.01728   0.97335   0.00000  Uiso   1.00
H635   H     0.11718   0.04445   0.70447   0.00000  Uiso   1.00
H636   H     0.21616   0.28888   0.79553   0.00000  Uiso   1.00
H637   H     0.21627   0.04268   0.79537   0.00000  Uiso   1.00
H638   H     0.29606   0.24266   0.74902   0.00000  Uiso   1.00
H639   H     0.11707   0.29065   0.70463   0.00000  Uiso   1.00
H640   H     0.29601   0.09068   0.75113   0.00000  Uiso   1.00
H641   H     0.03732   0.24266   0.74887   0.00000  Uiso   1.00
H642   H     0.18311   0.06856   0.86985   0.00000  Uiso   1.00
H643   H     0.22712   0.10167   0.86427   0.00000  Uiso   1.00
H644   H     0.10621   0.23167   0.63573   0.00000  Uiso   1.00
H645   H     0.15023   0.26477   0.63015   0.00000  Uiso   1.00
H646   H     0.14050   0.23292   0.88719   0.00000  Uiso   1.00
N647   N     0.16667   0.28402   0.75000   0.00000  Uiso   1.00
N648   N     0.16667   0.04931   0.75000   0.00000  Uiso   1.00
N649   N     0.20521   0.08830   0.88638   0.00000  Uiso   1.00
N650   N     0.12812   0.24504   0.61362   0.00000  Uiso   1.00
N651   N     0.11939   0.28778   0.53762   0.00000  Uiso   1.00
N652   N     0.21393   0.04555   0.96238   0.00000  Uiso   1.00
O653   O     0.10655   0.20625   0.75000   0.00000  Uiso   1.00
O654   O     0.22679   0.12709   0.75000   0.00000  Uiso   1.00
O655   O     0.22679   0.20625   0.75001   0.00000  Uiso   1.00
O656   O     0.10655   0.12709   0.75000   0.00000  Uiso   1.00
O657   O     0.16666   0.20627   0.68513   0.00000  Uiso   1.00
O658   O     0.16668   0.12707   0.81487   0.00000  Uiso   1.00
O659   O     0.16668   0.20627   0.81487   0.00000  Uiso   1.00
O660   O     0.16666   0.12707   0.68513   0.00000  Uiso   1.00
C661   C     0.42067   0.16666   0.74995   0.00000  Uiso   1.00
C662   C     0.37606   0.16666   0.74994   0.00000  Uiso   1.00
C663   C     0.47250   0.02531   0.72473   0.00000  Uiso   1.00
C664   C     0.52750   0.30802   0.77527   0.00000  Uiso   1.00
C665   C     0.52752   0.02434   0.77524   0.00000  Uiso   1.00
C666   C     0.47248   0.30900   0.72476   0.00000  Uiso   1.00
C667   C     0.49885   0.16723   0.66430   0.00000  Uiso   1.00
C668   C     0.50115   0.16611   0.83570   0.00000  Uiso   1.00
C669   C     0.51875   0.12622   0.90855   0.00000  Uiso   1.00
C670   C     0.48125   0.20712   0.59145   0.00000  Uiso   1.00
C671   C     0.50217   0.16481   0.88413   0.00000  Uiso   1.00
C672   C     0.57933   0.16667   0.75005   0.00000  Uiso   1.00
C673   C     0.49783   0.16852   0.61587   0.00000  Uiso   1.00
C674   C     0.48628   0.20338   0.90601   0.00000  Uiso   1.00
C675   C     0.51371   0.12995   0.59399   0.00000  Uiso   1.00
C676   C     0.48569   0.20435   0.95174   0.00000  Uiso   1.00
C677   C     0.51430   0.12898   0.54826   0.00000  Uiso   1.00
C678   C     0.50076   0.16590   0.97675   0.00000  Uiso   1.00
C679   C     0.49924   0.16744   0.52325   0.00000  Uiso   1.00
C680   C     0.51732   0.12609   0.95533   0.00000  Uiso   1.00
C681   C     0.48267   0.20725   0.54467   0.00000  Uiso   1.00
C682   C     0.46993   0.24368   0.97251   0.00000  Uiso   1.00
C683   C     0.46836   0.24580   0.51842   0.00000  Uiso   1.00
C684   C     0.53007   0.08965   0.52749   0.00000  Uiso   1.00
C685   C     0.53164   0.08753   0.98158   0.00000  Uiso   1.00
C686   C     0.35460   0.12401   0.75054   0.00000  Uiso   1.00
C687   C     0.64540   0.20932   0.74946   0.00000  Uiso   1.00
C688   C     0.64537   0.12402   0.75062   0.00000  Uiso   1.00
C689   C     0.35463   0.20932   0.74938   0.00000  Uiso   1.00
C690   C     0.62394   0.16667   0.75006   0.00000  Uiso   1.00
Cu691  Cu    0.50000   0.21355   0.75000   0.00000  Uiso   1.00
Cu692  Cu    0.50000   0.11978   0.75000   0.00000  Uiso   1.00
H693   H     0.37061   0.09067   0.75098   0.00000  Uiso   1.00
H694   H     0.52616   0.10041   0.61281   0.00000  Uiso   1.00
H695   H     0.45877   0.27334   0.95296   0.00000  Uiso   1.00
H696   H     0.54122   0.05998   0.54704   0.00000  Uiso   1.00
H697   H     0.47076   0.31605   0.52665   0.00000  Uiso   1.00
H698   H     0.42271   0.29317   0.52608   0.00000  Uiso   1.00
H699   H     0.57728   0.04016   0.97392   0.00000  Uiso   1.00
H700   H     0.52922   0.01728   0.97335   0.00000  Uiso   1.00
H701   H     0.45051   0.04445   0.70447   0.00000  Uiso   1.00
H702   H     0.54949   0.28888   0.79553   0.00000  Uiso   1.00
H703   H     0.54960   0.04268   0.79537   0.00000  Uiso   1.00
H704   H     0.62939   0.24266   0.74902   0.00000  Uiso   1.00
H705   H     0.45040   0.29065   0.70463   0.00000  Uiso   1.00
H706   H     0.62935   0.09068   0.75113   0.00000  Uiso   1.00
H707   H     0.37065   0.24266   0.74887   0.00000  Uiso   1.00
H708   H     0.51645   0.06856   0.86985   0.00000  Uiso   1.00
H709   H     0.56046   0.10167   0.86427   0.00000  Uiso   1.00
H710   H     0.43955   0.23167   0.63573   0.00000  Uiso   1.00
H711   H     0.48356   0.26477   0.63015   0.00000  Uiso   1.00
H712   H     0.47384   0.23292   0.88719   0.00000  Uiso   1.00
N713   N     0.50000   0.28402   0.75000   0.00000  Uiso   1.00
N714   N     0.50000   0.04931   0.75000   0.00000  Uiso   1.00
N715   N     0.53855   0.08830   0.88638   0.00000  Uiso   1.00
N716   N     0.46146   0.24504   0.61362   0.00000  Uiso   1.00
N717   N     0.45272   0.28778   0.53762   0.00000  Uiso   1.00
N718   N     0.54727   0.04555   0.96238   0.00000  Uiso   1.00
O719   O     0.43988   0.20625   0.75000   0.00000  Uiso   1.00
O720   O     0.56012   0.12709   0.75000   0.00000  Uiso   1.00
O721   O     0.56012   0.20625   0.75001   0.00000  Uiso   1.00
O722   O     0.43988   0.12709   0.75000   0.00000  Uiso   1.00
O723   O     0.49999   0.20627   0.68513   0.00000  Uiso   1.00
O724   O     0.50001   0.12707   0.81487   0.00000  Uiso   1.00
O725   O     0.50001   0.20627   0.81487   0.00000  Uiso   1.00
O726   O     0.49999   0.12707   0.68513   0.00000  Uiso   1.00
C727   C     0.75400   0.16666   0.74995   0.00000  Uiso   1.00
C728   C     0.70940   0.16666   0.74994   0.00000  Uiso   1.00
C729   C     0.80584   0.02531   0.72473   0.00000  Uiso   1.00
C730   C     0.86083   0.30802   0.77527   0.00000  Uiso   1.00
C731   C     0.86085   0.02434   0.77524   0.00000  Uiso   1.00
C732   C     0.80581   0.30900   0.72476   0.00000  Uiso   1.00
C733   C     0.83219   0.16723   0.66430   0.00000  Uiso   1.00
C734   C     0.83448   0.16611   0.83570   0.00000  Uiso   1.00
C735   C     0.85209   0.12622   0.90855   0.00000  Uiso   1.00
C736   C     0.81458   0.20712   0.59145   0.00000  Uiso   1.00
C737   C     0.83550   0.16481   0.88413   0.00000  Uiso   1.00
C738   C     0.91266   0.16667   0.75005   0.00000  Uiso   1.00
C739   C     0.83116   0.16852   0.61587   0.00000  Uiso   1.00
C740   C     0.81961   0.20338   0.90601   0.00000  Uiso   1.00
C741   C     0.84705   0.12995   0.59399   0.00000  Uiso   1.00
C742   C     0.81902   0.20435   0.95174   0.00000  Uiso   1.00
C743   C     0.84764   0.12898   0.54826   0.00000  Uiso   1.00
C744   C     0.83409   0.16590   0.97675   0.00000  Uiso   1.00
C745   C     0.83257   0.16744   0.52325   0.00000  Uiso   1.00
C746   C     0.85066   0.12609   0.95533   0.00000  Uiso   1.00
C747   C     0.81601   0.20725   0.54467   0.00000  Uiso   1.00
C748   C     0.80326   0.24368   0.97251   0.00000  Uiso   1.00
C749   C     0.80169   0.24580   0.51842   0.00000  Uiso   1.00
C750   C     0.86340   0.08965   0.52749   0.00000  Uiso   1.00
C751   C     0.86497   0.08753   0.98158   0.00000  Uiso   1.00
C752   C     0.68794   0.12401   0.75054   0.00000  Uiso   1.00
C753   C     0.97873   0.20932   0.74946   0.00000  Uiso   1.00
C754   C     0.97871   0.12402   0.75062   0.00000  Uiso   1.00
C755   C     0.68796   0.20932   0.74938   0.00000  Uiso   1.00
C756   C     0.95727   0.16667   0.75006   0.00000  Uiso   1.00
Cu757  Cu    0.83333   0.21355   0.75000   0.00000  Uiso   1.00
Cu758  Cu    0.83333   0.11978   0.75000   0.00000  Uiso   1.00
H759   H     0.70394   0.09067   0.75098   0.00000  Uiso   1.00
H760   H     0.85949   0.10041   0.61281   0.00000  Uiso   1.00
H761   H     0.79210   0.27334   0.95296   0.00000  Uiso   1.00
H762   H     0.87455   0.05998   0.54704   0.00000  Uiso   1.00
H763   H     0.80409   0.31605   0.52665   0.00000  Uiso   1.00
H764   H     0.75604   0.29317   0.52608   0.00000  Uiso   1.00
H765   H     0.91061   0.04016   0.97392   0.00000  Uiso   1.00
H766   H     0.86256   0.01728   0.97335   0.00000  Uiso   1.00
H767   H     0.78384   0.04445   0.70447   0.00000  Uiso   1.00
H768   H     0.88282   0.28888   0.79553   0.00000  Uiso   1.00
H769   H     0.88293   0.04268   0.79537   0.00000  Uiso   1.00
H770   H     0.96273   0.24266   0.74902   0.00000  Uiso   1.00
H771   H     0.78373   0.29065   0.70463   0.00000  Uiso   1.00
H772   H     0.96268   0.09068   0.75113   0.00000  Uiso   1.00
H773   H     0.70398   0.24266   0.74887   0.00000  Uiso   1.00
H774   H     0.84978   0.06856   0.86985   0.00000  Uiso   1.00
H775   H     0.89379   0.10167   0.86427   0.00000  Uiso   1.00
H776   H     0.77288   0.23167   0.63573   0.00000  Uiso   1.00
H777   H     0.81689   0.26477   0.63015   0.00000  Uiso   1.00
H778   H     0.80717   0.23292   0.88719   0.00000  Uiso   1.00
N779   N     0.83333   0.28402   0.75000   0.00000  Uiso   1.00
N780   N     0.83333   0.04931   0.75000   0.00000  Uiso   1.00
N781   N     0.87188   0.08830   0.88638   0.00000  Uiso   1.00
N782   N     0.79479   0.24504   0.61362   0.00000  Uiso   1.00
N783   N     0.78606   0.28778   0.53762   0.00000  Uiso   1.00
N784   N     0.88060   0.04555   0.96238   0.00000  Uiso   1.00
O785   O     0.77321   0.20625   0.75000   0.00000  Uiso   1.00
O786   O     0.89345   0.12709   0.75000   0.00000  Uiso   1.00
O787   O     0.89345   0.20625   0.75001   0.00000  Uiso   1.00
O788   O     0.77321   0.12709   0.75000   0.00000  Uiso   1.00
O789   O     0.83332   0.20627   0.68513   0.00000  Uiso   1.00
O790   O     0.83334   0.12707   0.81487   0.00000  Uiso   1.00
O791   O     0.83334   0.20627   0.81487   0.00000  Uiso   1.00
O792   O     0.83332   0.12707   0.68513   0.00000  Uiso   1.00
C793   C     0.08733   0.50000   0.74995   0.00000  Uiso   1.00
C794   C     0.04273   0.50000   0.74994   0.00000  Uiso   1.00
C795   C     0.13917   0.35865   0.72473   0.00000  Uiso   1.00
C796   C     0.19416   0.64135   0.77527   0.00000  Uiso   1.00
C797   C     0.19419   0.35767   0.77524   0.00000  Uiso   1.00
C798   C     0.13915   0.64233   0.72476   0.00000  Uiso   1.00
C799   C     0.16552   0.50056   0.66430   0.00000  Uiso   1.00
C800   C     0.16781   0.49944   0.83570   0.00000  Uiso   1.00
C801   C     0.18542   0.45955   0.90855   0.00000  Uiso   1.00
C802   C     0.14791   0.54045   0.59145   0.00000  Uiso   1.00
C803   C     0.16883   0.49814   0.88413   0.00000  Uiso   1.00
C804   C     0.24600   0.50000   0.75005   0.00000  Uiso   1.00
C805   C     0.16450   0.50186   0.61587   0.00000  Uiso   1.00
C806   C     0.15295   0.53671   0.90601   0.00000  Uiso   1.00
C807   C     0.18038   0.46329   0.59399   0.00000  Uiso   1.00
C808   C     0.15236   0.53769   0.95174   0.00000  Uiso   1.00
C809   C     0.18097   0.46231   0.54826   0.00000  Uiso   1.00
C810   C     0.16742   0.49923   0.97675   0.00000  Uiso   1.00
C811   C     0.16591   0.50077   0.52325   0.00000  Uiso   1.00
C812   C     0.18399   0.45942   0.95533   0.00000  Uiso   1.00
C813   C     0.14934   0.54058   0.54467   0.00000  Uiso   1.00
C814   C     0.13659   0.57701   0.97251   0.00000  Uiso   1.00
C815   C     0.13502   0.57914   0.51842   0.00000  Uiso   1.00
C816   C     0.19673   0.42299   0.52749   0.00000  Uiso   1.00
C817   C     0.19830   0.42086   0.98158   0.00000  Uiso   1.00
C818   C     0.02127   0.45735   0.75054   0.00000  Uiso   1.00
C819   C     0.31206   0.54265   0.74946   0.00000  Uiso   1.00
C820   C     0.31204   0.45735   0.75062   0.00000  Uiso   1.00
C821   C     0.02129   0.54265   0.74938   0.00000  Uiso   1.00
C822   C     0.29060   0.50000   0.75006   0.00000  Uiso   1.00
Cu823  Cu    0.16667   0.54689   0.75000   0.00000  Uiso   1.00
Cu824  Cu    0.16667   0.45311   0.75000   0.00000  Uiso   1.00
H825   H     0.03727   0.42400   0.75098   0.00000  Uiso   1.00
H826   H     0.19282   0.43374   0.61281   0.00000  Uiso   1.00
H827   H     0.12543   0.60668   0.95296   0.00000  Uiso   1.00
H828   H     0.20789   0.39332   0.54704   0.00000  Uiso   1.00
H829   H     0.13743   0.64938   0.52665   0.00000  Uiso   1.00
H830   H     0.08938   0.62650   0.52608   0.00000  Uiso   1.00
H831   H     0.24394   0.37349   0.97392   0.00000  Uiso   1.00
H832   H     0.19589   0.35062   0.97335   0.00000  Uiso   1.00
H833   H     0.11718   0.37778   0.70447   0.00000  Uiso   1.00
H834   H     0.21616   0.62222   0.79553   0.00000  Uiso   1.00
H835   H     0.21627   0.37602   0.79537   0.00000  Uiso   1.00
H836   H     0.29606   0.57600   0.74902   0.00000  Uiso   1.00
H837   H     0.11707   0.62398   0.70463   0.00000  Uiso   1.00
H838   H     0.29601   0.42401   0.75113   0.00000  Uiso   1.00
H839   H     0.03732   0.57599   0.74887   0.00000  Uiso   1.00
H840   H     0.18311   0.40190   0.86985   0.00000  Uiso   1.00
H841   H     0.22712   0.43500   0.86427   0.00000  Uiso   1.00
H842   H     0.10621   0.56500   0.63573   0.00000  Uiso   1.00
H843   H     0.15023   0.59811   0.63015   0.00000  Uiso   1.00
H844   H     0.14050   0.56625   0.88719   0.00000  Uiso   1.00
N845   N     0.16667   0.61736   0.75000   0.00000  Uiso   1.00
N846   N     0.16667   0.38264   0.75000   0.00000  Uiso   1.00
N847   N     0.20521   0.42163   0.88638   0.00000  Uiso   1.00
N848   N     0.12812   0.57838   0.61362   0.00000  Uiso   1.00
N849   N     0.11939   0.62112   0.53762   0.00000  Uiso   1.00
N850   N     0.21393   0.37888   0.96238   0.00000  Uiso   1.00
O851   O     0.10655   0.53958   0.75000   0.00000  Uiso   1.00
O852   O     0.22679   0.46042   0.75000   0.00000  Uiso   1.00
O853   O     0.22679   0.53958   0.75001   0.00000  Uiso   1.00
O854   O     0.10655   0.46042   0.75000   0.00000  Uiso   1.00
O855   O     0.16666   0.53960   0.68513   0.00000  Uiso   1.00
O856   O     0.16668   0.46040   0.81487   0.00000  Uiso   1.00
O857   O     0.16668   0.53960   0.81487   0.00000  Uiso   1.00
O858   O     0.16666   0.46040   0.68513   0.00000  Uiso   1.00
C859   C     0.42067   0.50000   0.74995   0.00000  Uiso   1.00
C860   C     0.37606   0.50000   0.74994   0.00000  Uiso   1.00
C861   C     0.47250   0.35865   0.72473   0.00000  Uiso   1.00
C862   C     0.52750   0.64135   0.77527   0.00000  Uiso   1.00
C863   C     0.52752   0.35767   0.77524   0.00000  Uiso   1.00
C864   C     0.47248   0.64233   0.72476   0.00000  Uiso   1.00
C865   C     0.49885   0.50056   0.66430   0.00000  Uiso   1.00
C866   C     0.50115   0.49944   0.83570   0.00000  Uiso   1.00
C867   C     0.51875   0.45955   0.90855   0.00000  Uiso   1.00
C868   C     0.48125   0.54045   0.59145   0.00000  Uiso   1.00
C869   C     0.50217   0.49814   0.88413   0.00000  Uiso   1.00
C870   C     0.57933   0.50000   0.75005   0.00000  Uiso   1.00
C871   C     0.49783   0.50186   0.61587   0.00000  Uiso   1.00
C872   C     0.48628   0.53671   0.90601   0.00000  Uiso   1.00
C873   C     0.51371   0.46329   0.59399   0.00000  Uiso   1.00
C874   C     0.48569   0.53769   0.95174   0.00000  Uiso   1.00
C875   C     0.51430   0.46231   0.54826   0.00000  Uiso   1.00
C876   C     0.50076   0.49923   0.97675   0.00000  Uiso   1.00
C877   C     0.49924   0.50077   0.52325   0.00000  Uiso   1.00
C878   C     0.51732   0.45942   0.95533   0.00000  Uiso   1.00
C879   C     0.48267   0.54058   0.54467   0.00000  Uiso   1.00
C880   C     0.46993   0.57701   0.97251   0.00000  Uiso   1.00
C881   C     0.46836   0.57914   0.51842   0.00000  Uiso   1.00
C882   C     0.53007   0.42299   0.52749   0.00000  Uiso   1.00
C883   C     0.53164   0.42086   0.98158   0.00000  Uiso   1.00
C884   C     0.35460   0.45735   0.75054   0.00000  Uiso   1.00
C885   C     0.64540   0.54265   0.74946   0.00000  Uiso   1.00
C886   C     0.64537   0.45735   0.75062   0.00000  Uiso   1.00
C887   C     0.35463   0.54265   0.74938   0.00000  Uiso   1.00
C888   C     0.62394   0.50000   0.75006   0.00000  Uiso   1.00
Cu889  Cu    0.50000   0.54689   0.75000   0.00000  Uiso   1.00
Cu890  Cu    0.50000   0.45311   0.75000   0.00000  Uiso   1.00
H891   H     0.37061   0.42400   0.75098   0.00000  Uiso   1.00
H892   H     0.52616   0.43374   0.61281   0.00000  Uiso   1.00
H893   H     0.45877   0.60668   0.95296   0.00000  Uiso   1.00
H894   H     0.54122   0.39332   0.54704   0.00000  Uiso   1.00
H895   H     0.47076   0.64938   0.52665   0.00000  Uiso   1.00
H896   H     0.42271   0.62650   0.52608   0.00000  Uiso   1.00
H897   H     0.57728   0.37349   0.97392   0.00000  Uiso   1.00
H898   H     0.52922   0.35062   0.97335   0.00000  Uiso   1.00
H899   H     0.45051   0.37778   0.70447   0.00000  Uiso   1.00
H900   H     0.54949   0.62222   0.79553   0.00000  Uiso   1.00
H901   H     0.54960   0.37602   0.79537   0.00000  Uiso   1.00
H902   H     0.62939   0.57600   0.74902   0.00000  Uiso   1.00
H903   H     0.45040   0.62398   0.70463   0.00000  Uiso   1.00
H904   H     0.62935   0.42401   0.75113   0.00000  Uiso   1.00
H905   H     0.37065   0.57599   0.74887   0.00000  Uiso   1.00
H906   H     0.51645   0.40190   0.86985   0.00000  Uiso   1.00
H907   H     0.56046   0.43500   0.86427   0.00000  Uiso   1.00
H908   H     0.43955   0.56500   0.63573   0.00000  Uiso   1.00
H909   H     0.48356   0.59811   0.63015   0.00000  Uiso   1.00
H910   H     0.47384   0.56625   0.88719   0.00000  Uiso   1.00
N911   N     0.50000   0.61736   0.75000   0.00000  Uiso   1.00
N912   N     0.50000   0.38264   0.75000   0.00000  Uiso   1.00
N913   N     0.53855   0.42163   0.88638   0.00000  Uiso   1.00
N914   N     0.46146   0.57838   0.61362   0.00000  Uiso   1.00
N915   N     0.45272   0.62112   0.53762   0.00000  Uiso   1.00
N916   N     0.54727   0.37888   0.96238   0.00000  Uiso   1.00
O917   O     0.43988   0.53958   0.75000   0.00000  Uiso   1.00
O918   O     0.56012   0.46042   0.75000   0.00000  Uiso   1.00
O919   O     0.56012   0.53958   0.75001   0.00000  Uiso   1.00
O920   O     0.43988   0.46042   0.75000   0.00000  Uiso   1.00
O921   O     0.49999   0.53960   0.68513   0.00000  Uiso   1.00
O922   O     0.50001   0.46040   0.81487   0.00000  Uiso   1.00
O923   O     0.50001   0.53960   0.81487   0.00000  Uiso   1.00
O924   O     0.49999   0.46040   0.68513   0.00000  Uiso   1.00
C925   C     0.75400   0.50000   0.74995   0.00000  Uiso   1.00
C926   C     0.70940   0.50000   0.74994   0.00000  Uiso   1.00
C927   C     0.80584   0.35865   0.72473   0.00000  Uiso   1.00
C928   C     0.86083   0.64135   0.77527   0.00000  Uiso   1.00
C929   C     0.86085   0.35767   0.77524   0.00000  Uiso   1.00
C930   C     0.80581   0.64233   0.72476   0.00000  Uiso   1.00
C931   C     0.83219   0.50056   0.66430   0.00000  Uiso   1.00
C932   C     0.83448   0.49944   0.83570   0.00000  Uiso   1.00
C933   C     0.85209   0.45955   0.90855   0.00000  Uiso   1.00
C934   C     0.81458   0.54045   0.59145   0.00000  Uiso   1.00
C935   C     0.83550   0.49814   0.88413   0.00000  Uiso   1.00
C936   C     0.91266   0.50000   0.75005   0.00000  Uiso   1.00
C937   C     0.83116   0.50186   0.61587   0.00000  Uiso   1.00
C938   C     0.81961   0.53671   0.90601   0.00000  Uiso   1.00
C939   C     0.84705   0.46329   0.59399   0.00000  Uiso   1.00
C940   C     0.81902   0.53769   0.95174   0.00000  Uiso   1.00
C941   C     0.84764   0.46231   0.54826   0.00000  Uiso   1.00
C942   C     0.83409   0.49923   0.97675   0.00000  Uiso   1.00
C943   C     0.83257   0.50077   0.52325   0.00000  Uiso   1.00
C944   C     0.85066   0.45942   0.95533   0.00000  Uiso   1.00
C945   C     0.81601   0.54058   0.54467   0.00000  Uiso   1.00
C946   C     0.80326   0.57701   0.97251   0.00000  Uiso   1.00
C947   C     0.80169   0.57914   0.51842   0.00000  Uiso   1.00
C948   C     0.86340   0.42299   0.52749   0.00000  Uiso   1.00
C949   C     0.86497   0.42086   0.98158   0.00000  Uiso   1.00
C950   C     0.68794   0.45735   0.75054   0.00000  Uiso   1.00
C951   C     0.97873   0.54265   0.74946   0.00000  Uiso   1.00
C952   C     0.97871   0.45735   0.75062   0.00000  Uiso   1.00
C953   C     0.68796   0.54265   0.74938   0.00000  Uiso   1.00
C954   C     0.95727   0.50000   0.75006   0.00000  Uiso   1.00
Cu955  Cu    0.83333   0.54689   0.75000   0.00000  Uiso   1.00
Cu956  Cu    0.83333   0.45311   0.75000   0.00000  Uiso   1.00
H957   H     0.70394   0.42400   0.75098   0.00000  Uiso   1.00
H958   H     0.85949   0.43374   0.61281   0.00000  Uiso   1.00
H959   H     0.79210   0.60668   0.95296   0.00000  Uiso   1.00
H960   H     0.87455   0.39332   0.54704   0.00000  Uiso   1.00
H961   H     0.80409   0.64938   0.52665   0.00000  Uiso   1.00
H962   H     0.75604   0.62650   0.52608   0.00000  Uiso   1.00
H963   H     0.91061   0.37349   0.97392   0.00000  Uiso   1.00
H964   H     0.86256   0.35062   0.97335   0.00000  Uiso   1.00
H965   H     0.78384   0.37778   0.70447   0.00000  Uiso   1.00
H966   H     0.88282   0.62222   0.79553   0.00000  Uiso   1.00
H967   H     0.88293   0.37602   0.79537   0.00000  Uiso   1.00
H968   H     0.96273   0.57600   0.74902   0.00000  Uiso   1.00
H969   H     0.78373   0.62398   0.70463   0.00000  Uiso   1.00
H970   H     0.96268   0.42401   0.75113   0.00000  Uiso   1.00
H971   H     0.70398   0.57599   0.74887   0.00000  Uiso   1.00
H972   H     0.84978   0.40190   0.86985   0.00000  Uiso   1.00
H973   H     0.89379   0.43500   0.86427   0.00000  Uiso   1.00
H974   H     0.77288   0.56500   0.63573   0.00000  Uiso   1.00
H975   H     0.81689   0.59811   0.63015   0.00000  Uiso   1.00
H976   H     0.80717   0.56625   0.88719   0.00000  Uiso   1.00
N977   N     0.83333   0.61736   0.75000   0.00000  Uiso   1.00
N978   N     0.83333   0.38264   0.75000   0.00000  Uiso   1.00
N979   N     0.87188   0.42163   0.88638   0.00000  Uiso   1.00
N980   N     0.79479   0.57838   0.61362   0.00000  Uiso   1.00
N981   N     0.78606   0.62112   0.53762   0.00000  Uiso   1.00
N982   N     0.88060   0.37888   0.96238   0.00000  Uiso   1.00
O983   O     0.77321   0.53958   0.75000   0.00000  Uiso   1.00
O984   O     0.89345   0.46042   0.75000   0.00000  Uiso   1.00
O985   O     0.89345   0.53958   0.75001   0.00000  Uiso   1.00
O986   O     0.77321   0.46042   0.75000   0.00000  Uiso   1.00
O987   O     0.83332   0.53960   0.68513   0.00000  Uiso   1.00
O988   O     0.83334   0.46040   0.81487   0.00000  Uiso   1.00
O989   O     0.83334   0.53960   0.81487   0.00000  Uiso   1.00
O990   O     0.83332   0.46040   0.68513   0.00000  Uiso   1.00
C991   C     0.08733   0.83333   0.74995   0.00000  Uiso   1.00
C992   C     0.04273   0.83333   0.74994   0.00000  Uiso   1.00
C993   C     0.13917   0.69198   0.72473   0.00000  Uiso   1.00
C994   C     0.19416   0.97469   0.77527   0.00000  Uiso   1.00
C995   C     0.19419   0.69100   0.77524   0.00000  Uiso   1.00
C996   C     0.13915   0.97566   0.72476   0.00000  Uiso   1.00
C997   C     0.16552   0.83389   0.66430   0.00000  Uiso   1.00
C998   C     0.16781   0.83277   0.83570   0.00000  Uiso   1.00
C999   C     0.18542   0.79288   0.90855   0.00000  Uiso   1.00
C1000  C     0.14791   0.87378   0.59145   0.00000  Uiso   1.00
C1001  C     0.16883   0.83148   0.88413   0.00000  Uiso   1.00
C1002  C     0.24600   0.83334   0.75005   0.00000  Uiso   1.00
C1003  C     0.16450   0.83519   0.61587   0.00000  Uiso   1.00
C1004  C     0.15295   0.87005   0.90601   0.00000  Uiso   1.00
C1005  C     0.18038   0.79662   0.59399   0.00000  Uiso   1.00
C1006  C     0.15236   0.87102   0.95174   0.00000  Uiso   1.00
C1007  C     0.18097   0.79565   0.54826   0.00000  Uiso   1.00
C1008  C     0.16742   0.83256   0.97675   0.00000  Uiso   1.00
C1009  C     0.16591   0.83410   0.52325   0.00000  Uiso   1.00
C1010  C     0.18399   0.79275   0.95533   0.00000  Uiso   1.00
C1011  C     0.14934   0.87391   0.54467   0.00000  Uiso   1.00
C1012  C     0.13659   0.91034   0.97251   0.00000  Uiso   1.00
C1013  C     0.13502   0.91247   0.51842   0.00000  Uiso   1.00
C1014  C     0.19673   0.75632   0.52749   0.00000  Uiso   1.00
C1015  C     0.19830   0.75419   0.98158   0.00000  Uiso   1.00
C1016  C     0.02127   0.79068   0.75054   0.00000  Uiso   1.00
C1017  C     0.31206   0.87599   0.74946   0.00000  Uiso   1.00
C1018  C     0.31204   0.79068   0.75062   0.00000  Uiso   1.00
C1019  C     0.02129   0.87598   0.74938   0.00000  Uiso   1.00
C1020  C     0.29060   0.83334   0.75006   0.00000  Uiso   1.00
Cu1021 Cu    0.16667   0.88022   0.75000   0.00000  Uiso   1.00
Cu1022 Cu    0.16667   0.78645   0.75000   0.00000  Uiso   1.00
H1023  H     0.03727   0.75734   0.75098   0.00000  Uiso   1.00
H1024  H     0.19282   0.76708   0.61281   0.00000  Uiso   1.00
H1025  H     0.12543   0.94001   0.95296   0.00000  Uiso   1.00
H1026  H     0.20789   0.72665   0.54704   0.00000  Uiso   1.00
H1027  H     0.13743   0.98272   0.52665   0.00000  Uiso   1.00
H1028  H     0.08938   0.95983   0.52608   0.00000  Uiso   1.00
H1029  H     0.24394   0.70682   0.97392   0.00000  Uiso   1.00
H1030  H     0.19589   0.68395   0.97335   0.00000  Uiso   1.00
H1031  H     0.11718   0.71112   0.70447   0.00000  Uiso   1.00
H1032  H     0.21616   0.95555   0.79553   0.00000  Uiso   1.00
H1033  H     0.21627   0.70935   0.79537   0.00000  Uiso   1.00
H1034  H     0.29606   0.90933   0.74902   0.00000  Uiso   1.00
H1035  H     0.11707   0.95732   0.70463   0.00000  Uiso   1.00
H1036  H     0.29601   0.75734   0.75113   0.00000  Uiso   1.00
H1037  H     0.03732   0.90932   0.74887   0.00000  Uiso   1.00
H1038  H     0.18311   0.73523   0.86985   0.00000  Uiso   1.00
H1039  H     0.22712   0.76834   0.86427   0.00000  Uiso   1.00
H1040  H     0.10621   0.89834   0.63573   0.00000  Uiso   1.00
H1041  H     0.15023   0.93144   0.63015   0.00000  Uiso   1.00
H1042  H     0.14050   0.89959   0.88719   0.00000  Uiso   1.00
N1043  N     0.16667   0.95069   0.75000   0.00000  Uiso   1.00
N1044  N     0.16667   0.71598   0.75000   0.00000  Uiso   1.00
N1045  N     0.20521   0.75496   0.88638   0.00000  Uiso   1.00
N1046  N     0.12812   0.91171   0.61362   0.00000  Uiso   1.00
N1047  N     0.11939   0.95445   0.53762   0.00000  Uiso   1.00
N1048  N     0.21393   0.71221   0.96238   0.00000  Uiso   1.00
O1049  O     0.10655   0.87291   0.75000   0.00000  Uiso   1.00
O1050  O     0.22679   0.79375   0.75000   0.00000  Uiso   1.00
O1051  O     0.22679   0.87291   0.75001   0.00000  Uiso   1.00
O1052  O     0.10655   0.79375   0.75000   0.00000  Uiso   1.00
O1053  O     0.16666   0.87293   0.68513   0.00000  Uiso   1.00
O1054  O     0.16668   0.79373   0.81487   0.00000  Uiso   1.00
O1055  O     0.16668   0.87293   0.81487   0.00000  Uiso   1.00
O1056  O     0.16666   0.79373   0.68513   0.00000  Uiso   1.00
C1057  C     0.42067   0.83333   0.74995   0.00000  Uiso   1.00
C1058  C     0.37606   0.83333   0.74994   0.00000  Uiso   1.00
C1059  C     0.47250   0.69198   0.72473   0.00000  Uiso   1.00
C1060  C     0.52750   0.97469   0.77527   0.00000  Uiso   1.00
C1061  C     0.52752   0.69100   0.77524   0.00000  Uiso   1.00
C1062  C     0.47248   0.97566   0.72476   0.00000  Uiso   1.00
C1063  C     0.49885   0.83389   0.66430   0.00000  Uiso   1.00
C1064  C     0.50115   0.83277   0.83570   0.00000  Uiso   1.00
C1065  C     0.51875   0.79288   0.90855   0.00000  Uiso   1.00
C1066  C     0.48125   0.87378   0.59145   0.00000  Uiso   1.00
C1067  C     0.50217   0.83148   0.88413   0.00000  Uiso   1.00
C1068  C     0.57933   0.83334   0.75005   0.00000  Uiso   1.00
C1069  C     0.49783   0.83519   0.61587   0.00000  Uiso   1.00
C1070  C     0.48628   0.87005   0.90601   0.00000  Uiso   1.00
C1071  C     0.51371   0.79662   0.59399   0.00000  Uiso   1.00
C1072  C     0.48569   0.87102   0.95174   0.00000  Uiso   1.00
C1073  C     0.51430   0.79565   0.54826   0.00000  Uiso   1.00
C1074  C     0.50076   0.83256   0.97675   0.00000  Uiso   1.00
C1075  C     0.49924   0.83410   0.52325   0.00000  Uiso   1.00
C1076  C     0.51732   0.79275   0.95533   0.00000  Uiso   1.00
C1077  C     0.48267   0.87391   0.54467   0.00000  Uiso   1.00
C1078  C     0.46993   0.91034   0.97251   0.00000  Uiso   1.00
C1079  C     0.46836   0.91247   0.51842   0.00000  Uiso   1.00
C1080  C     0.53007   0.75632   0.52749   0.00000  Uiso   1.00
C1081  C     0.53164   0.75419   0.98158   0.00000  Uiso   1.00
C1082  C     0.35460   0.79068   0.75054   0.00000  Uiso   1.00
C1083  C     0.64540   0.87599   0.74946   0.00000  Uiso   1.00
C1084  C     0.64537   0.79068   0.75062   0.00000  Uiso   1.00
C1085  C     0.35463   0.87598   0.74938   0.00000  Uiso   1.00
C1086  C     0.62394   0.83334   0.75006   0.00000  Uiso   1.00
Cu1087 Cu    0.50000   0.88022   0.75000   0.00000  Uiso   1.00
Cu1088 Cu    0.50000   0.78645   0.75000   0.00000  Uiso   1.00
H1089  H     0.37061   0.75734   0.75098   0.00000  Uiso   1.00
H1090  H     0.52616   0.76708   0.61281   0.00000  Uiso   1.00
H1091  H     0.45877   0.94001   0.95296   0.00000  Uiso   1.00
H1092  H     0.54122   0.72665   0.54704   0.00000  Uiso   1.00
H1093  H     0.47076   0.98272   0.52665   0.00000  Uiso   1.00
H1094  H     0.42271   0.95983   0.52608   0.00000  Uiso   1.00
H1095  H     0.57728   0.70682   0.97392   0.00000  Uiso   1.00
H1096  H     0.52922   0.68395   0.97335   0.00000  Uiso   1.00
H1097  H     0.45051   0.71112   0.70447   0.00000  Uiso   1.00
H1098  H     0.54949   0.95555   0.79553   0.00000  Uiso   1.00
H1099  H     0.54960   0.70935   0.79537   0.00000  Uiso   1.00
H1100  H     0.62939   0.90933   0.74902   0.00000  Uiso   1.00
H1101  H     0.45040   0.95732   0.70463   0.00000  Uiso   1.00
H1102  H     0.62935   0.75734   0.75113   0.00000  Uiso   1.00
H1103  H     0.37065   0.90932   0.74887   0.00000  Uiso   1.00
H1104  H     0.51645   0.73523   0.86985   0.00000  Uiso   1.00
H1105  H     0.56046   0.76834   0.86427   0.00000  Uiso   1.00
H1106  H     0.43955   0.89834   0.63573   0.00000  Uiso   1.00
H1107  H     0.48356   0.93144   0.63015   0.00000  Uiso   1.00
H1108  H     0.47384   0.89959   0.88719   0.00000  Uiso   1.00
N1109  N     0.50000   0.95069   0.75000   0.00000  Uiso   1.00
N1110  N     0.50000   0.71598   0.75000   0.00000  Uiso   1.00
N1111  N     0.53855   0.75496   0.88638   0.00000  Uiso   1.00
N1112  N     0.46146   0.91171   0.61362   0.00000  Uiso   1.00
N1113  N     0.45272   0.95445   0.53762   0.00000  Uiso   1.00
N1114  N     0.54727   0.71221   0.96238   0.00000  Uiso   1.00
O1115  O     0.43988   0.87291   0.75000   0.00000  Uiso   1.00
O1116  O     0.56012   0.79375   0.75000   0.00000  Uiso   1.00
O1117  O     0.56012   0.87291   0.75001   0.00000  Uiso   1.00
O1118  O     0.43988   0.79375   0.75000   0.00000  Uiso   1.00
O1119  O     0.49999   0.87293   0.68513   0.00000  Uiso   1.00
O1120  O     0.50001   0.79373   0.81487   0.00000  Uiso   1.00
O1121  O     0.50001   0.87293   0.81487   0.00000  Uiso   1.00
O1122  O     0.49999   0.79373   0.68513   0.00000  Uiso   1.00
C1123  C     0.75400   0.83333   0.74995   0.00000  Uiso   1.00
C1124  C     0.70940   0.83333   0.74994   0.00000  Uiso   1.00
C1125  C     0.80584   0.69198   0.72473   0.00000  Uiso   1.00
C1126  C     0.86083   0.97469   0.77527   0.00000  Uiso   1.00
C1127  C     0.86085   0.69100   0.77524   0.00000  Uiso   1.00
C1128  C     0.80581   0.97566   0.72476   0.00000  Uiso   1.00
C1129  C     0.83219   0.83389   0.66430   0.00000  Uiso   1.00
C1130  C     0.83448   0.83277   0.83570   0.00000  Uiso   1.00
C1131  C     0.85209   0.79288   0.90855   0.00000  Uiso   1.00
C1132  C     0.81458   0.87378   0.59145   0.00000  Uiso   1.00
C1133  C     0.83550   0.83148   0.88413   0.00000  Uiso   1.00
C1134  C     0.91266   0.83334   0.75005   0.00000  Uiso   1.00
C1135  C     0.83116   0.83519   0.61587   0.00000  Uiso   1.00
C1136  C     0.81961   0.87005   0.90601   0.00000  Uiso   1.00
C1137  C     0.84705   0.79662   0.59399   0.00000  Uiso   1.00
C1138  C     0.81902   0.87102   0.95174   0.00000  Uiso   1.00
C1139  C     0.84764   0.79565   0.54826   0.00000  Uiso   1.00
C1140  C     0.83409   0.83256   0.97675   0.00000  Uiso   1.00
C1141  C     0.83257   0.83410   0.52325   0.00000  Uiso   1.00
C1142  C     0.85066   0.79275   0.95533   0.00000  Uiso   1.00
C1143  C     0.81601   0.87391   0.54467   0.00000  Uiso   1.00
C1144  C     0.80326   0.91034   0.97251   0.00000  Uiso   1.00
C1145  C     0.80169   0.91247   0.51842   0.00000  Uiso   1.00
C1146  C     0.86340   0.75632   0.52749   0.00000  Uiso   1.00
C1147  C     0.86497   0.75419   0.98158   0.00000  Uiso   1.00
C1148  C     0.68794   0.79068   0.75054   0.00000  Uiso   1.00
C1149  C     0.97873   0.87599   0.74946   0.00000  Uiso   1.00
C1150  C     0.97871   0.79068   0.75062   0.00000  Uiso   1.00
C1151  C     0.68796   0.87598   0.74938   0.00000  Uiso   1.00
C1152  C     0.95727   0.83334   0.75006   0.00000  Uiso   1.00
Cu1153 Cu    0.83333   0.88022   0.75000   0.00000  Uiso   1.00
Cu1154 Cu    0.83333   0.78645   0.75000   0.00000  Uiso   1.00
H1155  H     0.70394   0.75734   0.75098   0.00000  Uiso   1.00
H1156  H     0.85949   0.76708   0.61281   0.00000  Uiso   1.00
H1157  H     0.79210   0.94001   0.95296   0.00000  Uiso   1.00
H1158  H     0.87455   0.72665   0.54704   0.00000  Uiso   1.00
H1159  H     0.80409   0.98272   0.52665   0.00000  Uiso   1.00
H1160  H     0.75604   0.95983   0.52608   0.00000  Uiso   1.00
H1161  H     0.91061   0.70682   0.97392   0.00000  Uiso   1.00
H1162  H     0.86256   0.68395   0.97335   0.00000  Uiso   1.00
H1163  H     0.78384   0.71112   0.70447   0.00000  Uiso   1.00
H1164  H     0.88282   0.95555   0.79553   0.00000  Uiso   1.00
H1165  H     0.88293   0.70935   0.79537   0.00000  Uiso   1.00
H1166  H     0.96273   0.90933   0.74902   0.00000  Uiso   1.00
H1167  H     0.78373   0.95732   0.70463   0.00000  Uiso   1.00
H1168  H     0.96268   0.75734   0.75113   0.00000  Uiso   1.00
H1169  H     0.70398   0.90932   0.74887   0.00000  Uiso   1.00
H1170  H     0.84978   0.73523   0.86985   0.00000  Uiso   1.00
H1171  H     0.89379   0.76834   0.86427   0.00000  Uiso   1.00
H1172  H     0.77288   0.89834   0.63573   0.00000  Uiso   1.00
H1173  H     0.81689   0.93144   0.63015   0.00000  Uiso   1.00
H1174  H     0.80717   0.89959   0.88719   0.00000  Uiso   1.00
N1175  N     0.83333   0.95069   0.75000   0.00000  Uiso   1.00
N1176  N     0.83333   0.71598   0.75000   0.00000  Uiso   1.00
N1177  N     0.87188   0.75496   0.88638   0.00000  Uiso   1.00
N1178  N     0.79479   0.91171   0.61362   0.00000  Uiso   1.00
N1179  N     0.78606   0.95445   0.53762   0.00000  Uiso   1.00
N1180  N     0.88060   0.71221   0.96238   0.00000  Uiso   1.00
O1181  O     0.77321   0.87291   0.75000   0.00000  Uiso   1.00
O1182  O     0.89345   0.79375   0.75000   0.00000  Uiso   1.00
O1183  O     0.89345   0.87291   0.75001   0.00000  Uiso   1.00
O1184  O     0.77321   0.79375   0.75000   0.00000  Uiso   1.00
O1185  O     0.83332   0.87293   0.68513   0.00000  Uiso   1.00
O1186  O     0.83334   0.79373   0.81487   0.00000  Uiso   1.00
O1187  O     0.83334   0.87293   0.81487   0.00000  Uiso   1.00
O1188  O     0.83332   0.79373   0.68513   0.00000  Uiso   1.00
loop_
_geom_bond_atom_site_label_1
_geom_bond_atom_site_label_2
_geom_bond_distance
_geom_bond_site_symmetry_2
_ccdc_geom_bond_type
C1     O62     1.289   .     A
C1     O59     1.289   .     A
C1     C2      1.450   .     S
C2     C26     1.401   .     A
C2     C29     1.401   .     A
C3     N54     1.367   .     A
C3     H41     1.082   .     S
C3     C402    1.415   1_545 S
C4     N53     1.367   .     A
C4     H42     1.082   .     S
C4     C203    1.415   .     S
C5     H43     1.081   .     S
C5     N54     1.366   .     A
C5     C400    1.415   1_545 S
C6     H45     1.081   .     S
C6     N53     1.366   .     A
C6     C201    1.415   .     S
C7     O66     1.297   .     A
C7     O63     1.290   .     A
C7     C13     1.467   .     S
C8     O65     1.297   .     A
C8     O64     1.290   .     A
C8     C11     1.467   .     S
C9     N55     1.436   .     S
C9     C11     1.419   .     A
C9     C20     1.417   .     A
C10    C21     1.417   .     A
C10    N56     1.436   .     S
C10    C13     1.419   .     A
C11    C14     1.394   .     A
C12    O61     1.289   .     A
C12    O60     1.289   .     A
C12    C30     1.450   .     S
C13    C15     1.394   .     A
C14    H52     1.085   .     S
C14    C16     1.386   .     A
C15    H34     1.085   .     S
C15    C17     1.386   .     A
C16    C18     1.408   .     A
C16    C22     1.394   .     A
C17    C24     1.394   .     A
C17    C19     1.408   .     A
C18    C20     1.424   .     A
C18    C613    1.411   .     S
C19    C21     1.424   .     A
C19    C612    1.411   1_554 S
C20    C25     1.422   .     A
C21    C23     1.422   .     A
C22    H35     1.085   .     S
C22    C617    1.394   .     S
C23    N57     1.434   .     S
C23    C616    1.394   1_554 S
C24    H36     1.085   .     S
C24    C619    1.394   1_554 S
C25    N58     1.434   .     S
C25    C618    1.394   .     S
C26    H33     1.083   .     S
C26    C160    1.383   1_455 S
C27    H44     1.083   .     S
C27    C30     1.401   .     A
C27    C95     1.383   .     S
C28    H46     1.083   .     S
C28    C30     1.401   .     A
C28    C92     1.383   .     S
C29    H47     1.083   .     S
C29    C159    1.383   1_455 S
Cu31   O61     1.965   .     S
Cu31   Cu32    2.672   .     S
Cu31   N53     2.008   .     S
Cu31   O63     1.979   .     S
Cu31   O59     1.965   .     S
Cu31   O65     1.971   .     S
Cu32   O62     1.965   .     S
Cu32   N54     2.008   .     S
Cu32   O60     1.965   .     S
Cu32   O64     1.979   .     S
Cu32   O66     1.971   .     S
H37    N57     1.046   .     S
H38    N57     1.046   .     S
H39    N58     1.046   .     S
H40    N58     1.046   .     S
H48    N55     1.045   .     S
H49    N55     1.046   .     S
H50    N56     1.046   .     S
H51    N56     1.045   .     S
C67    O128    1.289   .     A
C67    O125    1.289   .     A
C67    C68     1.450   .     S
C68    C92     1.401   .     A
C68    C95     1.401   .     A
C69    N120    1.367   .     A
C69    H107    1.082   .     S
C69    C468    1.415   1_545 S
C70    N119    1.367   .     A
C70    H108    1.082   .     S
C70    C269    1.415   .     S
C71    H109    1.081   .     S
C71    N120    1.366   .     A
C71    C466    1.415   1_545 S
C72    H111    1.081   .     S
C72    N119    1.366   .     A
C72    C267    1.415   .     S
C73    O132    1.297   .     A
C73    O129    1.290   .     A
C73    C79     1.467   .     S
C74    O131    1.297   .     A
C74    O130    1.290   .     A
C74    C77     1.467   .     S
C75    N121    1.436   .     S
C75    C77     1.419   .     A
C75    C86     1.417   .     A
C76    C87     1.417   .     A
C76    N122    1.436   .     S
C76    C79     1.419   .     A
C77    C80     1.394   .     A
C78    O127    1.289   .     A
C78    O126    1.289   .     A
C78    C96     1.450   .     S
C79    C81     1.394   .     A
C80    H118    1.085   .     S
C80    C82     1.386   .     A
C81    H100    1.085   .     S
C81    C83     1.386   .     A
C82    C84     1.408   .     A
C82    C88     1.394   .     A
C83    C90     1.394   .     A
C83    C85     1.408   .     A
C84    C86     1.424   .     A
C84    C679    1.411   .     S
C85    C87     1.424   .     A
C85    C678    1.411   1_554 S
C86    C91     1.422   .     A
C87    C89     1.422   .     A
C88    H101    1.085   .     S
C88    C683    1.394   .     S
C89    N123    1.434   .     S
C89    C682    1.394   1_554 S
C90    H102    1.085   .     S
C90    C685    1.394   1_554 S
C91    N124    1.434   .     S
C91    C684    1.394   .     S
C92    H99     1.083   .     S
C93    H110    1.083   .     S
C93    C96     1.401   .     A
C93    C161    1.383   .     S
C94    H112    1.083   .     S
C94    C96     1.401   .     A
C94    C158    1.383   .     S
C95    H113    1.083   .     S
Cu97   O127    1.965   .     S
Cu97   Cu98    2.672   .     S
Cu97   N119    2.008   .     S
Cu97   O129    1.979   .     S
Cu97   O125    1.965   .     S
Cu97   O131    1.971   .     S
Cu98   O128    1.965   .     S
Cu98   N120    2.008   .     S
Cu98   O126    1.965   .     S
Cu98   O130    1.979   .     S
Cu98   O132    1.971   .     S
H103   N123    1.046   .     S
H104   N123    1.046   .     S
H105   N124    1.046   .     S
H106   N124    1.046   .     S
H114   N121    1.045   .     S
H115   N121    1.046   .     S
H116   N122    1.046   .     S
H117   N122    1.045   .     S
C133   O194    1.289   .     A
C133   O191    1.289   .     A
C133   C134    1.450   .     S
C134   C158    1.401   .     A
C134   C161    1.401   .     A
C135   N186    1.367   .     A
C135   H173    1.082   .     S
C135   C534    1.415   1_545 S
C136   N185    1.367   .     A
C136   H174    1.082   .     S
C136   C335    1.415   .     S
C137   H175    1.081   .     S
C137   N186    1.366   .     A
C137   C532    1.415   1_545 S
C138   H177    1.081   .     S
C138   N185    1.366   .     A
C138   C333    1.415   .     S
C139   O198    1.297   .     A
C139   O195    1.290   .     A
C139   C145    1.467   .     S
C140   O197    1.297   .     A
C140   O196    1.290   .     A
C140   C143    1.467   .     S
C141   N187    1.436   .     S
C141   C143    1.419   .     A
C141   C152    1.417   .     A
C142   C153    1.417   .     A
C142   N188    1.436   .     S
C142   C145    1.419   .     A
C143   C146    1.394   .     A
C144   O193    1.289   .     A
C144   O192    1.289   .     A
C144   C162    1.450   .     S
C145   C147    1.394   .     A
C146   H184    1.085   .     S
C146   C148    1.386   .     A
C147   H166    1.085   .     S
C147   C149    1.386   .     A
C148   C150    1.408   .     A
C148   C154    1.394   .     A
C149   C156    1.394   .     A
C149   C151    1.408   .     A
C150   C152    1.424   .     A
C150   C745    1.411   .     S
C151   C153    1.424   .     A
C151   C744    1.411   1_554 S
C152   C157    1.422   .     A
C153   C155    1.422   .     A
C154   H167    1.085   .     S
C154   C749    1.394   .     S
C155   N189    1.434   .     S
C155   C748    1.394   1_554 S
C156   H168    1.085   .     S
C156   C751    1.394   1_554 S
C157   N190    1.434   .     S
C157   C750    1.394   .     S
C158   H165    1.083   .     S
C159   H176    1.083   .     S
C159   C162    1.401   .     A
C159   C29     1.383   1_655 S
C160   H178    1.083   .     S
C160   C162    1.401   .     A
C160   C26     1.383   1_655 S
C161   H179    1.083   .     S
Cu163  O193    1.965   .     S
Cu163  Cu164   2.672   .     S
Cu163  N185    2.008   .     S
Cu163  O195    1.979   .     S
Cu163  O191    1.965   .     S
Cu163  O197    1.971   .     S
Cu164  O194    1.965   .     S
Cu164  N186    2.008   .     S
Cu164  O192    1.965   .     S
Cu164  O196    1.979   .     S
Cu164  O198    1.971   .     S
H169   N189    1.046   .     S
H170   N189    1.046   .     S
H171   N190    1.046   .     S
H172   N190    1.046   .     S
H180   N187    1.045   .     S
H181   N187    1.046   .     S
H182   N188    1.046   .     S
H183   N188    1.045   .     S
C199   O260    1.289   .     A
C199   O257    1.289   .     A
C199   C200    1.450   .     S
C200   C224    1.401   .     A
C200   C227    1.401   .     A
C201   N252    1.367   .     A
C201   H239    1.082   .     S
C202   N251    1.367   .     A
C202   H240    1.082   .     S
C202   C401    1.415   .     S
C203   H241    1.081   .     S
C203   N252    1.366   .     A
C204   H243    1.081   .     S
C204   N251    1.366   .     A
C204   C399    1.415   .     S
C205   O264    1.297   .     A
C205   O261    1.290   .     A
C205   C211    1.467   .     S
C206   O263    1.297   .     A
C206   O262    1.290   .     A
C206   C209    1.467   .     S
C207   N253    1.436   .     S
C207   C209    1.419   .     A
C207   C218    1.417   .     A
C208   C219    1.417   .     A
C208   N254    1.436   .     S
C208   C211    1.419   .     A
C209   C212    1.394   .     A
C210   O259    1.289   .     A
C210   O258    1.289   .     A
C210   C228    1.450   .     S
C211   C213    1.394   .     A
C212   H250    1.085   .     S
C212   C214    1.386   .     A
C213   H232    1.085   .     S
C213   C215    1.386   .     A
C214   C216    1.408   .     A
C214   C220    1.394   .     A
C215   C222    1.394   .     A
C215   C217    1.408   .     A
C216   C218    1.424   .     A
C216   C811    1.411   .     S
C217   C219    1.424   .     A
C217   C810    1.411   1_554 S
C218   C223    1.422   .     A
C219   C221    1.422   .     A
C220   H233    1.085   .     S
C220   C815    1.394   .     S
C221   N255    1.434   .     S
C221   C814    1.394   1_554 S
C222   H234    1.085   .     S
C222   C817    1.394   1_554 S
C223   N256    1.434   .     S
C223   C816    1.394   .     S
C224   H231    1.083   .     S
C224   C358    1.383   1_455 S
C225   H242    1.083   .     S
C225   C228    1.401   .     A
C225   C293    1.383   .     S
C226   H244    1.083   .     S
C226   C228    1.401   .     A
C226   C290    1.383   .     S
C227   H245    1.083   .     S
C227   C357    1.383   1_455 S
Cu229  O259    1.965   .     S
Cu229  Cu230   2.672   .     S
Cu229  N251    2.008   .     S
Cu229  O261    1.979   .     S
Cu229  O257    1.965   .     S
Cu229  O263    1.971   .     S
Cu230  O260    1.965   .     S
Cu230  N252    2.008   .     S
Cu230  O258    1.965   .     S
Cu230  O262    1.979   .     S
Cu230  O264    1.971   .     S
H235   N255    1.046   .     S
H236   N255    1.046   .     S
H237   N256    1.046   .     S
H238   N256    1.046   .     S
H246   N253    1.045   .     S
H247   N253    1.046   .     S
H248   N254    1.046   .     S
H249   N254    1.045   .     S
C265   O326    1.289   .     A
C265   O323    1.289   .     A
C265   C266    1.450   .     S
C266   C290    1.401   .     A
C266   C293    1.401   .     A
C267   N318    1.367   .     A
C267   H305    1.082   .     S
C268   N317    1.367   .     A
C268   H306    1.082   .     S
C268   C467    1.415   .     S
C269   H307    1.081   .     S
C269   N318    1.366   .     A
C270   H309    1.081   .     S
C270   N317    1.366   .     A
C270   C465    1.415   .     S
C271   O330    1.297   .     A
C271   O327    1.290   .     A
C271   C277    1.467   .     S
C272   O329    1.297   .     A
C272   O328    1.290   .     A
C272   C275    1.467   .     S
C273   N319    1.436   .     S
C273   C275    1.419   .     A
C273   C284    1.417   .     A
C274   C285    1.417   .     A
C274   N320    1.436   .     S
C274   C277    1.419   .     A
C275   C278    1.394   .     A
C276   O325    1.289   .     A
C276   O324    1.289   .     A
C276   C294    1.450   .     S
C277   C279    1.394   .     A
C278   H316    1.085   .     S
C278   C280    1.386   .     A
C279   H298    1.085   .     S
C279   C281    1.386   .     A
C280   C282    1.408   .     A
C280   C286    1.394   .     A
C281   C288    1.394   .     A
C281   C283    1.408   .     A
C282   C284    1.424   .     A
C282   C877    1.411   .     S
C283   C285    1.424   .     A
C283   C876    1.411   1_554 S
C284   C289    1.422   .     A
C285   C287    1.422   .     A
C286   H299    1.085   .     S
C286   C881    1.394   .     S
C287   N321    1.434   .     S
C287   C880    1.394   1_554 S
C288   H300    1.085   .     S
C288   C883    1.394   1_554 S
C289   N322    1.434   .     S
C289   C882    1.394   .     S
C290   H297    1.083   .     S
C291   H308    1.083   .     S
C291   C294    1.401   .     A
C291   C359    1.383   .     S
C292   H310    1.083   .     S
C292   C294    1.401   .     A
C292   C356    1.383   .     S
C293   H311    1.083   .     S
Cu295  O325    1.965   .     S
Cu295  Cu296   2.672   .     S
Cu295  N317    2.008   .     S
Cu295  O327    1.979   .     S
Cu295  O323    1.965   .     S
Cu295  O329    1.971   .     S
Cu296  O326    1.965   .     S
Cu296  N318    2.008   .     S
Cu296  O324    1.965   .     S
Cu296  O328    1.979   .     S
Cu296  O330    1.971   .     S
H301   N321    1.046   .     S
H302   N321    1.046   .     S
H303   N322    1.046   .     S
H304   N322    1.046   .     S
H312   N319    1.045   .     S
H313   N319    1.046   .     S
H314   N320    1.046   .     S
H315   N320    1.045   .     S
C331   O392    1.289   .     A
C331   O389    1.289   .     A
C331   C332    1.450   .     S
C332   C356    1.401   .     A
C332   C359    1.401   .     A
C333   N384    1.367   .     A
C333   H371    1.082   .     S
C334   N383    1.367   .     A
C334   H372    1.082   .     S
C334   C533    1.415   .     S
C335   H373    1.081   .     S
C335   N384    1.366   .     A
C336   H375    1.081   .     S
C336   N383    1.366   .     A
C336   C531    1.415   .     S
C337   O396    1.297   .     A
C337   O393    1.290   .     A
C337   C343    1.467   .     S
C338   O395    1.297   .     A
C338   O394    1.290   .     A
C338   C341    1.467   .     S
C339   N385    1.436   .     S
C339   C341    1.419   .     A
C339   C350    1.417   .     A
C340   C351    1.417   .     A
C340   N386    1.436   .     S
C340   C343    1.419   .     A
C341   C344    1.394   .     A
C342   O391    1.289   .     A
C342   O390    1.289   .     A
C342   C360    1.450   .     S
C343   C345    1.394   .     A
C344   H382    1.085   .     S
C344   C346    1.386   .     A
C345   H364    1.085   .     S
C345   C347    1.386   .     A
C346   C348    1.408   .     A
C346   C352    1.394   .     A
C347   C354    1.394   .     A
C347   C349    1.408   .     A
C348   C350    1.424   .     A
C348   C943    1.411   .     S
C349   C351    1.424   .     A
C349   C942    1.411   1_554 S
C350   C355    1.422   .     A
C351   C353    1.422   .     A
C352   H365    1.085   .     S
C352   C947    1.394   .     S
C353   N387    1.434   .     S
C353   C946    1.394   1_554 S
C354   H366    1.085   .     S
C354   C949    1.394   1_554 S
C355   N388    1.434   .     S
C355   C948    1.394   .     S
C356   H363    1.083   .     S
C357   H374    1.083   .     S
C357   C360    1.401   .     A
C357   C227    1.383   1_655 S
C358   H376    1.083   .     S
C358   C360    1.401   .     A
C358   C224    1.383   1_655 S
C359   H377    1.083   .     S
Cu361  O391    1.965   .     S
Cu361  Cu362   2.672   .     S
Cu361  N383    2.008   .     S
Cu361  O393    1.979   .     S
Cu361  O389    1.965   .     S
Cu361  O395    1.971   .     S
Cu362  O392    1.965   .     S
Cu362  N384    2.008   .     S
Cu362  O390    1.965   .     S
Cu362  O394    1.979   .     S
Cu362  O396    1.971   .     S
H367   N387    1.046   .     S
H368   N387    1.046   .     S
H369   N388    1.046   .     S
H370   N388    1.046   .     S
H378   N385    1.045   .     S
H379   N385    1.046   .     S
H380   N386    1.046   .     S
H381   N386    1.045   .     S
C397   O458    1.289   .     A
C397   O455    1.289   .     A
C397   C398    1.450   .     S
C398   C422    1.401   .     A
C398   C425    1.401   .     A
C399   N450    1.367   .     A
C399   H437    1.082   .     S
C400   N449    1.367   .     A
C400   H438    1.082   .     S
C400   C5      1.415   1_565 S
C401   H439    1.081   .     S
C401   N450    1.366   .     A
C402   H441    1.081   .     S
C402   N449    1.366   .     A
C402   C3      1.415   1_565 S
C403   O462    1.297   .     A
C403   O459    1.290   .     A
C403   C409    1.467   .     S
C404   O461    1.297   .     A
C404   O460    1.290   .     A
C404   C407    1.467   .     S
C405   N451    1.436   .     S
C405   C407    1.419   .     A
C405   C416    1.417   .     A
C406   C417    1.417   .     A
C406   N452    1.436   .     S
C406   C409    1.419   .     A
C407   C410    1.394   .     A
C408   O457    1.289   .     A
C408   O456    1.289   .     A
C408   C426    1.450   .     S
C409   C411    1.394   .     A
C410   H448    1.085   .     S
C410   C412    1.386   .     A
C411   H430    1.085   .     S
C411   C413    1.386   .     A
C412   C414    1.408   .     A
C412   C418    1.394   .     A
C413   C420    1.394   .     A
C413   C415    1.408   .     A
C414   C416    1.424   .     A
C414   C1009   1.411   .     S
C415   C417    1.424   .     A
C415   C1008   1.411   1_554 S
C416   C421    1.422   .     A
C417   C419    1.422   .     A
C418   H431    1.085   .     S
C418   C1013   1.394   .     S
C419   N453    1.434   .     S
C419   C1012   1.394   1_554 S
C420   H432    1.085   .     S
C420   C1015   1.394   1_554 S
C421   N454    1.434   .     S
C421   C1014   1.394   .     S
C422   H429    1.083   .     S
C422   C556    1.383   1_455 S
C423   H440    1.083   .     S
C423   C426    1.401   .     A
C423   C491    1.383   .     S
C424   H442    1.083   .     S
C424   C426    1.401   .     A
C424   C488    1.383   .     S
C425   H443    1.083   .     S
C425   C555    1.383   1_455 S
Cu427  O457    1.965   .     S
Cu427  Cu428   2.672   .     S
Cu427  N449    2.008   .     S
Cu427  O459    1.979   .     S
Cu427  O455    1.965   .     S
Cu427  O461    1.971   .     S
Cu428  O458    1.965   .     S
Cu428  N450    2.008   .     S
Cu428  O456    1.965   .     S
Cu428  O460    1.979   .     S
Cu428  O462    1.971   .     S
H433   N453    1.046   .     S
H434   N453    1.046   .     S
H435   N454    1.046   .     S
H436   N454    1.046   .     S
H444   N451    1.045   .     S
H445   N451    1.046   .     S
H446   N452    1.046   .     S
H447   N452    1.045   .     S
C463   O524    1.289   .     A
C463   O521    1.289   .     A
C463   C464    1.450   .     S
C464   C488    1.401   .     A
C464   C491    1.401   .     A
C465   N516    1.367   .     A
C465   H503    1.082   .     S
C466   N515    1.367   .     A
C466   H504    1.082   .     S
C466   C71     1.415   1_565 S
C467   H505    1.081   .     S
C467   N516    1.366   .     A
C468   H507    1.081   .     S
C468   N515    1.366   .     A
C468   C69     1.415   1_565 S
C469   O528    1.297   .     A
C469   O525    1.290   .     A
C469   C475    1.467   .     S
C470   O527    1.297   .     A
C470   O526    1.290   .     A
C470   C473    1.467   .     S
C471   N517    1.436   .     S
C471   C473    1.419   .     A
C471   C482    1.417   .     A
C472   C483    1.417   .     A
C472   N518    1.436   .     S
C472   C475    1.419   .     A
C473   C476    1.394   .     A
C474   O523    1.289   .     A
C474   O522    1.289   .     A
C474   C492    1.450   .     S
C475   C477    1.394   .     A
C476   H514    1.085   .     S
C476   C478    1.386   .     A
C477   H496    1.085   .     S
C477   C479    1.386   .     A
C478   C480    1.408   .     A
C478   C484    1.394   .     A
C479   C486    1.394   .     A
C479   C481    1.408   .     A
C480   C482    1.424   .     A
C480   C1075   1.411   .     S
C481   C483    1.424   .     A
C481   C1074   1.411   1_554 S
C482   C487    1.422   .     A
C483   C485    1.422   .     A
C484   H497    1.085   .     S
C484   C1079   1.394   .     S
C485   N519    1.434   .     S
C485   C1078   1.394   1_554 S
C486   H498    1.085   .     S
C486   C1081   1.394   1_554 S
C487   N520    1.434   .     S
C487   C1080   1.394   .     S
C488   H495    1.083   .     S
C489   H506    1.083   .     S
C489   C492    1.401   .     A
C489   C557    1.383   .     S
C490   H508    1.083   .     S
C490   C492    1.401   .     A
C490   C554    1.383   .     S
C491   H509    1.083   .     S
Cu493  O523    1.965   .     S
Cu493  Cu494   2.672   .     S
Cu493  N515    2.008   .     S
Cu493  O525    1.979   .     S
Cu493  O521    1.965   .     S
Cu493  O527    1.971   .     S
Cu494  O524    1.965   .     S
Cu494  N516    2.008   .     S
Cu494  O522    1.965   .     S
Cu494  O526    1.979   .     S
Cu494  O528    1.971   .     S
H499   N519    1.046   .     S
H500   N519    1.046   .     S
H501   N520    1.046   .     S
H502   N520    1.046   .     S
H510   N517    1.045   .     S
H511   N517    1.046   .     S
H512   N518    1.046   .     S
H513   N518    1.045   .     S
C529   O590    1.289   .     A
C529   O587    1.289   .     A
C529   C530    1.450   .     S
C530   C554    1.401   .     A
C530   C557    1.401   .     A
C531   N582    1.367   .     A
C531   H569    1.082   .     S
C532   N581    1.367   .     A
C532   H570    1.082   .     S
C532   C137    1.415   1_565 S
C533   H571    1.081   .     S
C533   N582    1.366   .     A
C534   H573    1.081   .     S
C534   N581    1.366   .     A
C534   C135    1.415   1_565 S
C535   O594    1.297   .     A
C535   O591    1.290   .     A
C535   C541    1.467   .     S
C536   O593    1.297   .     A
C536   O592    1.290   .     A
C536   C539    1.467   .     S
C537   N583    1.436   .     S
C537   C539    1.419   .     A
C537   C548    1.417   .     A
C538   C549    1.417   .     A
C538   N584    1.436   .     S
C538   C541    1.419   .     A
C539   C542    1.394   .     A
C540   O589    1.289   .     A
C540   O588    1.289   .     A
C540   C558    1.450   .     S
C541   C543    1.394   .     A
C542   H580    1.085   .     S
C542   C544    1.386   .     A
C543   H562    1.085   .     S
C543   C545    1.386   .     A
C544   C546    1.408   .     A
C544   C550    1.394   .     A
C545   C552    1.394   .     A
C545   C547    1.408   .     A
C546   C548    1.424   .     A
C546   C1141   1.411   .     S
C547   C549    1.424   .     A
C547   C1140   1.411   1_554 S
C548   C553    1.422   .     A
C549   C551    1.422   .     A
C550   H563    1.085   .     S
C550   C1145   1.394   .     S
C551   N585    1.434   .     S
C551   C1144   1.394   1_554 S
C552   H564    1.085   .     S
C552   C1147   1.394   1_554 S
C553   N586    1.434   .     S
C553   C1146   1.394   .     S
C554   H561    1.083   .     S
C555   H572    1.083   .     S
C555   C558    1.401   .     A
C555   C425    1.383   1_655 S
C556   H574    1.083   .     S
C556   C558    1.401   .     A
C556   C422    1.383   1_655 S
C557   H575    1.083   .     S
Cu559  O589    1.965   .     S
Cu559  Cu560   2.672   .     S
Cu559  N581    2.008   .     S
Cu559  O591    1.979   .     S
Cu559  O587    1.965   .     S
Cu559  O593    1.971   .     S
Cu560  O590    1.965   .     S
Cu560  N582    2.008   .     S
Cu560  O588    1.965   .     S
Cu560  O592    1.979   .     S
Cu560  O594    1.971   .     S
H565   N585    1.046   .     S
H566   N585    1.046   .     S
H567   N586    1.046   .     S
H568   N586    1.046   .     S
H576   N583    1.045   .     S
H577   N583    1.046   .     S
H578   N584    1.046   .     S
H579   N584    1.045   .     S
C595   O656    1.289   .     A
C595   O653    1.289   .     A
C595   C596    1.450   .     S
C596   C620    1.401   .     A
C596   C623    1.401   .     A
C597   N648    1.367   .     A
C597   H635    1.082   .     S
C597   C996    1.415   1_545 S
C598   N647    1.367   .     A
C598   H636    1.082   .     S
C598   C797    1.415   .     S
C599   H637    1.081   .     S
C599   N648    1.366   .     A
C599   C994    1.415   1_545 S
C600   H639    1.081   .     S
C600   N647    1.366   .     A
C600   C795    1.415   .     S
C601   O660    1.297   .     A
C601   O657    1.290   .     A
C601   C607    1.467   .     S
C602   O659    1.297   .     A
C602   O658    1.290   .     A
C602   C605    1.467   .     S
C603   N649    1.436   .     S
C603   C605    1.419   .     A
C603   C614    1.417   .     A
C604   C615    1.417   .     A
C604   N650    1.436   .     S
C604   C607    1.419   .     A
C605   C608    1.394   .     A
C606   O655    1.289   .     A
C606   O654    1.289   .     A
C606   C624    1.450   .     S
C607   C609    1.394   .     A
C608   H646    1.085   .     S
C608   C610    1.386   .     A
C609   H628    1.085   .     S
C609   C611    1.386   .     A
C610   C612    1.408   .     A
C610   C616    1.394   .     A
C611   C618    1.394   .     A
C611   C613    1.408   .     A
C612   C614    1.424   .     A
C612   C19     1.411   1_556 S
C613   C615    1.424   .     A
C614   C619    1.422   .     A
C615   C617    1.422   .     A
C616   H629    1.085   .     S
C616   C23     1.394   1_556 S
C617   N651    1.434   .     S
C618   H630    1.085   .     S
C619   N652    1.434   .     S
C619   C24     1.394   1_556 S
C620   H627    1.083   .     S
C620   C754    1.383   1_455 S
C621   H638    1.083   .     S
C621   C624    1.401   .     A
C621   C689    1.383   .     S
C622   H640    1.083   .     S
C622   C624    1.401   .     A
C622   C686    1.383   .     S
C623   H641    1.083   .     S
C623   C753    1.383   1_455 S
Cu625  O655    1.965   .     S
Cu625  Cu626   2.672   .     S
Cu625  N647    2.008   .     S
Cu625  O657    1.979   .     S
Cu625  O653    1.965   .     S
Cu625  O659    1.971   .     S
Cu626  O656    1.965   .     S
Cu626  N648    2.008   .     S
Cu626  O654    1.965   .     S
Cu626  O658    1.979   .     S
Cu626  O660    1.971   .     S
H631   N651    1.046   .     S
H632   N651    1.046   .     S
H633   N652    1.046   .     S
H634   N652    1.046   .     S
H642   N649    1.045   .     S
H643   N649    1.046   .     S
H644   N650    1.046   .     S
H645   N650    1.045   .     S
C661   O722    1.289   .     A
C661   O719    1.289   .     A
C661   C662    1.450   .     S
C662   C686    1.401   .     A
C662   C689    1.401   .     A
C663   N714    1.367   .     A
C663   H701    1.082   .     S
C663   C1062   1.415   1_545 S
C664   N713    1.367   .     A
C664   H702    1.082   .     S
C664   C863    1.415   .     S
C665   H703    1.081   .     S
C665   N714    1.366   .     A
C665   C1060   1.415   1_545 S
C666   H705    1.081   .     S
C666   N713    1.366   .     A
C666   C861    1.415   .     S
C667   O726    1.297   .     A
C667   O723    1.290   .     A
C667   C673    1.467   .     S
C668   O725    1.297   .     A
C668   O724    1.290   .     A
C668   C671    1.467   .     S
C669   N715    1.436   .     S
C669   C671    1.419   .     A
C669   C680    1.417   .     A
C670   C681    1.417   .     A
C670   N716    1.436   .     S
C670   C673    1.419   .     A
C671   C674    1.394   .     A
C672   O721    1.289   .     A
C672   O720    1.289   .     A
C672   C690    1.450   .     S
C673   C675    1.394   .     A
C674   H712    1.085   .     S
C674   C676    1.386   .     A
C675   H694    1.085   .     S
C675   C677    1.386   .     A
C676   C678    1.408   .     A
C676   C682    1.394   .     A
C677   C684    1.394   .     A
C677   C679    1.408   .     A
C678   C680    1.424   .     A
C678   C85     1.411   1_556 S
C679   C681    1.424   .     A
C680   C685    1.422   .     A
C681   C683    1.422   .     A
C682   H695    1.085   .     S
C682   C89     1.394   1_556 S
C683   N717    1.434   .     S
C684   H696    1.085   .     S
C685   N718    1.434   .     S
C685   C90     1.394   1_556 S
C686   H693    1.083   .     S
C687   H704    1.083   .     S
C687   C690    1.401   .     A
C687   C755    1.383   .     S
C688   H706    1.083   .     S
C688   C690    1.401   .     A
C688   C752    1.383   .     S
C689   H707    1.083   .     S
Cu691  O721    1.965   .     S
Cu691  Cu692   2.672   .     S
Cu691  N713    2.008   .     S
Cu691  O723    1.979   .     S
Cu691  O719    1.965   .     S
Cu691  O725    1.971   .     S
Cu692  O722    1.965   .     S
Cu692  N714    2.008   .     S
Cu692  O720    1.965   .     S
Cu692  O724    1.979   .     S
Cu692  O726    1.971   .     S
H697   N717    1.046   .     S
H698   N717    1.046   .     S
H699   N718    1.046   .     S
H700   N718    1.046   .     S
H708   N715    1.045   .     S
H709   N715    1.046   .     S
H710   N716    1.046   .     S
H711   N716    1.045   .     S
C727   O788    1.289   .     A
C727   O785    1.289   .     A
C727   C728    1.450   .     S
C728   C752    1.401   .     A
C728   C755    1.401   .     A
C729   N780    1.367   .     A
C729   H767    1.082   .     S
C729   C1128   1.415   1_545 S
C730   N779    1.367   .     A
C730   H768    1.082   .     S
C730   C929    1.415   .     S
C731   H769    1.081   .     S
C731   N780    1.366   .     A
C731   C1126   1.415   1_545 S
C732   H771    1.081   .     S
C732   N779    1.366   .     A
C732   C927    1.415   .     S
C733   O792    1.297   .     A
C733   O789    1.290   .     A
C733   C739    1.467   .     S
C734   O791    1.297   .     A
C734   O790    1.290   .     A
C734   C737    1.467   .     S
C735   N781    1.436   .     S
C735   C737    1.419   .     A
C735   C746    1.417   .     A
C736   C747    1.417   .     A
C736   N782    1.436   .     S
C736   C739    1.419   .     A
C737   C740    1.394   .     A
C738   O787    1.289   .     A
C738   O786    1.289   .     A
C738   C756    1.450   .     S
C739   C741    1.394   .     A
C740   H778    1.085   .     S
C740   C742    1.386   .     A
C741   H760    1.085   .     S
C741   C743    1.386   .     A
C742   C744    1.408   .     A
C742   C748    1.394   .     A
C743   C750    1.394   .     A
C743   C745    1.408   .     A
C744   C746    1.424   .     A
C744   C151    1.411   1_556 S
C745   C747    1.424   .     A
C746   C751    1.422   .     A
C747   C749    1.422   .     A
C748   H761    1.085   .     S
C748   C155    1.394   1_556 S
C749   N783    1.434   .     S
C750   H762    1.085   .     S
C751   N784    1.434   .     S
C751   C156    1.394   1_556 S
C752   H759    1.083   .     S
C753   H770    1.083   .     S
C753   C756    1.401   .     A
C753   C623    1.383   1_655 S
C754   H772    1.083   .     S
C754   C756    1.401   .     A
C754   C620    1.383   1_655 S
C755   H773    1.083   .     S
Cu757  O787    1.965   .     S
Cu757  Cu758   2.672   .     S
Cu757  N779    2.008   .     S
Cu757  O789    1.979   .     S
Cu757  O785    1.965   .     S
Cu757  O791    1.971   .     S
Cu758  O788    1.965   .     S
Cu758  N780    2.008   .     S
Cu758  O786    1.965   .     S
Cu758  O790    1.979   .     S
Cu758  O792    1.971   .     S
H763   N783    1.046   .     S
H764   N783    1.046   .     S
H765   N784    1.046   .     S
H766   N784    1.046   .     S
H774   N781    1.045   .     S
H775   N781    1.046   .     S
H776   N782    1.046   .     S
H777   N782    1.045   .     S
C793   O854    1.289   .     A
C793   O851    1.289   .     A
C793   C794    1.450   .     S
C794   C818    1.401   .     A
C794   C821    1.401   .     A
C795   N846    1.367   .     A
C795   H833    1.082   .     S
C796   N845    1.367   .     A
C796   H834    1.082   .     S
C796   C995    1.415   .     S
C797   H835    1.081   .     S
C797   N846    1.366   .     A
C798   H837    1.081   .     S
C798   N845    1.366   .     A
C798   C993    1.415   .     S
C799   O858    1.297   .     A
C799   O855    1.290   .     A
C799   C805    1.467   .     S
C800   O857    1.297   .     A
C800   O856    1.290   .     A
C800   C803    1.467   .     S
C801   N847    1.436   .     S
C801   C803    1.419   .     A
C801   C812    1.417   .     A
C802   C813    1.417   .     A
C802   N848    1.436   .     S
C802   C805    1.419   .     A
C803   C806    1.394   .     A
C804   O853    1.289   .     A
C804   O852    1.289   .     A
C804   C822    1.450   .     S
C805   C807    1.394   .     A
C806   H844    1.085   .     S
C806   C808    1.386   .     A
C807   H826    1.085   .     S
C807   C809    1.386   .     A
C808   C810    1.408   .     A
C808   C814    1.394   .     A
C809   C816    1.394   .     A
C809   C811    1.408   .     A
C810   C812    1.424   .     A
C810   C217    1.411   1_556 S
C811   C813    1.424   .     A
C812   C817    1.422   .     A
C813   C815    1.422   .     A
C814   H827    1.085   .     S
C814   C221    1.394   1_556 S
C815   N849    1.434   .     S
C816   H828    1.085   .     S
C817   N850    1.434   .     S
C817   C222    1.394   1_556 S
C818   H825    1.083   .     S
C818   C952    1.383   1_455 S
C819   H836    1.083   .     S
C819   C822    1.401   .     A
C819   C887    1.383   .     S
C820   H838    1.083   .     S
C820   C822    1.401   .     A
C820   C884    1.383   .     S
C821   H839    1.083   .     S
C821   C951    1.383   1_455 S
Cu823  O853    1.965   .     S
Cu823  Cu824   2.672   .     S
Cu823  N845    2.008   .     S
Cu823  O855    1.979   .     S
Cu823  O851    1.965   .     S
Cu823  O857    1.971   .     S
Cu824  O854    1.965   .     S
Cu824  N846    2.008   .     S
Cu824  O852    1.965   .     S
Cu824  O856    1.979   .     S
Cu824  O858    1.971   .     S
H829   N849    1.046   .     S
H830   N849    1.046   .     S
H831   N850    1.046   .     S
H832   N850    1.046   .     S
H840   N847    1.045   .     S
H841   N847    1.046   .     S
H842   N848    1.046   .     S
H843   N848    1.045   .     S
C859   O920    1.289   .     A
C859   O917    1.289   .     A
C859   C860    1.450   .     S
C860   C884    1.401   .     A
C860   C887    1.401   .     A
C861   N912    1.367   .     A
C861   H899    1.082   .     S
C862   N911    1.367   .     A
C862   H900    1.082   .     S
C862   C1061   1.415   .     S
C863   H901    1.081   .     S
C863   N912    1.366   .     A
C864   H903    1.081   .     S
C864   N911    1.366   .     A
C864   C1059   1.415   .     S
C865   O924    1.297   .     A
C865   O921    1.290   .     A
C865   C871    1.467   .     S
C866   O923    1.297   .     A
C866   O922    1.290   .     A
C866   C869    1.467   .     S
C867   N913    1.436   .     S
C867   C869    1.419   .     A
C867   C878    1.417   .     A
C868   C879    1.417   .     A
C868   N914    1.436   .     S
C868   C871    1.419   .     A
C869   C872    1.394   .     A
C870   O919    1.289   .     A
C870   O918    1.289   .     A
C870   C888    1.450   .     S
C871   C873    1.394   .     A
C872   H910    1.085   .     S
C872   C874    1.386   .     A
C873   H892    1.085   .     S
C873   C875    1.386   .     A
C874   C876    1.408   .     A
C874   C880    1.394   .     A
C875   C882    1.394   .     A
C875   C877    1.408   .     A
C876   C878    1.424   .     A
C876   C283    1.411   1_556 S
C877   C879    1.424   .     A
C878   C883    1.422   .     A
C879   C881    1.422   .     A
C880   H893    1.085   .     S
C880   C287    1.394   1_556 S
C881   N915    1.434   .     S
C882   H894    1.085   .     S
C883   N916    1.434   .     S
C883   C288    1.394   1_556 S
C884   H891    1.083   .     S
C885   H902    1.083   .     S
C885   C888    1.401   .     A
C885   C953    1.383   .     S
C886   H904    1.083   .     S
C886   C888    1.401   .     A
C886   C950    1.383   .     S
C887   H905    1.083   .     S
Cu889  O919    1.965   .     S
Cu889  Cu890   2.672   .     S
Cu889  N911    2.008   .     S
Cu889  O921    1.979   .     S
Cu889  O917    1.965   .     S
Cu889  O923    1.971   .     S
Cu890  O920    1.965   .     S
Cu890  N912    2.008   .     S
Cu890  O918    1.965   .     S
Cu890  O922    1.979   .     S
Cu890  O924    1.971   .     S
H895   N915    1.046   .     S
H896   N915    1.046   .     S
H897   N916    1.046   .     S
H898   N916    1.046   .     S
H906   N913    1.045   .     S
H907   N913    1.046   .     S
H908   N914    1.046   .     S
H909   N914    1.045   .     S
C925   O986    1.289   .     A
C925   O983    1.289   .     A
C925   C926    1.450   .     S
C926   C950    1.401   .     A
C926   C953    1.401   .     A
C927   N978    1.367   .     A
C927   H965    1.082   .     S
C928   N977    1.367   .     A
C928   H966    1.082   .     S
C928   C1127   1.415   .     S
C929   H967    1.081   .     S
C929   N978    1.366   .     A
C930   H969    1.081   .     S
C930   N977    1.366   .     A
C930   C1125   1.415   .     S
C931   O990    1.297   .     A
C931   O987    1.290   .     A
C931   C937    1.467   .     S
C932   O989    1.297   .     A
C932   O988    1.290   .     A
C932   C935    1.467   .     S
C933   N979    1.436   .     S
C933   C935    1.419   .     A
C933   C944    1.417   .     A
C934   C945    1.417   .     A
C934   N980    1.436   .     S
C934   C937    1.419   .     A
C935   C938    1.394   .     A
C936   O985    1.289   .     A
C936   O984    1.289   .     A
C936   C954    1.450   .     S
C937   C939    1.394   .     A
C938   H976    1.085   .     S
C938   C940    1.386   .     A
C939   H958    1.085   .     S
C939   C941    1.386   .     A
C940   C942    1.408   .     A
C940   C946    1.394   .     A
C941   C948    1.394   .     A
C941   C943    1.408   .     A
C942   C944    1.424   .     A
C942   C349    1.411   1_556 S
C943   C945    1.424   .     A
C944   C949    1.422   .     A
C945   C947    1.422   .     A
C946   H959    1.085   .     S
C946   C353    1.394   1_556 S
C947   N981    1.434   .     S
C948   H960    1.085   .     S
C949   N982    1.434   .     S
C949   C354    1.394   1_556 S
C950   H957    1.083   .     S
C951   H968    1.083   .     S
C951   C954    1.401   .     A
C951   C821    1.383   1_655 S
C952   H970    1.083   .     S
C952   C954    1.401   .     A
C952   C818    1.383   1_655 S
C953   H971    1.083   .     S
Cu955  O985    1.965   .     S
Cu955  Cu956   2.672   .     S
Cu955  N977    2.008   .     S
Cu955  O987    1.979   .     S
Cu955  O983    1.965   .     S
Cu955  O989    1.971   .     S
Cu956  O986    1.965   .     S
Cu956  N978    2.008   .     S
Cu956  O984    1.965   .     S
Cu956  O988    1.979   .     S
Cu956  O990    1.971   .     S
H961   N981    1.046   .     S
H962   N981    1.046   .     S
H963   N982    1.046   .     S
H964   N982    1.046   .     S
H972   N979    1.045   .     S
H973   N979    1.046   .     S
H974   N980    1.046   .     S
H975   N980    1.045   .     S
C991   O1052   1.289   .     A
C991   O1049   1.289   .     A
C991   C992    1.450   .     S
C992   C1016   1.401   .     A
C992   C1019   1.401   .     A
C993   N1044   1.367   .     A
C993   H1031   1.082   .     S
C994   N1043   1.367   .     A
C994   H1032   1.082   .     S
C994   C599    1.415   1_565 S
C995   H1033   1.081   .     S
C995   N1044   1.366   .     A
C996   H1035   1.081   .     S
C996   N1043   1.366   .     A
C996   C597    1.415   1_565 S
C997   O1056   1.297   .     A
C997   O1053   1.290   .     A
C997   C1003   1.467   .     S
C998   O1055   1.297   .     A
C998   O1054   1.290   .     A
C998   C1001   1.467   .     S
C999   N1045   1.436   .     S
C999   C1001   1.419   .     A
C999   C1010   1.417   .     A
C1000  C1011   1.417   .     A
C1000  N1046   1.436   .     S
C1000  C1003   1.419   .     A
C1001  C1004   1.394   .     A
C1002  O1051   1.289   .     A
C1002  O1050   1.289   .     A
C1002  C1020   1.450   .     S
C1003  C1005   1.394   .     A
C1004  H1042   1.085   .     S
C1004  C1006   1.386   .     A
C1005  H1024   1.085   .     S
C1005  C1007   1.386   .     A
C1006  C1008   1.408   .     A
C1006  C1012   1.394   .     A
C1007  C1014   1.394   .     A
C1007  C1009   1.408   .     A
C1008  C1010   1.424   .     A
C1008  C415    1.411   1_556 S
C1009  C1011   1.424   .     A
C1010  C1015   1.422   .     A
C1011  C1013   1.422   .     A
C1012  H1025   1.085   .     S
C1012  C419    1.394   1_556 S
C1013  N1047   1.434   .     S
C1014  H1026   1.085   .     S
C1015  N1048   1.434   .     S
C1015  C420    1.394   1_556 S
C1016  H1023   1.083   .     S
C1016  C1150   1.383   1_455 S
C1017  H1034   1.083   .     S
C1017  C1020   1.401   .     A
C1017  C1085   1.383   .     S
C1018  H1036   1.083   .     S
C1018  C1020   1.401   .     A
C1018  C1082   1.383   .     S
C1019  H1037   1.083   .     S
C1019  C1149   1.383   1_455 S
Cu1021 O1051   1.965   .     S
Cu1021 Cu1022  2.672   .     S
Cu1021 N1043   2.008   .     S
Cu1021 O1053   1.979   .     S
Cu1021 O1049   1.965   .     S
Cu1021 O1055   1.971   .     S
Cu1022 O1052   1.965   .     S
Cu1022 N1044   2.008   .     S
Cu1022 O1050   1.965   .     S
Cu1022 O1054   1.979   .     S
Cu1022 O1056   1.971   .     S
H1027  N1047   1.046   .     S
H1028  N1047   1.046   .     S
H1029  N1048   1.046   .     S
H1030  N1048   1.046   .     S
H1038  N1045   1.045   .     S
H1039  N1045   1.046   .     S
H1040  N1046   1.046   .     S
H1041  N1046   1.045   .     S
C1057  O1118   1.289   .     A
C1057  O1115   1.289   .     A
C1057  C1058   1.450   .     S
C1058  C1082   1.401   .     A
C1058  C1085   1.401   .     A
C1059  N1110   1.367   .     A
C1059  H1097   1.082   .     S
C1060  N1109   1.367   .     A
C1060  H1098   1.082   .     S
C1060  C665    1.415   1_565 S
C1061  H1099   1.081   .     S
C1061  N1110   1.366   .     A
C1062  H1101   1.081   .     S
C1062  N1109   1.366   .     A
C1062  C663    1.415   1_565 S
C1063  O1122   1.297   .     A
C1063  O1119   1.290   .     A
C1063  C1069   1.467   .     S
C1064  O1121   1.297   .     A
C1064  O1120   1.290   .     A
C1064  C1067   1.467   .     S
C1065  N1111   1.436   .     S
C1065  C1067   1.419   .     A
C1065  C1076   1.417   .     A
C1066  C1077   1.417   .     A
C1066  N1112   1.436   .     S
C1066  C1069   1.419   .     A
C1067  C1070   1.394   .     A
C1068  O1117   1.289   .     A
C1068  O1116   1.289   .     A
C1068  C1086   1.450   .     S
C1069  C1071   1.394   .     A
C1070  H1108   1.085   .     S
C1070  C1072   1.386   .     A
C1071  H1090   1.085   .     S
C1071  C1073   1.386   .     A
C1072  C1074   1.408   .     A
C1072  C1078   1.394   .     A
C1073  C1080   1.394   .     A
C1073  C1075   1.408   .     A
C1074  C1076   1.424   .     A
C1074  C481    1.411   1_556 S
C1075  C1077   1.424   .     A
C1076  C1081   1.422   .     A
C1077  C1079   1.422   .     A
C1078  H1091   1.085   .     S
C1078  C485    1.394   1_556 S
C1079  N1113   1.434   .     S
C1080  H1092   1.085   .     S
C1081  N1114   1.434   .     S
C1081  C486    1.394   1_556 S
C1082  H1089   1.083   .     S
C1083  H1100   1.083   .     S
C1083  C1086   1.401   .     A
C1083  C1151   1.383   .     S
C1084  H1102   1.083   .     S
C1084  C1086   1.401   .     A
C1084  C1148   1.383   .     S
C1085  H1103   1.083   .     S
Cu1087 O1117   1.965   .     S
Cu1087 Cu1088  2.672   .     S
Cu1087 N1109   2.008   .     S
Cu1087 O1119   1.979   .     S
Cu1087 O1115   1.965   .     S
Cu1087 O1121   1.971   .     S
Cu1088 O1118   1.965   .     S
Cu1088 N1110   2.008   .     S
Cu1088 O1116   1.965   .     S
Cu1088 O1120   1.979   .     S
Cu1088 O1122   1.971   .     S
H1093  N1113   1.046   .     S
H1094  N1113   1.046   .     S
H1095  N1114   1.046   .     S
H1096  N1114   1.046   .     S
H1104  N1111   1.045   .     S
H1105  N1111   1.046   .     S
H1106  N1112   1.046   .     S
H1107  N1112   1.045   .     S
C1123  O1184   1.289   .     A
C1123  O1181   1.289   .     A
C1123  C1124   1.450   .     S
C1124  C1148   1.401   .     A
C1124  C1151   1.401   .     A
C1125  N1176   1.367   .     A
C1125  H1163   1.082   .     S
C1126  N1175   1.367   .     A
C1126  H1164   1.082   .     S
C1126  C731    1.415   1_565 S
C1127  H1165   1.081   .     S
C1127  N1176   1.366   .     A
C1128  H1167   1.081   .     S
C1128  N1175   1.366   .     A
C1128  C729    1.415   1_565 S
C1129  O1188   1.297   .     A
C1129  O1185   1.290   .     A
C1129  C1135   1.467   .     S
C1130  O1187   1.297   .     A
C1130  O1186   1.290   .     A
C1130  C1133   1.467   .     S
C1131  N1177   1.436   .     S
C1131  C1133   1.419   .     A
C1131  C1142   1.417   .     A
C1132  C1143   1.417   .     A
C1132  N1178   1.436   .     S
C1132  C1135   1.419   .     A
C1133  C1136   1.394   .     A
C1134  O1183   1.289   .     A
C1134  O1182   1.289   .     A
C1134  C1152   1.450   .     S
C1135  C1137   1.394   .     A
C1136  H1174   1.085   .     S
C1136  C1138   1.386   .     A
C1137  H1156   1.085   .     S
C1137  C1139   1.386   .     A
C1138  C1140   1.408   .     A
C1138  C1144   1.394   .     A
C1139  C1146   1.394   .     A
C1139  C1141   1.408   .     A
C1140  C1142   1.424   .     A
C1140  C547    1.411   1_556 S
C1141  C1143   1.424   .     A
C1142  C1147   1.422   .     A
C1143  C1145   1.422   .     A
C1144  H1157   1.085   .     S
C1144  C551    1.394   1_556 S
C1145  N1179   1.434   .     S
C1146  H1158   1.085   .     S
C1147  N1180   1.434   .     S
C1147  C552    1.394   1_556 S
C1148  H1155   1.083   .     S
C1149  H1166   1.083   .     S
C1149  C1152   1.401   .     A
C1149  C1019   1.383   1_655 S
C1150  H1168   1.083   .     S
C1150  C1152   1.401   .     A
C1150  C1016   1.383   1_655 S
C1151  H1169   1.083   .     S
Cu1153 O1183   1.965   .     S
Cu1153 Cu1154  2.672   .     S
Cu1153 N1175   2.008   .     S
Cu1153 O1185   1.979   .     S
Cu1153 O1181   1.965   .     S
Cu1153 O1187   1.971   .     S
Cu1154 O1184   1.965   .     S
Cu1154 N1176   2.008   .     S
Cu1154 O1182   1.965   .     S
Cu1154 O1186   1.979   .     S
Cu1154 O1188   1.971   .     S
H1159  N1179   1.046   .     S
H1160  N1179   1.046   .     S
H1161  N1180   1.046   .     S
H1162  N1180   1.046   .     S
H1170  N1177   1.045   .     S
H1171  N1177   1.046   .     S
H1172  N1178   1.046   .     S
H1173  N1178   1.045   .     S
