data_str_m2_o1_o16_pcu_sym.144
_audit_creation_date              2020-01-03
_audit_creation_method            'Materials Studio'
_symmetry_space_group_name_H-M    'P1'
_symmetry_Int_Tables_number       1
_symmetry_cell_setting            triclinic
loop_
_symmetry_equiv_pos_as_xyz
  x,y,z
_cell_length_a                    28.6612
_cell_length_b                    32.4915
_cell_length_c                    26.9119
_cell_angle_alpha                 91.3479
_cell_angle_beta                  72.8800
_cell_angle_gamma                 90.4337
loop_
_atom_site_label
_atom_site_type_symbol
_atom_site_fract_x
_atom_site_fract_y
_atom_site_fract_z
_atom_site_U_iso_or_equiv
_atom_site_adp_type
_atom_site_occupancy
O1     O     0.12708   0.22678   0.25000   0.00000  Uiso   1.00
O2     O     0.20627   0.22679   0.25001   0.00000  Uiso   1.00
C3     C     0.16677   0.24594   0.25005   0.00000  Uiso   1.00
O4     O     0.10775   0.16665   0.32549   0.00000  Uiso   1.00
O5     O     0.18694   0.16666   0.32549   0.00000  Uiso   1.00
C6     C     0.14060   0.16526   0.34995   0.00000  Uiso   1.00
Cu7    Cu    0.11978   0.16666   0.25000   0.00000  Uiso   1.00
Cu8    Cu    0.21355   0.16667   0.25000   0.00000  Uiso   1.00
O9     O     0.12706   0.10654   0.25000   0.00000  Uiso   1.00
O10    O     0.20625   0.10655   0.25000   0.00000  Uiso   1.00
O11    O     0.14640   0.16667   0.17451   0.00000  Uiso   1.00
O12    O     0.22559   0.16668   0.17451   0.00000  Uiso   1.00
C13    C     0.16659   0.08739   0.24987   0.00000  Uiso   1.00
C14    C     0.19281   0.16637   0.15015   0.00000  Uiso   1.00
C15    C     0.26069   0.13060   0.01504   0.00000  Uiso   1.00
H16    H     0.27775   0.13361   0.08728   0.00000  Uiso   1.00
H17    H     0.26518   0.10493   0.41959   0.00000  Uiso   1.00
H18    H     0.29415   0.11432   0.49540   0.00000  Uiso   1.00
C19    C     0.20797   0.16182   0.09358   0.00000  Uiso   1.00
C20    C     0.07965   0.18372   0.43320   0.00000  Uiso   1.00
C21    C     0.06722   0.19245   0.48613   0.00000  Uiso   1.00
C22    C     0.10051   0.18538   0.01351   0.00000  Uiso   1.00
C23    C     0.14643   0.16686   0.48889   0.00000  Uiso   1.00
C24    C     0.15699   0.15439   0.43584   0.00000  Uiso   1.00
C25    C     0.18193   0.15978   0.01527   0.00000  Uiso   1.00
C26    C     0.22559   0.13817   0.48940   0.00000  Uiso   1.00
C27    C     0.23301   0.12296   0.43892   0.00000  Uiso   1.00
C28    C     0.19883   0.13015   0.41294   0.00000  Uiso   1.00
C29    C     0.17511   0.17282   0.06697   0.00000  Uiso   1.00
C30    C     0.25171   0.14203   0.06713   0.00000  Uiso   1.00
C31    C     0.12507   0.16616   0.40717   0.00000  Uiso   1.00
H32    H     0.14351   0.19017   0.08853   0.00000  Uiso   1.00
H33    H     0.05428   0.19222   0.41227   0.00000  Uiso   1.00
H34    H     0.08863   0.19428   0.05402   0.00000  Uiso   1.00
H35    H     0.03218   0.20627   0.00576   0.00000  Uiso   1.00
H36    H     0.20522   0.11545   0.37511   0.00000  Uiso   1.00
C37    C     0.20938   0.31235   0.24910   0.00000  Uiso   1.00
H38    H     0.24270   0.29658   0.24852   0.00000  Uiso   1.00
C39    C     0.20929   0.02160   0.24898   0.00000  Uiso   1.00
H40    H     0.24262   0.03784   0.24829   0.00000  Uiso   1.00
C41    C     0.16661   0.04276   0.24976   0.00000  Uiso   1.00
C42    C     0.12407   0.02100   0.25053   0.00000  Uiso   1.00
H43    H     0.09073   0.03676   0.25119   0.00000  Uiso   1.00
C44    C     0.12417   0.31176   0.25061   0.00000  Uiso   1.00
H45    H     0.09084   0.29552   0.25128   0.00000  Uiso   1.00
C46    C     0.16681   0.29059   0.24994   0.00000  Uiso   1.00
C47    C     0.30016   0.19319   0.28169   0.00000  Uiso   1.00
H48    H     0.27477   0.21451   0.30714   0.00000  Uiso   1.00
C49    C     0.01628   0.19302   0.28192   0.00000  Uiso   1.00
H50    H     0.02800   0.21413   0.30756   0.00000  Uiso   1.00
N51    N     0.04931   0.16666   0.24999   0.00000  Uiso   1.00
C52    C     0.03240   0.14003   0.21746   0.00000  Uiso   1.00
C53    C     0.31597   0.14002   0.21898   0.00000  Uiso   1.00
H54    H     0.30260   0.11878   0.19483   0.00000  Uiso   1.00
N55    N     0.28402   0.16669   0.25000   0.00000  Uiso   1.00
C56    C     0.06353   0.10855   0.17945   0.00000  Uiso   1.00
C57    C     0.06415   0.11554   0.12255   0.00000  Uiso   1.00
C58    C     0.04013   0.08038   0.10026   0.00000  Uiso   1.00
H59    H     0.05944   0.05096   0.10091   0.00000  Uiso   1.00
H60    H     0.00113   0.07702   0.12275   0.00000  Uiso   1.00
H61    H     0.04224   0.08694   0.05932   0.00000  Uiso   1.00
H62    H     0.04611   0.14501   0.11884   0.00000  Uiso   1.00
H63    H     0.10255   0.11756   0.09774   0.00000  Uiso   1.00
H64    H     0.10144   0.10766   0.17944   0.00000  Uiso   1.00
H65    H     0.04901   0.07743   0.19208   0.00000  Uiso   1.00
O66    O     0.46042   0.22678   0.25000   0.00000  Uiso   1.00
O67    O     0.53961   0.22679   0.25001   0.00000  Uiso   1.00
C68    C     0.50010   0.24594   0.25005   0.00000  Uiso   1.00
O69    O     0.44108   0.16665   0.32549   0.00000  Uiso   1.00
O70    O     0.52027   0.16666   0.32549   0.00000  Uiso   1.00
C71    C     0.47393   0.16526   0.34995   0.00000  Uiso   1.00
Cu72   Cu    0.45311   0.16666   0.25000   0.00000  Uiso   1.00
Cu73   Cu    0.54689   0.16667   0.25000   0.00000  Uiso   1.00
O74    O     0.46039   0.10654   0.25000   0.00000  Uiso   1.00
O75    O     0.53958   0.10655   0.25000   0.00000  Uiso   1.00
O76    O     0.47973   0.16667   0.17451   0.00000  Uiso   1.00
O77    O     0.55892   0.16668   0.17451   0.00000  Uiso   1.00
C78    C     0.49993   0.08739   0.24987   0.00000  Uiso   1.00
C79    C     0.52615   0.16637   0.15015   0.00000  Uiso   1.00
C80    C     0.59402   0.13060   0.01504   0.00000  Uiso   1.00
H81    H     0.61109   0.13361   0.08728   0.00000  Uiso   1.00
H82    H     0.59851   0.10493   0.41959   0.00000  Uiso   1.00
H83    H     0.62749   0.11432   0.49540   0.00000  Uiso   1.00
C84    C     0.54131   0.16182   0.09358   0.00000  Uiso   1.00
C85    C     0.41298   0.18372   0.43320   0.00000  Uiso   1.00
C86    C     0.40056   0.19245   0.48613   0.00000  Uiso   1.00
C87    C     0.43384   0.18538   0.01351   0.00000  Uiso   1.00
C88    C     0.47976   0.16686   0.48889   0.00000  Uiso   1.00
C89    C     0.49033   0.15439   0.43584   0.00000  Uiso   1.00
C90    C     0.51527   0.15978   0.01527   0.00000  Uiso   1.00
C91    C     0.55892   0.13817   0.48940   0.00000  Uiso   1.00
C92    C     0.56635   0.12296   0.43892   0.00000  Uiso   1.00
C93    C     0.53216   0.13015   0.41294   0.00000  Uiso   1.00
C94    C     0.50845   0.17282   0.06697   0.00000  Uiso   1.00
C95    C     0.58504   0.14203   0.06713   0.00000  Uiso   1.00
C96    C     0.45840   0.16616   0.40717   0.00000  Uiso   1.00
H97    H     0.47684   0.19017   0.08853   0.00000  Uiso   1.00
H98    H     0.38762   0.19222   0.41227   0.00000  Uiso   1.00
H99    H     0.42196   0.19428   0.05402   0.00000  Uiso   1.00
H100   H     0.36551   0.20627   0.00576   0.00000  Uiso   1.00
H101   H     0.53855   0.11545   0.37511   0.00000  Uiso   1.00
C102   C     0.54271   0.31235   0.24910   0.00000  Uiso   1.00
H103   H     0.57604   0.29658   0.24852   0.00000  Uiso   1.00
C104   C     0.54262   0.02160   0.24898   0.00000  Uiso   1.00
H105   H     0.57595   0.03784   0.24829   0.00000  Uiso   1.00
C106   C     0.49994   0.04276   0.24976   0.00000  Uiso   1.00
C107   C     0.45740   0.02100   0.25053   0.00000  Uiso   1.00
H108   H     0.42406   0.03676   0.25119   0.00000  Uiso   1.00
C109   C     0.45750   0.31176   0.25061   0.00000  Uiso   1.00
H110   H     0.42418   0.29552   0.25128   0.00000  Uiso   1.00
C111   C     0.50015   0.29059   0.24994   0.00000  Uiso   1.00
C112   C     0.63349   0.19319   0.28169   0.00000  Uiso   1.00
H113   H     0.60810   0.21451   0.30714   0.00000  Uiso   1.00
C114   C     0.34961   0.19302   0.28192   0.00000  Uiso   1.00
H115   H     0.36134   0.21413   0.30756   0.00000  Uiso   1.00
N116   N     0.38265   0.16666   0.24999   0.00000  Uiso   1.00
C117   C     0.36573   0.14003   0.21746   0.00000  Uiso   1.00
C118   C     0.64930   0.14002   0.21898   0.00000  Uiso   1.00
H119   H     0.63593   0.11878   0.19483   0.00000  Uiso   1.00
N120   N     0.61735   0.16669   0.25000   0.00000  Uiso   1.00
C121   C     0.39686   0.10855   0.17945   0.00000  Uiso   1.00
C122   C     0.39748   0.11554   0.12255   0.00000  Uiso   1.00
C123   C     0.37346   0.08038   0.10026   0.00000  Uiso   1.00
H124   H     0.39277   0.05096   0.10091   0.00000  Uiso   1.00
H125   H     0.33446   0.07702   0.12275   0.00000  Uiso   1.00
H126   H     0.37557   0.08694   0.05932   0.00000  Uiso   1.00
H127   H     0.37944   0.14501   0.11884   0.00000  Uiso   1.00
H128   H     0.43588   0.11756   0.09774   0.00000  Uiso   1.00
H129   H     0.43478   0.10766   0.17944   0.00000  Uiso   1.00
H130   H     0.38234   0.07743   0.19208   0.00000  Uiso   1.00
O131   O     0.79375   0.22678   0.25000   0.00000  Uiso   1.00
O132   O     0.87294   0.22679   0.25001   0.00000  Uiso   1.00
C133   C     0.83343   0.24594   0.25005   0.00000  Uiso   1.00
O134   O     0.77441   0.16665   0.32549   0.00000  Uiso   1.00
O135   O     0.85360   0.16666   0.32549   0.00000  Uiso   1.00
C136   C     0.80727   0.16526   0.34995   0.00000  Uiso   1.00
Cu137  Cu    0.78645   0.16666   0.25000   0.00000  Uiso   1.00
Cu138  Cu    0.88022   0.16667   0.25000   0.00000  Uiso   1.00
O139   O     0.79373   0.10654   0.25000   0.00000  Uiso   1.00
O140   O     0.87292   0.10655   0.25000   0.00000  Uiso   1.00
O141   O     0.81306   0.16667   0.17451   0.00000  Uiso   1.00
O142   O     0.89225   0.16668   0.17451   0.00000  Uiso   1.00
C143   C     0.83326   0.08739   0.24987   0.00000  Uiso   1.00
C144   C     0.85948   0.16637   0.15015   0.00000  Uiso   1.00
C145   C     0.92736   0.13060   0.01504   0.00000  Uiso   1.00
H146   H     0.94442   0.13361   0.08728   0.00000  Uiso   1.00
H147   H     0.93184   0.10493   0.41959   0.00000  Uiso   1.00
H148   H     0.96082   0.11432   0.49540   0.00000  Uiso   1.00
C149   C     0.87464   0.16182   0.09358   0.00000  Uiso   1.00
C150   C     0.74631   0.18372   0.43320   0.00000  Uiso   1.00
C151   C     0.73389   0.19245   0.48613   0.00000  Uiso   1.00
C152   C     0.76718   0.18538   0.01351   0.00000  Uiso   1.00
C153   C     0.81310   0.16686   0.48889   0.00000  Uiso   1.00
C154   C     0.82366   0.15439   0.43584   0.00000  Uiso   1.00
C155   C     0.84860   0.15978   0.01527   0.00000  Uiso   1.00
C156   C     0.89226   0.13817   0.48940   0.00000  Uiso   1.00
C157   C     0.89968   0.12296   0.43892   0.00000  Uiso   1.00
C158   C     0.86550   0.13015   0.41294   0.00000  Uiso   1.00
C159   C     0.84178   0.17282   0.06697   0.00000  Uiso   1.00
C160   C     0.91838   0.14203   0.06713   0.00000  Uiso   1.00
C161   C     0.79173   0.16616   0.40717   0.00000  Uiso   1.00
H162   H     0.81017   0.19017   0.08853   0.00000  Uiso   1.00
H163   H     0.72095   0.19222   0.41227   0.00000  Uiso   1.00
H164   H     0.75529   0.19428   0.05402   0.00000  Uiso   1.00
H165   H     0.69884   0.20627   0.00576   0.00000  Uiso   1.00
H166   H     0.87188   0.11545   0.37511   0.00000  Uiso   1.00
C167   C     0.87604   0.31235   0.24910   0.00000  Uiso   1.00
H168   H     0.90937   0.29658   0.24852   0.00000  Uiso   1.00
C169   C     0.87596   0.02160   0.24898   0.00000  Uiso   1.00
H170   H     0.90928   0.03784   0.24829   0.00000  Uiso   1.00
C171   C     0.83328   0.04276   0.24976   0.00000  Uiso   1.00
C172   C     0.79074   0.02100   0.25053   0.00000  Uiso   1.00
H173   H     0.75739   0.03676   0.25119   0.00000  Uiso   1.00
C174   C     0.79083   0.31176   0.25061   0.00000  Uiso   1.00
H175   H     0.75751   0.29552   0.25128   0.00000  Uiso   1.00
C176   C     0.83348   0.29059   0.24994   0.00000  Uiso   1.00
C177   C     0.96683   0.19319   0.28169   0.00000  Uiso   1.00
H178   H     0.94144   0.21451   0.30714   0.00000  Uiso   1.00
C179   C     0.68295   0.19302   0.28192   0.00000  Uiso   1.00
H180   H     0.69467   0.21413   0.30756   0.00000  Uiso   1.00
N181   N     0.71598   0.16666   0.24999   0.00000  Uiso   1.00
C182   C     0.69906   0.14003   0.21746   0.00000  Uiso   1.00
C183   C     0.98263   0.14002   0.21898   0.00000  Uiso   1.00
H184   H     0.96926   0.11878   0.19483   0.00000  Uiso   1.00
N185   N     0.95069   0.16669   0.25000   0.00000  Uiso   1.00
C186   C     0.73020   0.10855   0.17945   0.00000  Uiso   1.00
C187   C     0.73081   0.11554   0.12255   0.00000  Uiso   1.00
C188   C     0.70679   0.08038   0.10026   0.00000  Uiso   1.00
H189   H     0.72611   0.05096   0.10091   0.00000  Uiso   1.00
H190   H     0.66780   0.07702   0.12275   0.00000  Uiso   1.00
H191   H     0.70891   0.08694   0.05932   0.00000  Uiso   1.00
H192   H     0.71278   0.14501   0.11884   0.00000  Uiso   1.00
H193   H     0.76921   0.11756   0.09774   0.00000  Uiso   1.00
H194   H     0.76811   0.10766   0.17944   0.00000  Uiso   1.00
H195   H     0.71567   0.07743   0.19208   0.00000  Uiso   1.00
O196   O     0.12708   0.56011   0.25000   0.00000  Uiso   1.00
O197   O     0.20627   0.56012   0.25001   0.00000  Uiso   1.00
C198   C     0.16677   0.57928   0.25005   0.00000  Uiso   1.00
O199   O     0.10775   0.49998   0.32549   0.00000  Uiso   1.00
O200   O     0.18694   0.49999   0.32549   0.00000  Uiso   1.00
C201   C     0.14060   0.49859   0.34995   0.00000  Uiso   1.00
Cu202  Cu    0.11978   0.49999   0.25000   0.00000  Uiso   1.00
Cu203  Cu    0.21355   0.50001   0.25000   0.00000  Uiso   1.00
O204   O     0.12706   0.43988   0.25000   0.00000  Uiso   1.00
O205   O     0.20625   0.43989   0.25000   0.00000  Uiso   1.00
O206   O     0.14640   0.50001   0.17451   0.00000  Uiso   1.00
O207   O     0.22559   0.50002   0.17451   0.00000  Uiso   1.00
C208   C     0.16659   0.42073   0.24987   0.00000  Uiso   1.00
C209   C     0.19281   0.49970   0.15015   0.00000  Uiso   1.00
C210   C     0.26069   0.46393   0.01504   0.00000  Uiso   1.00
H211   H     0.27775   0.46695   0.08728   0.00000  Uiso   1.00
H212   H     0.26518   0.43826   0.41959   0.00000  Uiso   1.00
H213   H     0.29415   0.44765   0.49540   0.00000  Uiso   1.00
C214   C     0.20797   0.49516   0.09358   0.00000  Uiso   1.00
C215   C     0.07965   0.51705   0.43320   0.00000  Uiso   1.00
C216   C     0.06722   0.52578   0.48613   0.00000  Uiso   1.00
C217   C     0.10051   0.51871   0.01351   0.00000  Uiso   1.00
C218   C     0.14643   0.50020   0.48889   0.00000  Uiso   1.00
C219   C     0.15699   0.48773   0.43584   0.00000  Uiso   1.00
C220   C     0.18193   0.49312   0.01527   0.00000  Uiso   1.00
C221   C     0.22559   0.47150   0.48940   0.00000  Uiso   1.00
C222   C     0.23301   0.45630   0.43892   0.00000  Uiso   1.00
C223   C     0.19883   0.46349   0.41294   0.00000  Uiso   1.00
C224   C     0.17511   0.50615   0.06697   0.00000  Uiso   1.00
C225   C     0.25171   0.47536   0.06713   0.00000  Uiso   1.00
C226   C     0.12507   0.49949   0.40717   0.00000  Uiso   1.00
H227   H     0.14351   0.52350   0.08853   0.00000  Uiso   1.00
H228   H     0.05428   0.52555   0.41227   0.00000  Uiso   1.00
H229   H     0.08863   0.52761   0.05402   0.00000  Uiso   1.00
H230   H     0.03218   0.53960   0.00576   0.00000  Uiso   1.00
H231   H     0.20522   0.44878   0.37511   0.00000  Uiso   1.00
C232   C     0.20938   0.64568   0.24910   0.00000  Uiso   1.00
H233   H     0.24270   0.62991   0.24852   0.00000  Uiso   1.00
C234   C     0.20929   0.35493   0.24898   0.00000  Uiso   1.00
H235   H     0.24262   0.37117   0.24829   0.00000  Uiso   1.00
C236   C     0.16661   0.37610   0.24976   0.00000  Uiso   1.00
C237   C     0.12407   0.35433   0.25053   0.00000  Uiso   1.00
H238   H     0.09073   0.37010   0.25119   0.00000  Uiso   1.00
C239   C     0.12417   0.64509   0.25061   0.00000  Uiso   1.00
H240   H     0.09084   0.62885   0.25128   0.00000  Uiso   1.00
C241   C     0.16681   0.62392   0.24994   0.00000  Uiso   1.00
C242   C     0.30016   0.52652   0.28169   0.00000  Uiso   1.00
H243   H     0.27477   0.54784   0.30714   0.00000  Uiso   1.00
C244   C     0.01628   0.52635   0.28192   0.00000  Uiso   1.00
H245   H     0.02800   0.54746   0.30756   0.00000  Uiso   1.00
N246   N     0.04931   0.49999   0.24999   0.00000  Uiso   1.00
C247   C     0.03240   0.47336   0.21746   0.00000  Uiso   1.00
C248   C     0.31597   0.47335   0.21898   0.00000  Uiso   1.00
H249   H     0.30260   0.45211   0.19483   0.00000  Uiso   1.00
N250   N     0.28402   0.50002   0.25000   0.00000  Uiso   1.00
C251   C     0.06353   0.44189   0.17945   0.00000  Uiso   1.00
C252   C     0.06415   0.44887   0.12255   0.00000  Uiso   1.00
C253   C     0.04013   0.41372   0.10026   0.00000  Uiso   1.00
H254   H     0.05944   0.38429   0.10091   0.00000  Uiso   1.00
H255   H     0.00113   0.41035   0.12275   0.00000  Uiso   1.00
H256   H     0.04224   0.42027   0.05932   0.00000  Uiso   1.00
H257   H     0.04611   0.47834   0.11884   0.00000  Uiso   1.00
H258   H     0.10255   0.45089   0.09774   0.00000  Uiso   1.00
H259   H     0.10144   0.44099   0.17944   0.00000  Uiso   1.00
H260   H     0.04901   0.41076   0.19208   0.00000  Uiso   1.00
O261   O     0.46042   0.56011   0.25000   0.00000  Uiso   1.00
O262   O     0.53961   0.56012   0.25001   0.00000  Uiso   1.00
C263   C     0.50010   0.57928   0.25005   0.00000  Uiso   1.00
O264   O     0.44108   0.49998   0.32549   0.00000  Uiso   1.00
O265   O     0.52027   0.49999   0.32549   0.00000  Uiso   1.00
C266   C     0.47393   0.49859   0.34995   0.00000  Uiso   1.00
Cu267  Cu    0.45311   0.49999   0.25000   0.00000  Uiso   1.00
Cu268  Cu    0.54689   0.50001   0.25000   0.00000  Uiso   1.00
O269   O     0.46039   0.43988   0.25000   0.00000  Uiso   1.00
O270   O     0.53958   0.43989   0.25000   0.00000  Uiso   1.00
O271   O     0.47973   0.50001   0.17451   0.00000  Uiso   1.00
O272   O     0.55892   0.50002   0.17451   0.00000  Uiso   1.00
C273   C     0.49993   0.42073   0.24987   0.00000  Uiso   1.00
C274   C     0.52615   0.49970   0.15015   0.00000  Uiso   1.00
C275   C     0.59402   0.46393   0.01504   0.00000  Uiso   1.00
H276   H     0.61109   0.46695   0.08728   0.00000  Uiso   1.00
H277   H     0.59851   0.43826   0.41959   0.00000  Uiso   1.00
H278   H     0.62749   0.44765   0.49540   0.00000  Uiso   1.00
C279   C     0.54131   0.49516   0.09358   0.00000  Uiso   1.00
C280   C     0.41298   0.51705   0.43320   0.00000  Uiso   1.00
C281   C     0.40056   0.52578   0.48613   0.00000  Uiso   1.00
C282   C     0.43384   0.51871   0.01351   0.00000  Uiso   1.00
C283   C     0.47976   0.50020   0.48889   0.00000  Uiso   1.00
C284   C     0.49033   0.48773   0.43584   0.00000  Uiso   1.00
C285   C     0.51527   0.49312   0.01527   0.00000  Uiso   1.00
C286   C     0.55892   0.47150   0.48940   0.00000  Uiso   1.00
C287   C     0.56635   0.45630   0.43892   0.00000  Uiso   1.00
C288   C     0.53216   0.46349   0.41294   0.00000  Uiso   1.00
C289   C     0.50845   0.50615   0.06697   0.00000  Uiso   1.00
C290   C     0.58504   0.47536   0.06713   0.00000  Uiso   1.00
C291   C     0.45840   0.49949   0.40717   0.00000  Uiso   1.00
H292   H     0.47684   0.52350   0.08853   0.00000  Uiso   1.00
H293   H     0.38762   0.52555   0.41227   0.00000  Uiso   1.00
H294   H     0.42196   0.52761   0.05402   0.00000  Uiso   1.00
H295   H     0.36551   0.53960   0.00576   0.00000  Uiso   1.00
H296   H     0.53855   0.44878   0.37511   0.00000  Uiso   1.00
C297   C     0.54271   0.64568   0.24910   0.00000  Uiso   1.00
H298   H     0.57604   0.62991   0.24852   0.00000  Uiso   1.00
C299   C     0.54262   0.35493   0.24898   0.00000  Uiso   1.00
H300   H     0.57595   0.37117   0.24829   0.00000  Uiso   1.00
C301   C     0.49994   0.37610   0.24976   0.00000  Uiso   1.00
C302   C     0.45740   0.35433   0.25053   0.00000  Uiso   1.00
H303   H     0.42406   0.37010   0.25119   0.00000  Uiso   1.00
C304   C     0.45750   0.64509   0.25061   0.00000  Uiso   1.00
H305   H     0.42418   0.62885   0.25128   0.00000  Uiso   1.00
C306   C     0.50015   0.62392   0.24994   0.00000  Uiso   1.00
C307   C     0.63349   0.52652   0.28169   0.00000  Uiso   1.00
H308   H     0.60810   0.54784   0.30714   0.00000  Uiso   1.00
C309   C     0.34961   0.52635   0.28192   0.00000  Uiso   1.00
H310   H     0.36134   0.54746   0.30756   0.00000  Uiso   1.00
N311   N     0.38265   0.49999   0.24999   0.00000  Uiso   1.00
C312   C     0.36573   0.47336   0.21746   0.00000  Uiso   1.00
C313   C     0.64930   0.47335   0.21898   0.00000  Uiso   1.00
H314   H     0.63593   0.45211   0.19483   0.00000  Uiso   1.00
N315   N     0.61735   0.50002   0.25000   0.00000  Uiso   1.00
C316   C     0.39686   0.44189   0.17945   0.00000  Uiso   1.00
C317   C     0.39748   0.44887   0.12255   0.00000  Uiso   1.00
C318   C     0.37346   0.41372   0.10026   0.00000  Uiso   1.00
H319   H     0.39277   0.38429   0.10091   0.00000  Uiso   1.00
H320   H     0.33446   0.41035   0.12275   0.00000  Uiso   1.00
H321   H     0.37557   0.42027   0.05932   0.00000  Uiso   1.00
H322   H     0.37944   0.47834   0.11884   0.00000  Uiso   1.00
H323   H     0.43588   0.45089   0.09774   0.00000  Uiso   1.00
H324   H     0.43478   0.44099   0.17944   0.00000  Uiso   1.00
H325   H     0.38234   0.41076   0.19208   0.00000  Uiso   1.00
O326   O     0.79375   0.56011   0.25000   0.00000  Uiso   1.00
O327   O     0.87294   0.56012   0.25001   0.00000  Uiso   1.00
C328   C     0.83343   0.57928   0.25005   0.00000  Uiso   1.00
O329   O     0.77441   0.49998   0.32549   0.00000  Uiso   1.00
O330   O     0.85360   0.49999   0.32549   0.00000  Uiso   1.00
C331   C     0.80727   0.49859   0.34995   0.00000  Uiso   1.00
Cu332  Cu    0.78645   0.49999   0.25000   0.00000  Uiso   1.00
Cu333  Cu    0.88022   0.50001   0.25000   0.00000  Uiso   1.00
O334   O     0.79373   0.43988   0.25000   0.00000  Uiso   1.00
O335   O     0.87292   0.43989   0.25000   0.00000  Uiso   1.00
O336   O     0.81306   0.50001   0.17451   0.00000  Uiso   1.00
O337   O     0.89225   0.50002   0.17451   0.00000  Uiso   1.00
C338   C     0.83326   0.42073   0.24987   0.00000  Uiso   1.00
C339   C     0.85948   0.49970   0.15015   0.00000  Uiso   1.00
C340   C     0.92736   0.46393   0.01504   0.00000  Uiso   1.00
H341   H     0.94442   0.46695   0.08728   0.00000  Uiso   1.00
H342   H     0.93184   0.43826   0.41959   0.00000  Uiso   1.00
H343   H     0.96082   0.44765   0.49540   0.00000  Uiso   1.00
C344   C     0.87464   0.49516   0.09358   0.00000  Uiso   1.00
C345   C     0.74631   0.51705   0.43320   0.00000  Uiso   1.00
C346   C     0.73389   0.52578   0.48613   0.00000  Uiso   1.00
C347   C     0.76718   0.51871   0.01351   0.00000  Uiso   1.00
C348   C     0.81310   0.50020   0.48889   0.00000  Uiso   1.00
C349   C     0.82366   0.48773   0.43584   0.00000  Uiso   1.00
C350   C     0.84860   0.49312   0.01527   0.00000  Uiso   1.00
C351   C     0.89226   0.47150   0.48940   0.00000  Uiso   1.00
C352   C     0.89968   0.45630   0.43892   0.00000  Uiso   1.00
C353   C     0.86550   0.46349   0.41294   0.00000  Uiso   1.00
C354   C     0.84178   0.50615   0.06697   0.00000  Uiso   1.00
C355   C     0.91838   0.47536   0.06713   0.00000  Uiso   1.00
C356   C     0.79173   0.49949   0.40717   0.00000  Uiso   1.00
H357   H     0.81017   0.52350   0.08853   0.00000  Uiso   1.00
H358   H     0.72095   0.52555   0.41227   0.00000  Uiso   1.00
H359   H     0.75529   0.52761   0.05402   0.00000  Uiso   1.00
H360   H     0.69884   0.53960   0.00576   0.00000  Uiso   1.00
H361   H     0.87188   0.44878   0.37511   0.00000  Uiso   1.00
C362   C     0.87604   0.64568   0.24910   0.00000  Uiso   1.00
H363   H     0.90937   0.62991   0.24852   0.00000  Uiso   1.00
C364   C     0.87596   0.35493   0.24898   0.00000  Uiso   1.00
H365   H     0.90928   0.37117   0.24829   0.00000  Uiso   1.00
C366   C     0.83328   0.37610   0.24976   0.00000  Uiso   1.00
C367   C     0.79074   0.35433   0.25053   0.00000  Uiso   1.00
H368   H     0.75739   0.37010   0.25119   0.00000  Uiso   1.00
C369   C     0.79083   0.64509   0.25061   0.00000  Uiso   1.00
H370   H     0.75751   0.62885   0.25128   0.00000  Uiso   1.00
C371   C     0.83348   0.62392   0.24994   0.00000  Uiso   1.00
C372   C     0.96683   0.52652   0.28169   0.00000  Uiso   1.00
H373   H     0.94144   0.54784   0.30714   0.00000  Uiso   1.00
C374   C     0.68295   0.52635   0.28192   0.00000  Uiso   1.00
H375   H     0.69467   0.54746   0.30756   0.00000  Uiso   1.00
N376   N     0.71598   0.49999   0.24999   0.00000  Uiso   1.00
C377   C     0.69906   0.47336   0.21746   0.00000  Uiso   1.00
C378   C     0.98263   0.47335   0.21898   0.00000  Uiso   1.00
H379   H     0.96926   0.45211   0.19483   0.00000  Uiso   1.00
N380   N     0.95069   0.50002   0.25000   0.00000  Uiso   1.00
C381   C     0.73020   0.44189   0.17945   0.00000  Uiso   1.00
C382   C     0.73081   0.44887   0.12255   0.00000  Uiso   1.00
C383   C     0.70679   0.41372   0.10026   0.00000  Uiso   1.00
H384   H     0.72611   0.38429   0.10091   0.00000  Uiso   1.00
H385   H     0.66780   0.41035   0.12275   0.00000  Uiso   1.00
H386   H     0.70891   0.42027   0.05932   0.00000  Uiso   1.00
H387   H     0.71278   0.47834   0.11884   0.00000  Uiso   1.00
H388   H     0.76921   0.45089   0.09774   0.00000  Uiso   1.00
H389   H     0.76811   0.44099   0.17944   0.00000  Uiso   1.00
H390   H     0.71567   0.41076   0.19208   0.00000  Uiso   1.00
O391   O     0.12708   0.89345   0.25000   0.00000  Uiso   1.00
O392   O     0.20627   0.89346   0.25001   0.00000  Uiso   1.00
C393   C     0.16677   0.91261   0.25005   0.00000  Uiso   1.00
O394   O     0.10775   0.83332   0.32549   0.00000  Uiso   1.00
O395   O     0.18694   0.83333   0.32549   0.00000  Uiso   1.00
C396   C     0.14060   0.83193   0.34995   0.00000  Uiso   1.00
Cu397  Cu    0.11978   0.83333   0.25000   0.00000  Uiso   1.00
Cu398  Cu    0.21355   0.83334   0.25000   0.00000  Uiso   1.00
O399   O     0.12706   0.77321   0.25000   0.00000  Uiso   1.00
O400   O     0.20625   0.77322   0.25000   0.00000  Uiso   1.00
O401   O     0.14640   0.83334   0.17451   0.00000  Uiso   1.00
O402   O     0.22559   0.83335   0.17451   0.00000  Uiso   1.00
C403   C     0.16659   0.75406   0.24987   0.00000  Uiso   1.00
C404   C     0.19281   0.83304   0.15015   0.00000  Uiso   1.00
C405   C     0.26069   0.79727   0.01504   0.00000  Uiso   1.00
H406   H     0.27775   0.80028   0.08728   0.00000  Uiso   1.00
H407   H     0.26518   0.77159   0.41959   0.00000  Uiso   1.00
H408   H     0.29415   0.78098   0.49540   0.00000  Uiso   1.00
C409   C     0.20797   0.82849   0.09358   0.00000  Uiso   1.00
C410   C     0.07965   0.85038   0.43320   0.00000  Uiso   1.00
C411   C     0.06722   0.85912   0.48613   0.00000  Uiso   1.00
C412   C     0.10051   0.85204   0.01351   0.00000  Uiso   1.00
C413   C     0.14643   0.83353   0.48889   0.00000  Uiso   1.00
C414   C     0.15699   0.82106   0.43584   0.00000  Uiso   1.00
C415   C     0.18193   0.82645   0.01527   0.00000  Uiso   1.00
C416   C     0.22559   0.80484   0.48940   0.00000  Uiso   1.00
C417   C     0.23301   0.78963   0.43892   0.00000  Uiso   1.00
C418   C     0.19883   0.79682   0.41294   0.00000  Uiso   1.00
C419   C     0.17511   0.83948   0.06697   0.00000  Uiso   1.00
C420   C     0.25171   0.80870   0.06713   0.00000  Uiso   1.00
C421   C     0.12507   0.83282   0.40717   0.00000  Uiso   1.00
H422   H     0.14351   0.85684   0.08853   0.00000  Uiso   1.00
H423   H     0.05428   0.85889   0.41227   0.00000  Uiso   1.00
H424   H     0.08863   0.86095   0.05402   0.00000  Uiso   1.00
H425   H     0.03218   0.87293   0.00576   0.00000  Uiso   1.00
H426   H     0.20522   0.78211   0.37511   0.00000  Uiso   1.00
C427   C     0.20938   0.97902   0.24910   0.00000  Uiso   1.00
H428   H     0.24270   0.96325   0.24852   0.00000  Uiso   1.00
C429   C     0.20929   0.68826   0.24898   0.00000  Uiso   1.00
H430   H     0.24262   0.70451   0.24829   0.00000  Uiso   1.00
C431   C     0.16661   0.70943   0.24976   0.00000  Uiso   1.00
C432   C     0.12407   0.68767   0.25053   0.00000  Uiso   1.00
H433   H     0.09073   0.70343   0.25119   0.00000  Uiso   1.00
C434   C     0.12417   0.97842   0.25061   0.00000  Uiso   1.00
H435   H     0.09084   0.96219   0.25128   0.00000  Uiso   1.00
C436   C     0.16681   0.95725   0.24994   0.00000  Uiso   1.00
C437   C     0.30016   0.85985   0.28169   0.00000  Uiso   1.00
H438   H     0.27477   0.88117   0.30714   0.00000  Uiso   1.00
C439   C     0.01628   0.85969   0.28192   0.00000  Uiso   1.00
H440   H     0.02800   0.88079   0.30756   0.00000  Uiso   1.00
N441   N     0.04931   0.83332   0.24999   0.00000  Uiso   1.00
C442   C     0.03240   0.80670   0.21746   0.00000  Uiso   1.00
C443   C     0.31597   0.80668   0.21898   0.00000  Uiso   1.00
H444   H     0.30260   0.78544   0.19483   0.00000  Uiso   1.00
N445   N     0.28402   0.83335   0.25000   0.00000  Uiso   1.00
C446   C     0.06353   0.77522   0.17945   0.00000  Uiso   1.00
C447   C     0.06415   0.78221   0.12255   0.00000  Uiso   1.00
C448   C     0.04013   0.74705   0.10026   0.00000  Uiso   1.00
H449   H     0.05944   0.71763   0.10091   0.00000  Uiso   1.00
H450   H     0.00113   0.74368   0.12275   0.00000  Uiso   1.00
H451   H     0.04224   0.75360   0.05932   0.00000  Uiso   1.00
H452   H     0.04611   0.81167   0.11884   0.00000  Uiso   1.00
H453   H     0.10255   0.78423   0.09774   0.00000  Uiso   1.00
H454   H     0.10144   0.77432   0.17944   0.00000  Uiso   1.00
H455   H     0.04901   0.74410   0.19208   0.00000  Uiso   1.00
O456   O     0.46042   0.89345   0.25000   0.00000  Uiso   1.00
O457   O     0.53961   0.89346   0.25001   0.00000  Uiso   1.00
C458   C     0.50010   0.91261   0.25005   0.00000  Uiso   1.00
O459   O     0.44108   0.83332   0.32549   0.00000  Uiso   1.00
O460   O     0.52027   0.83333   0.32549   0.00000  Uiso   1.00
C461   C     0.47393   0.83193   0.34995   0.00000  Uiso   1.00
Cu462  Cu    0.45311   0.83333   0.25000   0.00000  Uiso   1.00
Cu463  Cu    0.54689   0.83334   0.25000   0.00000  Uiso   1.00
O464   O     0.46039   0.77321   0.25000   0.00000  Uiso   1.00
O465   O     0.53958   0.77322   0.25000   0.00000  Uiso   1.00
O466   O     0.47973   0.83334   0.17451   0.00000  Uiso   1.00
O467   O     0.55892   0.83335   0.17451   0.00000  Uiso   1.00
C468   C     0.49993   0.75406   0.24987   0.00000  Uiso   1.00
C469   C     0.52615   0.83304   0.15015   0.00000  Uiso   1.00
C470   C     0.59402   0.79727   0.01504   0.00000  Uiso   1.00
H471   H     0.61109   0.80028   0.08728   0.00000  Uiso   1.00
H472   H     0.59851   0.77159   0.41959   0.00000  Uiso   1.00
H473   H     0.62749   0.78098   0.49540   0.00000  Uiso   1.00
C474   C     0.54131   0.82849   0.09358   0.00000  Uiso   1.00
C475   C     0.41298   0.85038   0.43320   0.00000  Uiso   1.00
C476   C     0.40056   0.85912   0.48613   0.00000  Uiso   1.00
C477   C     0.43384   0.85204   0.01351   0.00000  Uiso   1.00
C478   C     0.47976   0.83353   0.48889   0.00000  Uiso   1.00
C479   C     0.49033   0.82106   0.43584   0.00000  Uiso   1.00
C480   C     0.51527   0.82645   0.01527   0.00000  Uiso   1.00
C481   C     0.55892   0.80484   0.48940   0.00000  Uiso   1.00
C482   C     0.56635   0.78963   0.43892   0.00000  Uiso   1.00
C483   C     0.53216   0.79682   0.41294   0.00000  Uiso   1.00
C484   C     0.50845   0.83948   0.06697   0.00000  Uiso   1.00
C485   C     0.58504   0.80870   0.06713   0.00000  Uiso   1.00
C486   C     0.45840   0.83282   0.40717   0.00000  Uiso   1.00
H487   H     0.47684   0.85684   0.08853   0.00000  Uiso   1.00
H488   H     0.38762   0.85889   0.41227   0.00000  Uiso   1.00
H489   H     0.42196   0.86095   0.05402   0.00000  Uiso   1.00
H490   H     0.36551   0.87293   0.00576   0.00000  Uiso   1.00
H491   H     0.53855   0.78211   0.37511   0.00000  Uiso   1.00
C492   C     0.54271   0.97902   0.24910   0.00000  Uiso   1.00
H493   H     0.57604   0.96325   0.24852   0.00000  Uiso   1.00
C494   C     0.54262   0.68826   0.24898   0.00000  Uiso   1.00
H495   H     0.57595   0.70451   0.24829   0.00000  Uiso   1.00
C496   C     0.49994   0.70943   0.24976   0.00000  Uiso   1.00
C497   C     0.45740   0.68767   0.25053   0.00000  Uiso   1.00
H498   H     0.42406   0.70343   0.25119   0.00000  Uiso   1.00
C499   C     0.45750   0.97842   0.25061   0.00000  Uiso   1.00
H500   H     0.42418   0.96219   0.25128   0.00000  Uiso   1.00
C501   C     0.50015   0.95725   0.24994   0.00000  Uiso   1.00
C502   C     0.63349   0.85985   0.28169   0.00000  Uiso   1.00
H503   H     0.60810   0.88117   0.30714   0.00000  Uiso   1.00
C504   C     0.34961   0.85969   0.28192   0.00000  Uiso   1.00
H505   H     0.36134   0.88079   0.30756   0.00000  Uiso   1.00
N506   N     0.38265   0.83332   0.24999   0.00000  Uiso   1.00
C507   C     0.36573   0.80670   0.21746   0.00000  Uiso   1.00
C508   C     0.64930   0.80668   0.21898   0.00000  Uiso   1.00
H509   H     0.63593   0.78544   0.19483   0.00000  Uiso   1.00
N510   N     0.61735   0.83335   0.25000   0.00000  Uiso   1.00
C511   C     0.39686   0.77522   0.17945   0.00000  Uiso   1.00
C512   C     0.39748   0.78221   0.12255   0.00000  Uiso   1.00
C513   C     0.37346   0.74705   0.10026   0.00000  Uiso   1.00
H514   H     0.39277   0.71763   0.10091   0.00000  Uiso   1.00
H515   H     0.33446   0.74368   0.12275   0.00000  Uiso   1.00
H516   H     0.37557   0.75360   0.05932   0.00000  Uiso   1.00
H517   H     0.37944   0.81167   0.11884   0.00000  Uiso   1.00
H518   H     0.43588   0.78423   0.09774   0.00000  Uiso   1.00
H519   H     0.43478   0.77432   0.17944   0.00000  Uiso   1.00
H520   H     0.38234   0.74410   0.19208   0.00000  Uiso   1.00
O521   O     0.79375   0.89345   0.25000   0.00000  Uiso   1.00
O522   O     0.87294   0.89346   0.25001   0.00000  Uiso   1.00
C523   C     0.83343   0.91261   0.25005   0.00000  Uiso   1.00
O524   O     0.77441   0.83332   0.32549   0.00000  Uiso   1.00
O525   O     0.85360   0.83333   0.32549   0.00000  Uiso   1.00
C526   C     0.80727   0.83193   0.34995   0.00000  Uiso   1.00
Cu527  Cu    0.78645   0.83333   0.25000   0.00000  Uiso   1.00
Cu528  Cu    0.88022   0.83334   0.25000   0.00000  Uiso   1.00
O529   O     0.79373   0.77321   0.25000   0.00000  Uiso   1.00
O530   O     0.87292   0.77322   0.25000   0.00000  Uiso   1.00
O531   O     0.81306   0.83334   0.17451   0.00000  Uiso   1.00
O532   O     0.89225   0.83335   0.17451   0.00000  Uiso   1.00
C533   C     0.83326   0.75406   0.24987   0.00000  Uiso   1.00
C534   C     0.85948   0.83304   0.15015   0.00000  Uiso   1.00
C535   C     0.92736   0.79727   0.01504   0.00000  Uiso   1.00
H536   H     0.94442   0.80028   0.08728   0.00000  Uiso   1.00
H537   H     0.93184   0.77159   0.41959   0.00000  Uiso   1.00
H538   H     0.96082   0.78098   0.49540   0.00000  Uiso   1.00
C539   C     0.87464   0.82849   0.09358   0.00000  Uiso   1.00
C540   C     0.74631   0.85038   0.43320   0.00000  Uiso   1.00
C541   C     0.73389   0.85912   0.48613   0.00000  Uiso   1.00
C542   C     0.76718   0.85204   0.01351   0.00000  Uiso   1.00
C543   C     0.81310   0.83353   0.48889   0.00000  Uiso   1.00
C544   C     0.82366   0.82106   0.43584   0.00000  Uiso   1.00
C545   C     0.84860   0.82645   0.01527   0.00000  Uiso   1.00
C546   C     0.89226   0.80484   0.48940   0.00000  Uiso   1.00
C547   C     0.89968   0.78963   0.43892   0.00000  Uiso   1.00
C548   C     0.86550   0.79682   0.41294   0.00000  Uiso   1.00
C549   C     0.84178   0.83948   0.06697   0.00000  Uiso   1.00
C550   C     0.91838   0.80870   0.06713   0.00000  Uiso   1.00
C551   C     0.79173   0.83282   0.40717   0.00000  Uiso   1.00
H552   H     0.81017   0.85684   0.08853   0.00000  Uiso   1.00
H553   H     0.72095   0.85889   0.41227   0.00000  Uiso   1.00
H554   H     0.75529   0.86095   0.05402   0.00000  Uiso   1.00
H555   H     0.69884   0.87293   0.00576   0.00000  Uiso   1.00
H556   H     0.87188   0.78211   0.37511   0.00000  Uiso   1.00
C557   C     0.87604   0.97902   0.24910   0.00000  Uiso   1.00
H558   H     0.90937   0.96325   0.24852   0.00000  Uiso   1.00
C559   C     0.87596   0.68826   0.24898   0.00000  Uiso   1.00
H560   H     0.90928   0.70451   0.24829   0.00000  Uiso   1.00
C561   C     0.83328   0.70943   0.24976   0.00000  Uiso   1.00
C562   C     0.79074   0.68767   0.25053   0.00000  Uiso   1.00
H563   H     0.75739   0.70343   0.25119   0.00000  Uiso   1.00
C564   C     0.79083   0.97842   0.25061   0.00000  Uiso   1.00
H565   H     0.75751   0.96219   0.25128   0.00000  Uiso   1.00
C566   C     0.83348   0.95725   0.24994   0.00000  Uiso   1.00
C567   C     0.96683   0.85985   0.28169   0.00000  Uiso   1.00
H568   H     0.94144   0.88117   0.30714   0.00000  Uiso   1.00
C569   C     0.68295   0.85969   0.28192   0.00000  Uiso   1.00
H570   H     0.69467   0.88079   0.30756   0.00000  Uiso   1.00
N571   N     0.71598   0.83332   0.24999   0.00000  Uiso   1.00
C572   C     0.69906   0.80670   0.21746   0.00000  Uiso   1.00
C573   C     0.98263   0.80668   0.21898   0.00000  Uiso   1.00
H574   H     0.96926   0.78544   0.19483   0.00000  Uiso   1.00
N575   N     0.95069   0.83335   0.25000   0.00000  Uiso   1.00
C576   C     0.73020   0.77522   0.17945   0.00000  Uiso   1.00
C577   C     0.73081   0.78221   0.12255   0.00000  Uiso   1.00
C578   C     0.70679   0.74705   0.10026   0.00000  Uiso   1.00
H579   H     0.72611   0.71763   0.10091   0.00000  Uiso   1.00
H580   H     0.66780   0.74368   0.12275   0.00000  Uiso   1.00
H581   H     0.70891   0.75360   0.05932   0.00000  Uiso   1.00
H582   H     0.71278   0.81167   0.11884   0.00000  Uiso   1.00
H583   H     0.76921   0.78423   0.09774   0.00000  Uiso   1.00
H584   H     0.76811   0.77432   0.17944   0.00000  Uiso   1.00
H585   H     0.71567   0.74410   0.19208   0.00000  Uiso   1.00
O586   O     0.12708   0.22678   0.75000   0.00000  Uiso   1.00
O587   O     0.20627   0.22679   0.75001   0.00000  Uiso   1.00
C588   C     0.16677   0.24594   0.75005   0.00000  Uiso   1.00
O589   O     0.10775   0.16665   0.82549   0.00000  Uiso   1.00
O590   O     0.18694   0.16666   0.82549   0.00000  Uiso   1.00
C591   C     0.14060   0.16526   0.84995   0.00000  Uiso   1.00
Cu592  Cu    0.11978   0.16666   0.75000   0.00000  Uiso   1.00
Cu593  Cu    0.21355   0.16667   0.75000   0.00000  Uiso   1.00
O594   O     0.12706   0.10654   0.75000   0.00000  Uiso   1.00
O595   O     0.20625   0.10655   0.75000   0.00000  Uiso   1.00
O596   O     0.14640   0.16667   0.67451   0.00000  Uiso   1.00
O597   O     0.22559   0.16668   0.67451   0.00000  Uiso   1.00
C598   C     0.16659   0.08739   0.74987   0.00000  Uiso   1.00
C599   C     0.19281   0.16637   0.65015   0.00000  Uiso   1.00
C600   C     0.26069   0.13060   0.51504   0.00000  Uiso   1.00
H601   H     0.27775   0.13361   0.58728   0.00000  Uiso   1.00
H602   H     0.26518   0.10493   0.91959   0.00000  Uiso   1.00
H603   H     0.29415   0.11432   0.99540   0.00000  Uiso   1.00
C604   C     0.20797   0.16182   0.59358   0.00000  Uiso   1.00
C605   C     0.07965   0.18372   0.93320   0.00000  Uiso   1.00
C606   C     0.06722   0.19245   0.98613   0.00000  Uiso   1.00
C607   C     0.10051   0.18538   0.51351   0.00000  Uiso   1.00
C608   C     0.14643   0.16686   0.98889   0.00000  Uiso   1.00
C609   C     0.15699   0.15439   0.93584   0.00000  Uiso   1.00
C610   C     0.18193   0.15978   0.51527   0.00000  Uiso   1.00
C611   C     0.22559   0.13817   0.98940   0.00000  Uiso   1.00
C612   C     0.23301   0.12296   0.93892   0.00000  Uiso   1.00
C613   C     0.19883   0.13015   0.91294   0.00000  Uiso   1.00
C614   C     0.17511   0.17282   0.56697   0.00000  Uiso   1.00
C615   C     0.25171   0.14203   0.56713   0.00000  Uiso   1.00
C616   C     0.12507   0.16616   0.90717   0.00000  Uiso   1.00
H617   H     0.14351   0.19017   0.58853   0.00000  Uiso   1.00
H618   H     0.05428   0.19222   0.91227   0.00000  Uiso   1.00
H619   H     0.08863   0.19428   0.55402   0.00000  Uiso   1.00
H620   H     0.03218   0.20627   0.50576   0.00000  Uiso   1.00
H621   H     0.20522   0.11545   0.87511   0.00000  Uiso   1.00
C622   C     0.20938   0.31235   0.74910   0.00000  Uiso   1.00
H623   H     0.24270   0.29658   0.74852   0.00000  Uiso   1.00
C624   C     0.20929   0.02160   0.74898   0.00000  Uiso   1.00
H625   H     0.24262   0.03784   0.74829   0.00000  Uiso   1.00
C626   C     0.16661   0.04276   0.74976   0.00000  Uiso   1.00
C627   C     0.12407   0.02100   0.75053   0.00000  Uiso   1.00
H628   H     0.09073   0.03676   0.75119   0.00000  Uiso   1.00
C629   C     0.12417   0.31176   0.75061   0.00000  Uiso   1.00
H630   H     0.09084   0.29552   0.75128   0.00000  Uiso   1.00
C631   C     0.16681   0.29059   0.74994   0.00000  Uiso   1.00
C632   C     0.30016   0.19319   0.78169   0.00000  Uiso   1.00
H633   H     0.27477   0.21451   0.80714   0.00000  Uiso   1.00
C634   C     0.01628   0.19302   0.78192   0.00000  Uiso   1.00
H635   H     0.02800   0.21413   0.80756   0.00000  Uiso   1.00
N636   N     0.04931   0.16666   0.74999   0.00000  Uiso   1.00
C637   C     0.03240   0.14003   0.71746   0.00000  Uiso   1.00
C638   C     0.31597   0.14002   0.71898   0.00000  Uiso   1.00
H639   H     0.30260   0.11878   0.69483   0.00000  Uiso   1.00
N640   N     0.28402   0.16669   0.75000   0.00000  Uiso   1.00
C641   C     0.06353   0.10855   0.67945   0.00000  Uiso   1.00
C642   C     0.06415   0.11554   0.62255   0.00000  Uiso   1.00
C643   C     0.04013   0.08038   0.60026   0.00000  Uiso   1.00
H644   H     0.05944   0.05096   0.60091   0.00000  Uiso   1.00
H645   H     0.00113   0.07702   0.62275   0.00000  Uiso   1.00
H646   H     0.04224   0.08694   0.55932   0.00000  Uiso   1.00
H647   H     0.04611   0.14501   0.61884   0.00000  Uiso   1.00
H648   H     0.10255   0.11756   0.59774   0.00000  Uiso   1.00
H649   H     0.10144   0.10766   0.67944   0.00000  Uiso   1.00
H650   H     0.04901   0.07743   0.69208   0.00000  Uiso   1.00
O651   O     0.46042   0.22678   0.75000   0.00000  Uiso   1.00
O652   O     0.53961   0.22679   0.75001   0.00000  Uiso   1.00
C653   C     0.50010   0.24594   0.75005   0.00000  Uiso   1.00
O654   O     0.44108   0.16665   0.82549   0.00000  Uiso   1.00
O655   O     0.52027   0.16666   0.82549   0.00000  Uiso   1.00
C656   C     0.47393   0.16526   0.84995   0.00000  Uiso   1.00
Cu657  Cu    0.45311   0.16666   0.75000   0.00000  Uiso   1.00
Cu658  Cu    0.54689   0.16667   0.75000   0.00000  Uiso   1.00
O659   O     0.46039   0.10654   0.75000   0.00000  Uiso   1.00
O660   O     0.53958   0.10655   0.75000   0.00000  Uiso   1.00
O661   O     0.47973   0.16667   0.67451   0.00000  Uiso   1.00
O662   O     0.55892   0.16668   0.67451   0.00000  Uiso   1.00
C663   C     0.49993   0.08739   0.74987   0.00000  Uiso   1.00
C664   C     0.52615   0.16637   0.65015   0.00000  Uiso   1.00
C665   C     0.59402   0.13060   0.51504   0.00000  Uiso   1.00
H666   H     0.61109   0.13361   0.58728   0.00000  Uiso   1.00
H667   H     0.59851   0.10493   0.91959   0.00000  Uiso   1.00
H668   H     0.62749   0.11432   0.99540   0.00000  Uiso   1.00
C669   C     0.54131   0.16182   0.59358   0.00000  Uiso   1.00
C670   C     0.41298   0.18372   0.93320   0.00000  Uiso   1.00
C671   C     0.40056   0.19245   0.98613   0.00000  Uiso   1.00
C672   C     0.43384   0.18538   0.51351   0.00000  Uiso   1.00
C673   C     0.47976   0.16686   0.98889   0.00000  Uiso   1.00
C674   C     0.49033   0.15439   0.93584   0.00000  Uiso   1.00
C675   C     0.51527   0.15978   0.51527   0.00000  Uiso   1.00
C676   C     0.55892   0.13817   0.98940   0.00000  Uiso   1.00
C677   C     0.56635   0.12296   0.93892   0.00000  Uiso   1.00
C678   C     0.53216   0.13015   0.91294   0.00000  Uiso   1.00
C679   C     0.50845   0.17282   0.56697   0.00000  Uiso   1.00
C680   C     0.58504   0.14203   0.56713   0.00000  Uiso   1.00
C681   C     0.45840   0.16616   0.90717   0.00000  Uiso   1.00
H682   H     0.47684   0.19017   0.58853   0.00000  Uiso   1.00
H683   H     0.38762   0.19222   0.91227   0.00000  Uiso   1.00
H684   H     0.42196   0.19428   0.55402   0.00000  Uiso   1.00
H685   H     0.36551   0.20627   0.50576   0.00000  Uiso   1.00
H686   H     0.53855   0.11545   0.87511   0.00000  Uiso   1.00
C687   C     0.54271   0.31235   0.74910   0.00000  Uiso   1.00
H688   H     0.57604   0.29658   0.74852   0.00000  Uiso   1.00
C689   C     0.54262   0.02160   0.74898   0.00000  Uiso   1.00
H690   H     0.57595   0.03784   0.74829   0.00000  Uiso   1.00
C691   C     0.49994   0.04276   0.74976   0.00000  Uiso   1.00
C692   C     0.45740   0.02100   0.75053   0.00000  Uiso   1.00
H693   H     0.42406   0.03676   0.75119   0.00000  Uiso   1.00
C694   C     0.45750   0.31176   0.75061   0.00000  Uiso   1.00
H695   H     0.42418   0.29552   0.75128   0.00000  Uiso   1.00
C696   C     0.50015   0.29059   0.74994   0.00000  Uiso   1.00
C697   C     0.63349   0.19319   0.78169   0.00000  Uiso   1.00
H698   H     0.60810   0.21451   0.80714   0.00000  Uiso   1.00
C699   C     0.34961   0.19302   0.78192   0.00000  Uiso   1.00
H700   H     0.36134   0.21413   0.80756   0.00000  Uiso   1.00
N701   N     0.38265   0.16666   0.74999   0.00000  Uiso   1.00
C702   C     0.36573   0.14003   0.71746   0.00000  Uiso   1.00
C703   C     0.64930   0.14002   0.71898   0.00000  Uiso   1.00
H704   H     0.63593   0.11878   0.69483   0.00000  Uiso   1.00
N705   N     0.61735   0.16669   0.75000   0.00000  Uiso   1.00
C706   C     0.39686   0.10855   0.67945   0.00000  Uiso   1.00
C707   C     0.39748   0.11554   0.62255   0.00000  Uiso   1.00
C708   C     0.37346   0.08038   0.60026   0.00000  Uiso   1.00
H709   H     0.39277   0.05096   0.60091   0.00000  Uiso   1.00
H710   H     0.33446   0.07702   0.62275   0.00000  Uiso   1.00
H711   H     0.37557   0.08694   0.55932   0.00000  Uiso   1.00
H712   H     0.37944   0.14501   0.61884   0.00000  Uiso   1.00
H713   H     0.43588   0.11756   0.59774   0.00000  Uiso   1.00
H714   H     0.43478   0.10766   0.67944   0.00000  Uiso   1.00
H715   H     0.38234   0.07743   0.69208   0.00000  Uiso   1.00
O716   O     0.79375   0.22678   0.75000   0.00000  Uiso   1.00
O717   O     0.87294   0.22679   0.75001   0.00000  Uiso   1.00
C718   C     0.83343   0.24594   0.75005   0.00000  Uiso   1.00
O719   O     0.77441   0.16665   0.82549   0.00000  Uiso   1.00
O720   O     0.85360   0.16666   0.82549   0.00000  Uiso   1.00
C721   C     0.80727   0.16526   0.84995   0.00000  Uiso   1.00
Cu722  Cu    0.78645   0.16666   0.75000   0.00000  Uiso   1.00
Cu723  Cu    0.88022   0.16667   0.75000   0.00000  Uiso   1.00
O724   O     0.79373   0.10654   0.75000   0.00000  Uiso   1.00
O725   O     0.87292   0.10655   0.75000   0.00000  Uiso   1.00
O726   O     0.81306   0.16667   0.67451   0.00000  Uiso   1.00
O727   O     0.89225   0.16668   0.67451   0.00000  Uiso   1.00
C728   C     0.83326   0.08739   0.74987   0.00000  Uiso   1.00
C729   C     0.85948   0.16637   0.65015   0.00000  Uiso   1.00
C730   C     0.92736   0.13060   0.51504   0.00000  Uiso   1.00
H731   H     0.94442   0.13361   0.58728   0.00000  Uiso   1.00
H732   H     0.93184   0.10493   0.91959   0.00000  Uiso   1.00
H733   H     0.96082   0.11432   0.99540   0.00000  Uiso   1.00
C734   C     0.87464   0.16182   0.59358   0.00000  Uiso   1.00
C735   C     0.74631   0.18372   0.93320   0.00000  Uiso   1.00
C736   C     0.73389   0.19245   0.98613   0.00000  Uiso   1.00
C737   C     0.76718   0.18538   0.51351   0.00000  Uiso   1.00
C738   C     0.81310   0.16686   0.98889   0.00000  Uiso   1.00
C739   C     0.82366   0.15439   0.93584   0.00000  Uiso   1.00
C740   C     0.84860   0.15978   0.51527   0.00000  Uiso   1.00
C741   C     0.89226   0.13817   0.98940   0.00000  Uiso   1.00
C742   C     0.89968   0.12296   0.93892   0.00000  Uiso   1.00
C743   C     0.86550   0.13015   0.91294   0.00000  Uiso   1.00
C744   C     0.84178   0.17282   0.56697   0.00000  Uiso   1.00
C745   C     0.91838   0.14203   0.56713   0.00000  Uiso   1.00
C746   C     0.79173   0.16616   0.90717   0.00000  Uiso   1.00
H747   H     0.81017   0.19017   0.58853   0.00000  Uiso   1.00
H748   H     0.72095   0.19222   0.91227   0.00000  Uiso   1.00
H749   H     0.75529   0.19428   0.55402   0.00000  Uiso   1.00
H750   H     0.69884   0.20627   0.50576   0.00000  Uiso   1.00
H751   H     0.87188   0.11545   0.87511   0.00000  Uiso   1.00
C752   C     0.87604   0.31235   0.74910   0.00000  Uiso   1.00
H753   H     0.90937   0.29658   0.74852   0.00000  Uiso   1.00
C754   C     0.87596   0.02160   0.74898   0.00000  Uiso   1.00
H755   H     0.90928   0.03784   0.74829   0.00000  Uiso   1.00
C756   C     0.83328   0.04276   0.74976   0.00000  Uiso   1.00
C757   C     0.79074   0.02100   0.75053   0.00000  Uiso   1.00
H758   H     0.75739   0.03676   0.75119   0.00000  Uiso   1.00
C759   C     0.79083   0.31176   0.75061   0.00000  Uiso   1.00
H760   H     0.75751   0.29552   0.75128   0.00000  Uiso   1.00
C761   C     0.83348   0.29059   0.74994   0.00000  Uiso   1.00
C762   C     0.96683   0.19319   0.78169   0.00000  Uiso   1.00
H763   H     0.94144   0.21451   0.80714   0.00000  Uiso   1.00
C764   C     0.68295   0.19302   0.78192   0.00000  Uiso   1.00
H765   H     0.69467   0.21413   0.80756   0.00000  Uiso   1.00
N766   N     0.71598   0.16666   0.74999   0.00000  Uiso   1.00
C767   C     0.69906   0.14003   0.71746   0.00000  Uiso   1.00
C768   C     0.98263   0.14002   0.71898   0.00000  Uiso   1.00
H769   H     0.96926   0.11878   0.69483   0.00000  Uiso   1.00
N770   N     0.95069   0.16669   0.75000   0.00000  Uiso   1.00
C771   C     0.73020   0.10855   0.67945   0.00000  Uiso   1.00
C772   C     0.73081   0.11554   0.62255   0.00000  Uiso   1.00
C773   C     0.70679   0.08038   0.60026   0.00000  Uiso   1.00
H774   H     0.72611   0.05096   0.60091   0.00000  Uiso   1.00
H775   H     0.66780   0.07702   0.62275   0.00000  Uiso   1.00
H776   H     0.70891   0.08694   0.55932   0.00000  Uiso   1.00
H777   H     0.71278   0.14501   0.61884   0.00000  Uiso   1.00
H778   H     0.76921   0.11756   0.59774   0.00000  Uiso   1.00
H779   H     0.76811   0.10766   0.67944   0.00000  Uiso   1.00
H780   H     0.71567   0.07743   0.69208   0.00000  Uiso   1.00
O781   O     0.12708   0.56011   0.75000   0.00000  Uiso   1.00
O782   O     0.20627   0.56012   0.75001   0.00000  Uiso   1.00
C783   C     0.16677   0.57928   0.75005   0.00000  Uiso   1.00
O784   O     0.10775   0.49998   0.82549   0.00000  Uiso   1.00
O785   O     0.18694   0.49999   0.82549   0.00000  Uiso   1.00
C786   C     0.14060   0.49859   0.84995   0.00000  Uiso   1.00
Cu787  Cu    0.11978   0.49999   0.75000   0.00000  Uiso   1.00
Cu788  Cu    0.21355   0.50001   0.75000   0.00000  Uiso   1.00
O789   O     0.12706   0.43988   0.75000   0.00000  Uiso   1.00
O790   O     0.20625   0.43989   0.75000   0.00000  Uiso   1.00
O791   O     0.14640   0.50001   0.67451   0.00000  Uiso   1.00
O792   O     0.22559   0.50002   0.67451   0.00000  Uiso   1.00
C793   C     0.16659   0.42073   0.74987   0.00000  Uiso   1.00
C794   C     0.19281   0.49970   0.65015   0.00000  Uiso   1.00
C795   C     0.26069   0.46393   0.51504   0.00000  Uiso   1.00
H796   H     0.27775   0.46695   0.58728   0.00000  Uiso   1.00
H797   H     0.26518   0.43826   0.91959   0.00000  Uiso   1.00
H798   H     0.29415   0.44765   0.99540   0.00000  Uiso   1.00
C799   C     0.20797   0.49516   0.59358   0.00000  Uiso   1.00
C800   C     0.07965   0.51705   0.93320   0.00000  Uiso   1.00
C801   C     0.06722   0.52578   0.98613   0.00000  Uiso   1.00
C802   C     0.10051   0.51871   0.51351   0.00000  Uiso   1.00
C803   C     0.14643   0.50020   0.98889   0.00000  Uiso   1.00
C804   C     0.15699   0.48773   0.93584   0.00000  Uiso   1.00
C805   C     0.18193   0.49312   0.51527   0.00000  Uiso   1.00
C806   C     0.22559   0.47150   0.98940   0.00000  Uiso   1.00
C807   C     0.23301   0.45630   0.93892   0.00000  Uiso   1.00
C808   C     0.19883   0.46349   0.91294   0.00000  Uiso   1.00
C809   C     0.17511   0.50615   0.56697   0.00000  Uiso   1.00
C810   C     0.25171   0.47536   0.56713   0.00000  Uiso   1.00
C811   C     0.12507   0.49949   0.90717   0.00000  Uiso   1.00
H812   H     0.14351   0.52350   0.58853   0.00000  Uiso   1.00
H813   H     0.05428   0.52555   0.91227   0.00000  Uiso   1.00
H814   H     0.08863   0.52761   0.55402   0.00000  Uiso   1.00
H815   H     0.03218   0.53960   0.50576   0.00000  Uiso   1.00
H816   H     0.20522   0.44878   0.87511   0.00000  Uiso   1.00
C817   C     0.20938   0.64568   0.74910   0.00000  Uiso   1.00
H818   H     0.24270   0.62991   0.74852   0.00000  Uiso   1.00
C819   C     0.20929   0.35493   0.74898   0.00000  Uiso   1.00
H820   H     0.24262   0.37117   0.74829   0.00000  Uiso   1.00
C821   C     0.16661   0.37610   0.74976   0.00000  Uiso   1.00
C822   C     0.12407   0.35433   0.75053   0.00000  Uiso   1.00
H823   H     0.09073   0.37010   0.75119   0.00000  Uiso   1.00
C824   C     0.12417   0.64509   0.75061   0.00000  Uiso   1.00
H825   H     0.09084   0.62885   0.75128   0.00000  Uiso   1.00
C826   C     0.16681   0.62392   0.74994   0.00000  Uiso   1.00
C827   C     0.30016   0.52652   0.78169   0.00000  Uiso   1.00
H828   H     0.27477   0.54784   0.80714   0.00000  Uiso   1.00
C829   C     0.01628   0.52635   0.78192   0.00000  Uiso   1.00
H830   H     0.02800   0.54746   0.80756   0.00000  Uiso   1.00
N831   N     0.04931   0.49999   0.74999   0.00000  Uiso   1.00
C832   C     0.03240   0.47336   0.71746   0.00000  Uiso   1.00
C833   C     0.31597   0.47335   0.71898   0.00000  Uiso   1.00
H834   H     0.30260   0.45211   0.69483   0.00000  Uiso   1.00
N835   N     0.28402   0.50002   0.75000   0.00000  Uiso   1.00
C836   C     0.06353   0.44189   0.67945   0.00000  Uiso   1.00
C837   C     0.06415   0.44887   0.62255   0.00000  Uiso   1.00
C838   C     0.04013   0.41372   0.60026   0.00000  Uiso   1.00
H839   H     0.05944   0.38429   0.60091   0.00000  Uiso   1.00
H840   H     0.00113   0.41035   0.62275   0.00000  Uiso   1.00
H841   H     0.04224   0.42027   0.55932   0.00000  Uiso   1.00
H842   H     0.04611   0.47834   0.61884   0.00000  Uiso   1.00
H843   H     0.10255   0.45089   0.59774   0.00000  Uiso   1.00
H844   H     0.10144   0.44099   0.67944   0.00000  Uiso   1.00
H845   H     0.04901   0.41076   0.69208   0.00000  Uiso   1.00
O846   O     0.46042   0.56011   0.75000   0.00000  Uiso   1.00
O847   O     0.53961   0.56012   0.75001   0.00000  Uiso   1.00
C848   C     0.50010   0.57928   0.75005   0.00000  Uiso   1.00
O849   O     0.44108   0.49998   0.82549   0.00000  Uiso   1.00
O850   O     0.52027   0.49999   0.82549   0.00000  Uiso   1.00
C851   C     0.47393   0.49859   0.84995   0.00000  Uiso   1.00
Cu852  Cu    0.45311   0.49999   0.75000   0.00000  Uiso   1.00
Cu853  Cu    0.54689   0.50001   0.75000   0.00000  Uiso   1.00
O854   O     0.46039   0.43988   0.75000   0.00000  Uiso   1.00
O855   O     0.53958   0.43989   0.75000   0.00000  Uiso   1.00
O856   O     0.47973   0.50001   0.67451   0.00000  Uiso   1.00
O857   O     0.55892   0.50002   0.67451   0.00000  Uiso   1.00
C858   C     0.49993   0.42073   0.74987   0.00000  Uiso   1.00
C859   C     0.52615   0.49970   0.65015   0.00000  Uiso   1.00
C860   C     0.59402   0.46393   0.51504   0.00000  Uiso   1.00
H861   H     0.61109   0.46695   0.58728   0.00000  Uiso   1.00
H862   H     0.59851   0.43826   0.91959   0.00000  Uiso   1.00
H863   H     0.62749   0.44765   0.99540   0.00000  Uiso   1.00
C864   C     0.54131   0.49516   0.59358   0.00000  Uiso   1.00
C865   C     0.41298   0.51705   0.93320   0.00000  Uiso   1.00
C866   C     0.40056   0.52578   0.98613   0.00000  Uiso   1.00
C867   C     0.43384   0.51871   0.51351   0.00000  Uiso   1.00
C868   C     0.47976   0.50020   0.98889   0.00000  Uiso   1.00
C869   C     0.49033   0.48773   0.93584   0.00000  Uiso   1.00
C870   C     0.51527   0.49312   0.51527   0.00000  Uiso   1.00
C871   C     0.55892   0.47150   0.98940   0.00000  Uiso   1.00
C872   C     0.56635   0.45630   0.93892   0.00000  Uiso   1.00
C873   C     0.53216   0.46349   0.91294   0.00000  Uiso   1.00
C874   C     0.50845   0.50615   0.56697   0.00000  Uiso   1.00
C875   C     0.58504   0.47536   0.56713   0.00000  Uiso   1.00
C876   C     0.45840   0.49949   0.90717   0.00000  Uiso   1.00
H877   H     0.47684   0.52350   0.58853   0.00000  Uiso   1.00
H878   H     0.38762   0.52555   0.91227   0.00000  Uiso   1.00
H879   H     0.42196   0.52761   0.55402   0.00000  Uiso   1.00
H880   H     0.36551   0.53960   0.50576   0.00000  Uiso   1.00
H881   H     0.53855   0.44878   0.87511   0.00000  Uiso   1.00
C882   C     0.54271   0.64568   0.74910   0.00000  Uiso   1.00
H883   H     0.57604   0.62991   0.74852   0.00000  Uiso   1.00
C884   C     0.54262   0.35493   0.74898   0.00000  Uiso   1.00
H885   H     0.57595   0.37117   0.74829   0.00000  Uiso   1.00
C886   C     0.49994   0.37610   0.74976   0.00000  Uiso   1.00
C887   C     0.45740   0.35433   0.75053   0.00000  Uiso   1.00
H888   H     0.42406   0.37010   0.75119   0.00000  Uiso   1.00
C889   C     0.45750   0.64509   0.75061   0.00000  Uiso   1.00
H890   H     0.42418   0.62885   0.75128   0.00000  Uiso   1.00
C891   C     0.50015   0.62392   0.74994   0.00000  Uiso   1.00
C892   C     0.63349   0.52652   0.78169   0.00000  Uiso   1.00
H893   H     0.60810   0.54784   0.80714   0.00000  Uiso   1.00
C894   C     0.34961   0.52635   0.78192   0.00000  Uiso   1.00
H895   H     0.36134   0.54746   0.80756   0.00000  Uiso   1.00
N896   N     0.38265   0.49999   0.74999   0.00000  Uiso   1.00
C897   C     0.36573   0.47336   0.71746   0.00000  Uiso   1.00
C898   C     0.64930   0.47335   0.71898   0.00000  Uiso   1.00
H899   H     0.63593   0.45211   0.69483   0.00000  Uiso   1.00
N900   N     0.61735   0.50002   0.75000   0.00000  Uiso   1.00
C901   C     0.39686   0.44189   0.67945   0.00000  Uiso   1.00
C902   C     0.39748   0.44887   0.62255   0.00000  Uiso   1.00
C903   C     0.37346   0.41372   0.60026   0.00000  Uiso   1.00
H904   H     0.39277   0.38429   0.60091   0.00000  Uiso   1.00
H905   H     0.33446   0.41035   0.62275   0.00000  Uiso   1.00
H906   H     0.37557   0.42027   0.55932   0.00000  Uiso   1.00
H907   H     0.37944   0.47834   0.61884   0.00000  Uiso   1.00
H908   H     0.43588   0.45089   0.59774   0.00000  Uiso   1.00
H909   H     0.43478   0.44099   0.67944   0.00000  Uiso   1.00
H910   H     0.38234   0.41076   0.69208   0.00000  Uiso   1.00
O911   O     0.79375   0.56011   0.75000   0.00000  Uiso   1.00
O912   O     0.87294   0.56012   0.75001   0.00000  Uiso   1.00
C913   C     0.83343   0.57928   0.75005   0.00000  Uiso   1.00
O914   O     0.77441   0.49998   0.82549   0.00000  Uiso   1.00
O915   O     0.85360   0.49999   0.82549   0.00000  Uiso   1.00
C916   C     0.80727   0.49859   0.84995   0.00000  Uiso   1.00
Cu917  Cu    0.78645   0.49999   0.75000   0.00000  Uiso   1.00
Cu918  Cu    0.88022   0.50001   0.75000   0.00000  Uiso   1.00
O919   O     0.79373   0.43988   0.75000   0.00000  Uiso   1.00
O920   O     0.87292   0.43989   0.75000   0.00000  Uiso   1.00
O921   O     0.81306   0.50001   0.67451   0.00000  Uiso   1.00
O922   O     0.89225   0.50002   0.67451   0.00000  Uiso   1.00
C923   C     0.83326   0.42073   0.74987   0.00000  Uiso   1.00
C924   C     0.85948   0.49970   0.65015   0.00000  Uiso   1.00
C925   C     0.92736   0.46393   0.51504   0.00000  Uiso   1.00
H926   H     0.94442   0.46695   0.58728   0.00000  Uiso   1.00
H927   H     0.93184   0.43826   0.91959   0.00000  Uiso   1.00
H928   H     0.96082   0.44765   0.99540   0.00000  Uiso   1.00
C929   C     0.87464   0.49516   0.59358   0.00000  Uiso   1.00
C930   C     0.74631   0.51705   0.93320   0.00000  Uiso   1.00
C931   C     0.73389   0.52578   0.98613   0.00000  Uiso   1.00
C932   C     0.76718   0.51871   0.51351   0.00000  Uiso   1.00
C933   C     0.81310   0.50020   0.98889   0.00000  Uiso   1.00
C934   C     0.82366   0.48773   0.93584   0.00000  Uiso   1.00
C935   C     0.84860   0.49312   0.51527   0.00000  Uiso   1.00
C936   C     0.89226   0.47150   0.98940   0.00000  Uiso   1.00
C937   C     0.89968   0.45630   0.93892   0.00000  Uiso   1.00
C938   C     0.86550   0.46349   0.91294   0.00000  Uiso   1.00
C939   C     0.84178   0.50615   0.56697   0.00000  Uiso   1.00
C940   C     0.91838   0.47536   0.56713   0.00000  Uiso   1.00
C941   C     0.79173   0.49949   0.90717   0.00000  Uiso   1.00
H942   H     0.81017   0.52350   0.58853   0.00000  Uiso   1.00
H943   H     0.72095   0.52555   0.91227   0.00000  Uiso   1.00
H944   H     0.75529   0.52761   0.55402   0.00000  Uiso   1.00
H945   H     0.69884   0.53960   0.50576   0.00000  Uiso   1.00
H946   H     0.87188   0.44878   0.87511   0.00000  Uiso   1.00
C947   C     0.87604   0.64568   0.74910   0.00000  Uiso   1.00
H948   H     0.90937   0.62991   0.74852   0.00000  Uiso   1.00
C949   C     0.87596   0.35493   0.74898   0.00000  Uiso   1.00
H950   H     0.90928   0.37117   0.74829   0.00000  Uiso   1.00
C951   C     0.83328   0.37610   0.74976   0.00000  Uiso   1.00
C952   C     0.79074   0.35433   0.75053   0.00000  Uiso   1.00
H953   H     0.75739   0.37010   0.75119   0.00000  Uiso   1.00
C954   C     0.79083   0.64509   0.75061   0.00000  Uiso   1.00
H955   H     0.75751   0.62885   0.75128   0.00000  Uiso   1.00
C956   C     0.83348   0.62392   0.74994   0.00000  Uiso   1.00
C957   C     0.96683   0.52652   0.78169   0.00000  Uiso   1.00
H958   H     0.94144   0.54784   0.80714   0.00000  Uiso   1.00
C959   C     0.68295   0.52635   0.78192   0.00000  Uiso   1.00
H960   H     0.69467   0.54746   0.80756   0.00000  Uiso   1.00
N961   N     0.71598   0.49999   0.74999   0.00000  Uiso   1.00
C962   C     0.69906   0.47336   0.71746   0.00000  Uiso   1.00
C963   C     0.98263   0.47335   0.71898   0.00000  Uiso   1.00
H964   H     0.96926   0.45211   0.69483   0.00000  Uiso   1.00
N965   N     0.95069   0.50002   0.75000   0.00000  Uiso   1.00
C966   C     0.73020   0.44189   0.67945   0.00000  Uiso   1.00
C967   C     0.73081   0.44887   0.62255   0.00000  Uiso   1.00
C968   C     0.70679   0.41372   0.60026   0.00000  Uiso   1.00
H969   H     0.72611   0.38429   0.60091   0.00000  Uiso   1.00
H970   H     0.66780   0.41035   0.62275   0.00000  Uiso   1.00
H971   H     0.70891   0.42027   0.55932   0.00000  Uiso   1.00
H972   H     0.71278   0.47834   0.61884   0.00000  Uiso   1.00
H973   H     0.76921   0.45089   0.59774   0.00000  Uiso   1.00
H974   H     0.76811   0.44099   0.67944   0.00000  Uiso   1.00
H975   H     0.71567   0.41076   0.69208   0.00000  Uiso   1.00
O976   O     0.12708   0.89345   0.75000   0.00000  Uiso   1.00
O977   O     0.20627   0.89346   0.75001   0.00000  Uiso   1.00
C978   C     0.16677   0.91261   0.75005   0.00000  Uiso   1.00
O979   O     0.10775   0.83332   0.82549   0.00000  Uiso   1.00
O980   O     0.18694   0.83333   0.82549   0.00000  Uiso   1.00
C981   C     0.14060   0.83193   0.84995   0.00000  Uiso   1.00
Cu982  Cu    0.11978   0.83333   0.75000   0.00000  Uiso   1.00
Cu983  Cu    0.21355   0.83334   0.75000   0.00000  Uiso   1.00
O984   O     0.12706   0.77321   0.75000   0.00000  Uiso   1.00
O985   O     0.20625   0.77322   0.75000   0.00000  Uiso   1.00
O986   O     0.14640   0.83334   0.67451   0.00000  Uiso   1.00
O987   O     0.22559   0.83335   0.67451   0.00000  Uiso   1.00
C988   C     0.16659   0.75406   0.74987   0.00000  Uiso   1.00
C989   C     0.19281   0.83304   0.65015   0.00000  Uiso   1.00
C990   C     0.26069   0.79727   0.51504   0.00000  Uiso   1.00
H991   H     0.27775   0.80028   0.58728   0.00000  Uiso   1.00
H992   H     0.26518   0.77159   0.91959   0.00000  Uiso   1.00
H993   H     0.29415   0.78098   0.99540   0.00000  Uiso   1.00
C994   C     0.20797   0.82849   0.59358   0.00000  Uiso   1.00
C995   C     0.07965   0.85038   0.93320   0.00000  Uiso   1.00
C996   C     0.06722   0.85912   0.98613   0.00000  Uiso   1.00
C997   C     0.10051   0.85204   0.51351   0.00000  Uiso   1.00
C998   C     0.14643   0.83353   0.98889   0.00000  Uiso   1.00
C999   C     0.15699   0.82106   0.93584   0.00000  Uiso   1.00
C1000  C     0.18193   0.82645   0.51527   0.00000  Uiso   1.00
C1001  C     0.22559   0.80484   0.98940   0.00000  Uiso   1.00
C1002  C     0.23301   0.78963   0.93892   0.00000  Uiso   1.00
C1003  C     0.19883   0.79682   0.91294   0.00000  Uiso   1.00
C1004  C     0.17511   0.83948   0.56697   0.00000  Uiso   1.00
C1005  C     0.25171   0.80870   0.56713   0.00000  Uiso   1.00
C1006  C     0.12507   0.83282   0.90717   0.00000  Uiso   1.00
H1007  H     0.14351   0.85684   0.58853   0.00000  Uiso   1.00
H1008  H     0.05428   0.85889   0.91227   0.00000  Uiso   1.00
H1009  H     0.08863   0.86095   0.55402   0.00000  Uiso   1.00
H1010  H     0.03218   0.87293   0.50576   0.00000  Uiso   1.00
H1011  H     0.20522   0.78211   0.87511   0.00000  Uiso   1.00
C1012  C     0.20938   0.97902   0.74910   0.00000  Uiso   1.00
H1013  H     0.24270   0.96325   0.74852   0.00000  Uiso   1.00
C1014  C     0.20929   0.68826   0.74898   0.00000  Uiso   1.00
H1015  H     0.24262   0.70451   0.74829   0.00000  Uiso   1.00
C1016  C     0.16661   0.70943   0.74976   0.00000  Uiso   1.00
C1017  C     0.12407   0.68767   0.75053   0.00000  Uiso   1.00
H1018  H     0.09073   0.70343   0.75119   0.00000  Uiso   1.00
C1019  C     0.12417   0.97842   0.75061   0.00000  Uiso   1.00
H1020  H     0.09084   0.96219   0.75128   0.00000  Uiso   1.00
C1021  C     0.16681   0.95725   0.74994   0.00000  Uiso   1.00
C1022  C     0.30016   0.85985   0.78169   0.00000  Uiso   1.00
H1023  H     0.27477   0.88117   0.80714   0.00000  Uiso   1.00
C1024  C     0.01628   0.85969   0.78192   0.00000  Uiso   1.00
H1025  H     0.02800   0.88079   0.80756   0.00000  Uiso   1.00
N1026  N     0.04931   0.83332   0.74999   0.00000  Uiso   1.00
C1027  C     0.03240   0.80670   0.71746   0.00000  Uiso   1.00
C1028  C     0.31597   0.80668   0.71898   0.00000  Uiso   1.00
H1029  H     0.30260   0.78544   0.69483   0.00000  Uiso   1.00
N1030  N     0.28402   0.83335   0.75000   0.00000  Uiso   1.00
C1031  C     0.06353   0.77522   0.67945   0.00000  Uiso   1.00
C1032  C     0.06415   0.78221   0.62255   0.00000  Uiso   1.00
C1033  C     0.04013   0.74705   0.60026   0.00000  Uiso   1.00
H1034  H     0.05944   0.71763   0.60091   0.00000  Uiso   1.00
H1035  H     0.00113   0.74368   0.62275   0.00000  Uiso   1.00
H1036  H     0.04224   0.75360   0.55932   0.00000  Uiso   1.00
H1037  H     0.04611   0.81167   0.61884   0.00000  Uiso   1.00
H1038  H     0.10255   0.78423   0.59774   0.00000  Uiso   1.00
H1039  H     0.10144   0.77432   0.67944   0.00000  Uiso   1.00
H1040  H     0.04901   0.74410   0.69208   0.00000  Uiso   1.00
O1041  O     0.46042   0.89345   0.75000   0.00000  Uiso   1.00
O1042  O     0.53961   0.89346   0.75001   0.00000  Uiso   1.00
C1043  C     0.50010   0.91261   0.75005   0.00000  Uiso   1.00
O1044  O     0.44108   0.83332   0.82549   0.00000  Uiso   1.00
O1045  O     0.52027   0.83333   0.82549   0.00000  Uiso   1.00
C1046  C     0.47393   0.83193   0.84995   0.00000  Uiso   1.00
Cu1047 Cu    0.45311   0.83333   0.75000   0.00000  Uiso   1.00
Cu1048 Cu    0.54689   0.83334   0.75000   0.00000  Uiso   1.00
O1049  O     0.46039   0.77321   0.75000   0.00000  Uiso   1.00
O1050  O     0.53958   0.77322   0.75000   0.00000  Uiso   1.00
O1051  O     0.47973   0.83334   0.67451   0.00000  Uiso   1.00
O1052  O     0.55892   0.83335   0.67451   0.00000  Uiso   1.00
C1053  C     0.49993   0.75406   0.74987   0.00000  Uiso   1.00
C1054  C     0.52615   0.83304   0.65015   0.00000  Uiso   1.00
C1055  C     0.59402   0.79727   0.51504   0.00000  Uiso   1.00
H1056  H     0.61109   0.80028   0.58728   0.00000  Uiso   1.00
H1057  H     0.59851   0.77159   0.91959   0.00000  Uiso   1.00
H1058  H     0.62749   0.78098   0.99540   0.00000  Uiso   1.00
C1059  C     0.54131   0.82849   0.59358   0.00000  Uiso   1.00
C1060  C     0.41298   0.85038   0.93320   0.00000  Uiso   1.00
C1061  C     0.40056   0.85912   0.98613   0.00000  Uiso   1.00
C1062  C     0.43384   0.85204   0.51351   0.00000  Uiso   1.00
C1063  C     0.47976   0.83353   0.98889   0.00000  Uiso   1.00
C1064  C     0.49033   0.82106   0.93584   0.00000  Uiso   1.00
C1065  C     0.51527   0.82645   0.51527   0.00000  Uiso   1.00
C1066  C     0.55892   0.80484   0.98940   0.00000  Uiso   1.00
C1067  C     0.56635   0.78963   0.93892   0.00000  Uiso   1.00
C1068  C     0.53216   0.79682   0.91294   0.00000  Uiso   1.00
C1069  C     0.50845   0.83948   0.56697   0.00000  Uiso   1.00
C1070  C     0.58504   0.80870   0.56713   0.00000  Uiso   1.00
C1071  C     0.45840   0.83282   0.90717   0.00000  Uiso   1.00
H1072  H     0.47684   0.85684   0.58853   0.00000  Uiso   1.00
H1073  H     0.38762   0.85889   0.91227   0.00000  Uiso   1.00
H1074  H     0.42196   0.86095   0.55402   0.00000  Uiso   1.00
H1075  H     0.36551   0.87293   0.50576   0.00000  Uiso   1.00
H1076  H     0.53855   0.78211   0.87511   0.00000  Uiso   1.00
C1077  C     0.54271   0.97902   0.74910   0.00000  Uiso   1.00
H1078  H     0.57604   0.96325   0.74852   0.00000  Uiso   1.00
C1079  C     0.54262   0.68826   0.74898   0.00000  Uiso   1.00
H1080  H     0.57595   0.70451   0.74829   0.00000  Uiso   1.00
C1081  C     0.49994   0.70943   0.74976   0.00000  Uiso   1.00
C1082  C     0.45740   0.68767   0.75053   0.00000  Uiso   1.00
H1083  H     0.42406   0.70343   0.75119   0.00000  Uiso   1.00
C1084  C     0.45750   0.97842   0.75061   0.00000  Uiso   1.00
H1085  H     0.42418   0.96219   0.75128   0.00000  Uiso   1.00
C1086  C     0.50015   0.95725   0.74994   0.00000  Uiso   1.00
C1087  C     0.63349   0.85985   0.78169   0.00000  Uiso   1.00
H1088  H     0.60810   0.88117   0.80714   0.00000  Uiso   1.00
C1089  C     0.34961   0.85969   0.78192   0.00000  Uiso   1.00
H1090  H     0.36134   0.88079   0.80756   0.00000  Uiso   1.00
N1091  N     0.38265   0.83332   0.74999   0.00000  Uiso   1.00
C1092  C     0.36573   0.80670   0.71746   0.00000  Uiso   1.00
C1093  C     0.64930   0.80668   0.71898   0.00000  Uiso   1.00
H1094  H     0.63593   0.78544   0.69483   0.00000  Uiso   1.00
N1095  N     0.61735   0.83335   0.75000   0.00000  Uiso   1.00
C1096  C     0.39686   0.77522   0.67945   0.00000  Uiso   1.00
C1097  C     0.39748   0.78221   0.62255   0.00000  Uiso   1.00
C1098  C     0.37346   0.74705   0.60026   0.00000  Uiso   1.00
H1099  H     0.39277   0.71763   0.60091   0.00000  Uiso   1.00
H1100  H     0.33446   0.74368   0.62275   0.00000  Uiso   1.00
H1101  H     0.37557   0.75360   0.55932   0.00000  Uiso   1.00
H1102  H     0.37944   0.81167   0.61884   0.00000  Uiso   1.00
H1103  H     0.43588   0.78423   0.59774   0.00000  Uiso   1.00
H1104  H     0.43478   0.77432   0.67944   0.00000  Uiso   1.00
H1105  H     0.38234   0.74410   0.69208   0.00000  Uiso   1.00
O1106  O     0.79375   0.89345   0.75000   0.00000  Uiso   1.00
O1107  O     0.87294   0.89346   0.75001   0.00000  Uiso   1.00
C1108  C     0.83343   0.91261   0.75005   0.00000  Uiso   1.00
O1109  O     0.77441   0.83332   0.82549   0.00000  Uiso   1.00
O1110  O     0.85360   0.83333   0.82549   0.00000  Uiso   1.00
C1111  C     0.80727   0.83193   0.84995   0.00000  Uiso   1.00
Cu1112 Cu    0.78645   0.83333   0.75000   0.00000  Uiso   1.00
Cu1113 Cu    0.88022   0.83334   0.75000   0.00000  Uiso   1.00
O1114  O     0.79373   0.77321   0.75000   0.00000  Uiso   1.00
O1115  O     0.87292   0.77322   0.75000   0.00000  Uiso   1.00
O1116  O     0.81306   0.83334   0.67451   0.00000  Uiso   1.00
O1117  O     0.89225   0.83335   0.67451   0.00000  Uiso   1.00
C1118  C     0.83326   0.75406   0.74987   0.00000  Uiso   1.00
C1119  C     0.85948   0.83304   0.65015   0.00000  Uiso   1.00
C1120  C     0.92736   0.79727   0.51504   0.00000  Uiso   1.00
H1121  H     0.94442   0.80028   0.58728   0.00000  Uiso   1.00
H1122  H     0.93184   0.77159   0.91959   0.00000  Uiso   1.00
H1123  H     0.96082   0.78098   0.99540   0.00000  Uiso   1.00
C1124  C     0.87464   0.82849   0.59358   0.00000  Uiso   1.00
C1125  C     0.74631   0.85038   0.93320   0.00000  Uiso   1.00
C1126  C     0.73389   0.85912   0.98613   0.00000  Uiso   1.00
C1127  C     0.76718   0.85204   0.51351   0.00000  Uiso   1.00
C1128  C     0.81310   0.83353   0.98889   0.00000  Uiso   1.00
C1129  C     0.82366   0.82106   0.93584   0.00000  Uiso   1.00
C1130  C     0.84860   0.82645   0.51527   0.00000  Uiso   1.00
C1131  C     0.89226   0.80484   0.98940   0.00000  Uiso   1.00
C1132  C     0.89968   0.78963   0.93892   0.00000  Uiso   1.00
C1133  C     0.86550   0.79682   0.91294   0.00000  Uiso   1.00
C1134  C     0.84178   0.83948   0.56697   0.00000  Uiso   1.00
C1135  C     0.91838   0.80870   0.56713   0.00000  Uiso   1.00
C1136  C     0.79173   0.83282   0.90717   0.00000  Uiso   1.00
H1137  H     0.81017   0.85684   0.58853   0.00000  Uiso   1.00
H1138  H     0.72095   0.85889   0.91227   0.00000  Uiso   1.00
H1139  H     0.75529   0.86095   0.55402   0.00000  Uiso   1.00
H1140  H     0.69884   0.87293   0.50576   0.00000  Uiso   1.00
H1141  H     0.87188   0.78211   0.87511   0.00000  Uiso   1.00
C1142  C     0.87604   0.97902   0.74910   0.00000  Uiso   1.00
H1143  H     0.90937   0.96325   0.74852   0.00000  Uiso   1.00
C1144  C     0.87596   0.68826   0.74898   0.00000  Uiso   1.00
H1145  H     0.90928   0.70451   0.74829   0.00000  Uiso   1.00
C1146  C     0.83328   0.70943   0.74976   0.00000  Uiso   1.00
C1147  C     0.79074   0.68767   0.75053   0.00000  Uiso   1.00
H1148  H     0.75739   0.70343   0.75119   0.00000  Uiso   1.00
C1149  C     0.79083   0.97842   0.75061   0.00000  Uiso   1.00
H1150  H     0.75751   0.96219   0.75128   0.00000  Uiso   1.00
C1151  C     0.83348   0.95725   0.74994   0.00000  Uiso   1.00
C1152  C     0.96683   0.85985   0.78169   0.00000  Uiso   1.00
H1153  H     0.94144   0.88117   0.80714   0.00000  Uiso   1.00
C1154  C     0.68295   0.85969   0.78192   0.00000  Uiso   1.00
H1155  H     0.69467   0.88079   0.80756   0.00000  Uiso   1.00
N1156  N     0.71598   0.83332   0.74999   0.00000  Uiso   1.00
C1157  C     0.69906   0.80670   0.71746   0.00000  Uiso   1.00
C1158  C     0.98263   0.80668   0.71898   0.00000  Uiso   1.00
H1159  H     0.96926   0.78544   0.69483   0.00000  Uiso   1.00
N1160  N     0.95069   0.83335   0.75000   0.00000  Uiso   1.00
C1161  C     0.73020   0.77522   0.67945   0.00000  Uiso   1.00
C1162  C     0.73081   0.78221   0.62255   0.00000  Uiso   1.00
C1163  C     0.70679   0.74705   0.60026   0.00000  Uiso   1.00
H1164  H     0.72611   0.71763   0.60091   0.00000  Uiso   1.00
H1165  H     0.66780   0.74368   0.62275   0.00000  Uiso   1.00
H1166  H     0.70891   0.75360   0.55932   0.00000  Uiso   1.00
H1167  H     0.71278   0.81167   0.61884   0.00000  Uiso   1.00
H1168  H     0.76921   0.78423   0.59774   0.00000  Uiso   1.00
H1169  H     0.76811   0.77432   0.67944   0.00000  Uiso   1.00
H1170  H     0.71567   0.74410   0.69208   0.00000  Uiso   1.00
loop_
_geom_bond_atom_site_label_1
_geom_bond_atom_site_label_2
_geom_bond_distance
_geom_bond_site_symmetry_2
_ccdc_geom_bond_type
O1     Cu7     1.963   .     S
O1     C3      1.293   .     A
O2     C3      1.296   .     A
O2     Cu8     1.966   .     S
C3     C46     1.451   .     S
O4     Cu7     1.958   .     S
O4     C6      1.300   .     A
O5     Cu8     1.949   .     S
O5     C6      1.298   .     A
C6     C31     1.471   .     S
Cu7    N51     2.020   .     S
Cu7    O11     1.949   .     S
Cu7    Cu8     2.688   .     S
Cu7    O9      1.966   .     S
Cu8    O12     1.958   .     S
Cu8    N55     2.020   .     S
Cu8    O10     1.963   .     S
O9     C13     1.296   .     A
O10    C13     1.293   .     A
O11    C14     1.299   .     A
O12    C14     1.294   .     A
C13    C41     1.450   .     S
C14    C19     1.459   .     S
C15    C30     1.391   .     A
C15    H603    1.084   1_554 S
C15    C611    1.403   1_554 S
H16    C30     1.083   .     S
H17    C27     1.084   .     S
H18    C600    1.084   .     S
C19    C30     1.399   .     A
C19    C29     1.393   .     A
C20    C21     1.386   .     A
C20    H33     1.083   .     S
C20    C31     1.402   .     A
C21    C607    1.390   .     S
C21    H620    1.083   .     S
C22    H34     1.075   .     S
C22    C606    1.390   1_554 S
C22    C608    1.419   1_554 S
C23    C24     1.419   .     A
C23    C607    1.419   .     S
C23    C610    1.424   .     S
C24    C31     1.419   .     A
C24    C28     1.412   .     A
C25    C29     1.403   .     A
C25    C608    1.424   1_554 S
C25    C611    1.422   1_554 S
C26    C27     1.391   .     A
C26    C600    1.403   .     S
C26    C610    1.422   .     S
C27    C28     1.385   .     A
C28    H36     1.080   .     S
C29    H32     1.076   .     S
H35    C606    1.083   1_554 S
C37    H38     1.083   .     S
C37    C46     1.400   .     A
C37    C234    1.384   .     S
C39    C41     1.402   .     A
C39    H40     1.083   .     S
C39    C427    1.384   1_545 S
C41    C42     1.400   .     A
C42    H43     1.083   .     S
C42    C434    1.383   1_545 S
C44    H45     1.083   .     S
C44    C46     1.402   .     A
C44    C237    1.383   .     S
C47    H48     1.082   .     S
C47    N55     1.369   .     A
C47    C114    1.419   .     S
C49    H50     1.082   .     S
C49    N51     1.366   .     A
C49    C177    1.419   1_455 S
N51    C52     1.399   .     A
C52    C56     1.522   .     S
C52    C183    1.415   1_455 S
C53    H54     1.080   .     S
C53    N55     1.347   .     A
C53    C117    1.415   .     S
C56    H64     1.087   .     S
C56    H65     1.113   .     S
C56    C57     1.548   .     S
C57    H63     1.109   .     S
C57    H62     1.112   .     S
C57    C58     1.529   .     S
C58    H61     1.111   .     S
C58    H59     1.111   .     S
C58    H60     1.109   .     S
O66    Cu72    1.963   .     S
O66    C68     1.293   .     A
O67    C68     1.296   .     A
O67    Cu73    1.966   .     S
C68    C111    1.451   .     S
O69    Cu72    1.958   .     S
O69    C71     1.300   .     A
O70    Cu73    1.949   .     S
O70    C71     1.298   .     A
C71    C96     1.471   .     S
Cu72   N116    2.020   .     S
Cu72   O76     1.949   .     S
Cu72   Cu73    2.688   .     S
Cu72   O74     1.966   .     S
Cu73   O77     1.958   .     S
Cu73   N120    2.020   .     S
Cu73   O75     1.963   .     S
O74    C78     1.296   .     A
O75    C78     1.293   .     A
O76    C79     1.299   .     A
O77    C79     1.294   .     A
C78    C106    1.450   .     S
C79    C84     1.459   .     S
C80    C95     1.391   .     A
C80    H668    1.084   1_554 S
C80    C676    1.403   1_554 S
H81    C95     1.083   .     S
H82    C92     1.084   .     S
H83    C665    1.084   .     S
C84    C95     1.399   .     A
C84    C94     1.393   .     A
C85    C86     1.386   .     A
C85    H98     1.083   .     S
C85    C96     1.402   .     A
C86    C672    1.390   .     S
C86    H685    1.083   .     S
C87    H99     1.075   .     S
C87    C671    1.390   1_554 S
C87    C673    1.419   1_554 S
C88    C89     1.419   .     A
C88    C672    1.419   .     S
C88    C675    1.424   .     S
C89    C96     1.419   .     A
C89    C93     1.412   .     A
C90    C94     1.403   .     A
C90    C673    1.424   1_554 S
C90    C676    1.422   1_554 S
C91    C92     1.391   .     A
C91    C665    1.403   .     S
C91    C675    1.422   .     S
C92    C93     1.385   .     A
C93    H101    1.080   .     S
C94    H97     1.076   .     S
H100   C671    1.083   1_554 S
C102   H103    1.083   .     S
C102   C111    1.400   .     A
C102   C299    1.384   .     S
C104   C106    1.402   .     A
C104   H105    1.083   .     S
C104   C492    1.384   1_545 S
C106   C107    1.400   .     A
C107   H108    1.083   .     S
C107   C499    1.383   1_545 S
C109   H110    1.083   .     S
C109   C111    1.402   .     A
C109   C302    1.383   .     S
C112   H113    1.082   .     S
C112   N120    1.369   .     A
C112   C179    1.419   .     S
C114   H115    1.082   .     S
C114   N116    1.366   .     A
N116   C117    1.399   .     A
C117   C121    1.522   .     S
C118   H119    1.080   .     S
C118   N120    1.347   .     A
C118   C182    1.415   .     S
C121   H129    1.087   .     S
C121   H130    1.113   .     S
C121   C122    1.548   .     S
C122   H128    1.109   .     S
C122   H127    1.112   .     S
C122   C123    1.529   .     S
C123   H126    1.111   .     S
C123   H124    1.111   .     S
C123   H125    1.109   .     S
O131   Cu137   1.963   .     S
O131   C133    1.293   .     A
O132   C133    1.296   .     A
O132   Cu138   1.966   .     S
C133   C176    1.451   .     S
O134   Cu137   1.958   .     S
O134   C136    1.300   .     A
O135   Cu138   1.949   .     S
O135   C136    1.298   .     A
C136   C161    1.471   .     S
Cu137  N181    2.020   .     S
Cu137  O141    1.949   .     S
Cu137  Cu138   2.688   .     S
Cu137  O139    1.966   .     S
Cu138  O142    1.958   .     S
Cu138  N185    2.020   .     S
Cu138  O140    1.963   .     S
O139   C143    1.296   .     A
O140   C143    1.293   .     A
O141   C144    1.299   .     A
O142   C144    1.294   .     A
C143   C171    1.450   .     S
C144   C149    1.459   .     S
C145   C160    1.391   .     A
C145   H733    1.084   1_554 S
C145   C741    1.403   1_554 S
H146   C160    1.083   .     S
H147   C157    1.084   .     S
H148   C730    1.084   .     S
C149   C160    1.399   .     A
C149   C159    1.393   .     A
C150   C151    1.386   .     A
C150   H163    1.083   .     S
C150   C161    1.402   .     A
C151   C737    1.390   .     S
C151   H750    1.083   .     S
C152   H164    1.075   .     S
C152   C736    1.390   1_554 S
C152   C738    1.419   1_554 S
C153   C154    1.419   .     A
C153   C737    1.419   .     S
C153   C740    1.424   .     S
C154   C161    1.419   .     A
C154   C158    1.412   .     A
C155   C159    1.403   .     A
C155   C738    1.424   1_554 S
C155   C741    1.422   1_554 S
C156   C157    1.391   .     A
C156   C730    1.403   .     S
C156   C740    1.422   .     S
C157   C158    1.385   .     A
C158   H166    1.080   .     S
C159   H162    1.076   .     S
H165   C736    1.083   1_554 S
C167   H168    1.083   .     S
C167   C176    1.400   .     A
C167   C364    1.384   .     S
C169   C171    1.402   .     A
C169   H170    1.083   .     S
C169   C557    1.384   1_545 S
C171   C172    1.400   .     A
C172   H173    1.083   .     S
C172   C564    1.383   1_545 S
C174   H175    1.083   .     S
C174   C176    1.402   .     A
C174   C367    1.383   .     S
C177   H178    1.082   .     S
C177   N185    1.369   .     A
C177   C49     1.419   1_655 S
C179   H180    1.082   .     S
C179   N181    1.366   .     A
N181   C182    1.399   .     A
C182   C186    1.522   .     S
C183   H184    1.080   .     S
C183   N185    1.347   .     A
C183   C52     1.415   1_655 S
C186   H194    1.087   .     S
C186   H195    1.113   .     S
C186   C187    1.548   .     S
C187   H193    1.109   .     S
C187   H192    1.112   .     S
C187   C188    1.529   .     S
C188   H191    1.111   .     S
C188   H189    1.111   .     S
C188   H190    1.109   .     S
O196   Cu202   1.963   .     S
O196   C198    1.293   .     A
O197   C198    1.296   .     A
O197   Cu203   1.966   .     S
C198   C241    1.451   .     S
O199   Cu202   1.958   .     S
O199   C201    1.300   .     A
O200   Cu203   1.949   .     S
O200   C201    1.298   .     A
C201   C226    1.471   .     S
Cu202  N246    2.020   .     S
Cu202  O206    1.949   .     S
Cu202  Cu203   2.688   .     S
Cu202  O204    1.966   .     S
Cu203  O207    1.958   .     S
Cu203  N250    2.020   .     S
Cu203  O205    1.963   .     S
O204   C208    1.296   .     A
O205   C208    1.293   .     A
O206   C209    1.299   .     A
O207   C209    1.294   .     A
C208   C236    1.450   .     S
C209   C214    1.459   .     S
C210   C225    1.391   .     A
C210   H798    1.084   1_554 S
C210   C806    1.403   1_554 S
H211   C225    1.083   .     S
H212   C222    1.084   .     S
H213   C795    1.084   .     S
C214   C225    1.399   .     A
C214   C224    1.393   .     A
C215   C216    1.386   .     A
C215   H228    1.083   .     S
C215   C226    1.402   .     A
C216   C802    1.390   .     S
C216   H815    1.083   .     S
C217   H229    1.075   .     S
C217   C801    1.390   1_554 S
C217   C803    1.419   1_554 S
C218   C219    1.419   .     A
C218   C802    1.419   .     S
C218   C805    1.424   .     S
C219   C226    1.419   .     A
C219   C223    1.412   .     A
C220   C224    1.403   .     A
C220   C803    1.424   1_554 S
C220   C806    1.422   1_554 S
C221   C222    1.391   .     A
C221   C795    1.403   .     S
C221   C805    1.422   .     S
C222   C223    1.385   .     A
C223   H231    1.080   .     S
C224   H227    1.076   .     S
H230   C801    1.083   1_554 S
C232   H233    1.083   .     S
C232   C241    1.400   .     A
C232   C429    1.384   .     S
C234   C236    1.402   .     A
C234   H235    1.083   .     S
C236   C237    1.400   .     A
C237   H238    1.083   .     S
C239   H240    1.083   .     S
C239   C241    1.402   .     A
C239   C432    1.383   .     S
C242   H243    1.082   .     S
C242   N250    1.369   .     A
C242   C309    1.419   .     S
C244   H245    1.082   .     S
C244   N246    1.366   .     A
C244   C372    1.419   1_455 S
N246   C247    1.399   .     A
C247   C251    1.522   .     S
C247   C378    1.415   1_455 S
C248   H249    1.080   .     S
C248   N250    1.347   .     A
C248   C312    1.415   .     S
C251   H259    1.087   .     S
C251   H260    1.113   .     S
C251   C252    1.548   .     S
C252   H258    1.109   .     S
C252   H257    1.112   .     S
C252   C253    1.529   .     S
C253   H256    1.111   .     S
C253   H254    1.111   .     S
C253   H255    1.109   .     S
O261   Cu267   1.963   .     S
O261   C263    1.293   .     A
O262   C263    1.296   .     A
O262   Cu268   1.966   .     S
C263   C306    1.451   .     S
O264   Cu267   1.958   .     S
O264   C266    1.300   .     A
O265   Cu268   1.949   .     S
O265   C266    1.298   .     A
C266   C291    1.471   .     S
Cu267  N311    2.020   .     S
Cu267  O271    1.949   .     S
Cu267  Cu268   2.688   .     S
Cu267  O269    1.966   .     S
Cu268  O272    1.958   .     S
Cu268  N315    2.020   .     S
Cu268  O270    1.963   .     S
O269   C273    1.296   .     A
O270   C273    1.293   .     A
O271   C274    1.299   .     A
O272   C274    1.294   .     A
C273   C301    1.450   .     S
C274   C279    1.459   .     S
C275   C290    1.391   .     A
C275   H863    1.084   1_554 S
C275   C871    1.403   1_554 S
H276   C290    1.083   .     S
H277   C287    1.084   .     S
H278   C860    1.084   .     S
C279   C290    1.399   .     A
C279   C289    1.393   .     A
C280   C281    1.386   .     A
C280   H293    1.083   .     S
C280   C291    1.402   .     A
C281   C867    1.390   .     S
C281   H880    1.083   .     S
C282   H294    1.075   .     S
C282   C866    1.390   1_554 S
C282   C868    1.419   1_554 S
C283   C284    1.419   .     A
C283   C867    1.419   .     S
C283   C870    1.424   .     S
C284   C291    1.419   .     A
C284   C288    1.412   .     A
C285   C289    1.403   .     A
C285   C868    1.424   1_554 S
C285   C871    1.422   1_554 S
C286   C287    1.391   .     A
C286   C860    1.403   .     S
C286   C870    1.422   .     S
C287   C288    1.385   .     A
C288   H296    1.080   .     S
C289   H292    1.076   .     S
H295   C866    1.083   1_554 S
C297   H298    1.083   .     S
C297   C306    1.400   .     A
C297   C494    1.384   .     S
C299   C301    1.402   .     A
C299   H300    1.083   .     S
C301   C302    1.400   .     A
C302   H303    1.083   .     S
C304   H305    1.083   .     S
C304   C306    1.402   .     A
C304   C497    1.383   .     S
C307   H308    1.082   .     S
C307   N315    1.369   .     A
C307   C374    1.419   .     S
C309   H310    1.082   .     S
C309   N311    1.366   .     A
N311   C312    1.399   .     A
C312   C316    1.522   .     S
C313   H314    1.080   .     S
C313   N315    1.347   .     A
C313   C377    1.415   .     S
C316   H324    1.087   .     S
C316   H325    1.113   .     S
C316   C317    1.548   .     S
C317   H323    1.109   .     S
C317   H322    1.112   .     S
C317   C318    1.529   .     S
C318   H321    1.111   .     S
C318   H319    1.111   .     S
C318   H320    1.109   .     S
O326   Cu332   1.963   .     S
O326   C328    1.293   .     A
O327   C328    1.296   .     A
O327   Cu333   1.966   .     S
C328   C371    1.451   .     S
O329   Cu332   1.958   .     S
O329   C331    1.300   .     A
O330   Cu333   1.949   .     S
O330   C331    1.298   .     A
C331   C356    1.471   .     S
Cu332  N376    2.020   .     S
Cu332  O336    1.949   .     S
Cu332  Cu333   2.688   .     S
Cu332  O334    1.966   .     S
Cu333  O337    1.958   .     S
Cu333  N380    2.020   .     S
Cu333  O335    1.963   .     S
O334   C338    1.296   .     A
O335   C338    1.293   .     A
O336   C339    1.299   .     A
O337   C339    1.294   .     A
C338   C366    1.450   .     S
C339   C344    1.459   .     S
C340   C355    1.391   .     A
C340   H928    1.084   1_554 S
C340   C936    1.403   1_554 S
H341   C355    1.083   .     S
H342   C352    1.084   .     S
H343   C925    1.084   .     S
C344   C355    1.399   .     A
C344   C354    1.393   .     A
C345   C346    1.386   .     A
C345   H358    1.083   .     S
C345   C356    1.402   .     A
C346   C932    1.390   .     S
C346   H945    1.083   .     S
C347   H359    1.075   .     S
C347   C931    1.390   1_554 S
C347   C933    1.419   1_554 S
C348   C349    1.419   .     A
C348   C932    1.419   .     S
C348   C935    1.424   .     S
C349   C356    1.419   .     A
C349   C353    1.412   .     A
C350   C354    1.403   .     A
C350   C933    1.424   1_554 S
C350   C936    1.422   1_554 S
C351   C352    1.391   .     A
C351   C925    1.403   .     S
C351   C935    1.422   .     S
C352   C353    1.385   .     A
C353   H361    1.080   .     S
C354   H357    1.076   .     S
H360   C931    1.083   1_554 S
C362   H363    1.083   .     S
C362   C371    1.400   .     A
C362   C559    1.384   .     S
C364   C366    1.402   .     A
C364   H365    1.083   .     S
C366   C367    1.400   .     A
C367   H368    1.083   .     S
C369   H370    1.083   .     S
C369   C371    1.402   .     A
C369   C562    1.383   .     S
C372   H373    1.082   .     S
C372   N380    1.369   .     A
C372   C244    1.419   1_655 S
C374   H375    1.082   .     S
C374   N376    1.366   .     A
N376   C377    1.399   .     A
C377   C381    1.522   .     S
C378   H379    1.080   .     S
C378   N380    1.347   .     A
C378   C247    1.415   1_655 S
C381   H389    1.087   .     S
C381   H390    1.113   .     S
C381   C382    1.548   .     S
C382   H388    1.109   .     S
C382   H387    1.112   .     S
C382   C383    1.529   .     S
C383   H386    1.111   .     S
C383   H384    1.111   .     S
C383   H385    1.109   .     S
O391   Cu397   1.963   .     S
O391   C393    1.293   .     A
O392   C393    1.296   .     A
O392   Cu398   1.966   .     S
C393   C436    1.451   .     S
O394   Cu397   1.958   .     S
O394   C396    1.300   .     A
O395   Cu398   1.949   .     S
O395   C396    1.298   .     A
C396   C421    1.471   .     S
Cu397  N441    2.020   .     S
Cu397  O401    1.949   .     S
Cu397  Cu398   2.688   .     S
Cu397  O399    1.966   .     S
Cu398  O402    1.958   .     S
Cu398  N445    2.020   .     S
Cu398  O400    1.963   .     S
O399   C403    1.296   .     A
O400   C403    1.293   .     A
O401   C404    1.299   .     A
O402   C404    1.294   .     A
C403   C431    1.450   .     S
C404   C409    1.459   .     S
C405   C420    1.391   .     A
C405   H993    1.084   1_554 S
C405   C1001   1.403   1_554 S
H406   C420    1.083   .     S
H407   C417    1.084   .     S
H408   C990    1.084   .     S
C409   C420    1.399   .     A
C409   C419    1.393   .     A
C410   C411    1.386   .     A
C410   H423    1.083   .     S
C410   C421    1.402   .     A
C411   C997    1.390   .     S
C411   H1010   1.083   .     S
C412   H424    1.075   .     S
C412   C996    1.390   1_554 S
C412   C998    1.419   1_554 S
C413   C414    1.419   .     A
C413   C997    1.419   .     S
C413   C1000   1.424   .     S
C414   C421    1.419   .     A
C414   C418    1.412   .     A
C415   C419    1.403   .     A
C415   C998    1.424   1_554 S
C415   C1001   1.422   1_554 S
C416   C417    1.391   .     A
C416   C990    1.403   .     S
C416   C1000   1.422   .     S
C417   C418    1.385   .     A
C418   H426    1.080   .     S
C419   H422    1.076   .     S
H425   C996    1.083   1_554 S
C427   H428    1.083   .     S
C427   C436    1.400   .     A
C427   C39     1.384   1_565 S
C429   C431    1.402   .     A
C429   H430    1.083   .     S
C431   C432    1.400   .     A
C432   H433    1.083   .     S
C434   H435    1.083   .     S
C434   C436    1.402   .     A
C434   C42     1.383   1_565 S
C437   H438    1.082   .     S
C437   N445    1.369   .     A
C437   C504    1.419   .     S
C439   H440    1.082   .     S
C439   N441    1.366   .     A
C439   C567    1.419   1_455 S
N441   C442    1.399   .     A
C442   C446    1.522   .     S
C442   C573    1.415   1_455 S
C443   H444    1.080   .     S
C443   N445    1.347   .     A
C443   C507    1.415   .     S
C446   H454    1.087   .     S
C446   H455    1.113   .     S
C446   C447    1.548   .     S
C447   H453    1.109   .     S
C447   H452    1.112   .     S
C447   C448    1.529   .     S
C448   H451    1.111   .     S
C448   H449    1.111   .     S
C448   H450    1.109   .     S
O456   Cu462   1.963   .     S
O456   C458    1.293   .     A
O457   C458    1.296   .     A
O457   Cu463   1.966   .     S
C458   C501    1.451   .     S
O459   Cu462   1.958   .     S
O459   C461    1.300   .     A
O460   Cu463   1.949   .     S
O460   C461    1.298   .     A
C461   C486    1.471   .     S
Cu462  N506    2.020   .     S
Cu462  O466    1.949   .     S
Cu462  Cu463   2.688   .     S
Cu462  O464    1.966   .     S
Cu463  O467    1.958   .     S
Cu463  N510    2.020   .     S
Cu463  O465    1.963   .     S
O464   C468    1.296   .     A
O465   C468    1.293   .     A
O466   C469    1.299   .     A
O467   C469    1.294   .     A
C468   C496    1.450   .     S
C469   C474    1.459   .     S
C470   C485    1.391   .     A
C470   H1058   1.084   1_554 S
C470   C1066   1.403   1_554 S
H471   C485    1.083   .     S
H472   C482    1.084   .     S
H473   C1055   1.084   .     S
C474   C485    1.399   .     A
C474   C484    1.393   .     A
C475   C476    1.386   .     A
C475   H488    1.083   .     S
C475   C486    1.402   .     A
C476   C1062   1.390   .     S
C476   H1075   1.083   .     S
C477   H489    1.075   .     S
C477   C1061   1.390   1_554 S
C477   C1063   1.419   1_554 S
C478   C479    1.419   .     A
C478   C1062   1.419   .     S
C478   C1065   1.424   .     S
C479   C486    1.419   .     A
C479   C483    1.412   .     A
C480   C484    1.403   .     A
C480   C1063   1.424   1_554 S
C480   C1066   1.422   1_554 S
C481   C482    1.391   .     A
C481   C1055   1.403   .     S
C481   C1065   1.422   .     S
C482   C483    1.385   .     A
C483   H491    1.080   .     S
C484   H487    1.076   .     S
H490   C1061   1.083   1_554 S
C492   H493    1.083   .     S
C492   C501    1.400   .     A
C492   C104    1.384   1_565 S
C494   C496    1.402   .     A
C494   H495    1.083   .     S
C496   C497    1.400   .     A
C497   H498    1.083   .     S
C499   H500    1.083   .     S
C499   C501    1.402   .     A
C499   C107    1.383   1_565 S
C502   H503    1.082   .     S
C502   N510    1.369   .     A
C502   C569    1.419   .     S
C504   H505    1.082   .     S
C504   N506    1.366   .     A
N506   C507    1.399   .     A
C507   C511    1.522   .     S
C508   H509    1.080   .     S
C508   N510    1.347   .     A
C508   C572    1.415   .     S
C511   H519    1.087   .     S
C511   H520    1.113   .     S
C511   C512    1.548   .     S
C512   H518    1.109   .     S
C512   H517    1.112   .     S
C512   C513    1.529   .     S
C513   H516    1.111   .     S
C513   H514    1.111   .     S
C513   H515    1.109   .     S
O521   Cu527   1.963   .     S
O521   C523    1.293   .     A
O522   C523    1.296   .     A
O522   Cu528   1.966   .     S
C523   C566    1.451   .     S
O524   Cu527   1.958   .     S
O524   C526    1.300   .     A
O525   Cu528   1.949   .     S
O525   C526    1.298   .     A
C526   C551    1.471   .     S
Cu527  N571    2.020   .     S
Cu527  O531    1.949   .     S
Cu527  Cu528   2.688   .     S
Cu527  O529    1.966   .     S
Cu528  O532    1.958   .     S
Cu528  N575    2.020   .     S
Cu528  O530    1.963   .     S
O529   C533    1.296   .     A
O530   C533    1.293   .     A
O531   C534    1.299   .     A
O532   C534    1.294   .     A
C533   C561    1.450   .     S
C534   C539    1.459   .     S
C535   C550    1.391   .     A
C535   H1123   1.084   1_554 S
C535   C1131   1.403   1_554 S
H536   C550    1.083   .     S
H537   C547    1.084   .     S
H538   C1120   1.084   .     S
C539   C550    1.399   .     A
C539   C549    1.393   .     A
C540   C541    1.386   .     A
C540   H553    1.083   .     S
C540   C551    1.402   .     A
C541   C1127   1.390   .     S
C541   H1140   1.083   .     S
C542   H554    1.075   .     S
C542   C1126   1.390   1_554 S
C542   C1128   1.419   1_554 S
C543   C544    1.419   .     A
C543   C1127   1.419   .     S
C543   C1130   1.424   .     S
C544   C551    1.419   .     A
C544   C548    1.412   .     A
C545   C549    1.403   .     A
C545   C1128   1.424   1_554 S
C545   C1131   1.422   1_554 S
C546   C547    1.391   .     A
C546   C1120   1.403   .     S
C546   C1130   1.422   .     S
C547   C548    1.385   .     A
C548   H556    1.080   .     S
C549   H552    1.076   .     S
H555   C1126   1.083   1_554 S
C557   H558    1.083   .     S
C557   C566    1.400   .     A
C557   C169    1.384   1_565 S
C559   C561    1.402   .     A
C559   H560    1.083   .     S
C561   C562    1.400   .     A
C562   H563    1.083   .     S
C564   H565    1.083   .     S
C564   C566    1.402   .     A
C564   C172    1.383   1_565 S
C567   H568    1.082   .     S
C567   N575    1.369   .     A
C567   C439    1.419   1_655 S
C569   H570    1.082   .     S
C569   N571    1.366   .     A
N571   C572    1.399   .     A
C572   C576    1.522   .     S
C573   H574    1.080   .     S
C573   N575    1.347   .     A
C573   C442    1.415   1_655 S
C576   H584    1.087   .     S
C576   H585    1.113   .     S
C576   C577    1.548   .     S
C577   H583    1.109   .     S
C577   H582    1.112   .     S
C577   C578    1.529   .     S
C578   H581    1.111   .     S
C578   H579    1.111   .     S
C578   H580    1.109   .     S
O586   Cu592   1.963   .     S
O586   C588    1.293   .     A
O587   C588    1.296   .     A
O587   Cu593   1.966   .     S
C588   C631    1.451   .     S
O589   Cu592   1.958   .     S
O589   C591    1.300   .     A
O590   Cu593   1.949   .     S
O590   C591    1.298   .     A
C591   C616    1.471   .     S
Cu592  N636    2.020   .     S
Cu592  O596    1.949   .     S
Cu592  Cu593   2.688   .     S
Cu592  O594    1.966   .     S
Cu593  O597    1.958   .     S
Cu593  N640    2.020   .     S
Cu593  O595    1.963   .     S
O594   C598    1.296   .     A
O595   C598    1.293   .     A
O596   C599    1.299   .     A
O597   C599    1.294   .     A
C598   C626    1.450   .     S
C599   C604    1.459   .     S
C600   C615    1.391   .     A
H601   C615    1.083   .     S
H602   C612    1.084   .     S
H603   C15     1.084   1_556 S
C604   C615    1.399   .     A
C604   C614    1.393   .     A
C605   C606    1.386   .     A
C605   H618    1.083   .     S
C605   C616    1.402   .     A
C606   C22     1.390   1_556 S
C606   H35     1.083   1_556 S
C607   H619    1.075   .     S
C608   C609    1.419   .     A
C608   C22     1.419   1_556 S
C608   C25     1.424   1_556 S
C609   C616    1.419   .     A
C609   C613    1.412   .     A
C610   C614    1.403   .     A
C611   C612    1.391   .     A
C611   C15     1.403   1_556 S
C611   C25     1.422   1_556 S
C612   C613    1.385   .     A
C613   H621    1.080   .     S
C614   H617    1.076   .     S
C622   H623    1.083   .     S
C622   C631    1.400   .     A
C622   C819    1.384   .     S
C624   C626    1.402   .     A
C624   H625    1.083   .     S
C624   C1012   1.384   1_545 S
C626   C627    1.400   .     A
C627   H628    1.083   .     S
C627   C1019   1.383   1_545 S
C629   H630    1.083   .     S
C629   C631    1.402   .     A
C629   C822    1.383   .     S
C632   H633    1.082   .     S
C632   N640    1.369   .     A
C632   C699    1.419   .     S
C634   H635    1.082   .     S
C634   N636    1.366   .     A
C634   C762    1.419   1_455 S
N636   C637    1.399   .     A
C637   C641    1.522   .     S
C637   C768    1.415   1_455 S
C638   H639    1.080   .     S
C638   N640    1.347   .     A
C638   C702    1.415   .     S
C641   H649    1.087   .     S
C641   H650    1.113   .     S
C641   C642    1.548   .     S
C642   H648    1.109   .     S
C642   H647    1.112   .     S
C642   C643    1.529   .     S
C643   H646    1.111   .     S
C643   H644    1.111   .     S
C643   H645    1.109   .     S
O651   Cu657   1.963   .     S
O651   C653    1.293   .     A
O652   C653    1.296   .     A
O652   Cu658   1.966   .     S
C653   C696    1.451   .     S
O654   Cu657   1.958   .     S
O654   C656    1.300   .     A
O655   Cu658   1.949   .     S
O655   C656    1.298   .     A
C656   C681    1.471   .     S
Cu657  N701    2.020   .     S
Cu657  O661    1.949   .     S
Cu657  Cu658   2.688   .     S
Cu657  O659    1.966   .     S
Cu658  O662    1.958   .     S
Cu658  N705    2.020   .     S
Cu658  O660    1.963   .     S
O659   C663    1.296   .     A
O660   C663    1.293   .     A
O661   C664    1.299   .     A
O662   C664    1.294   .     A
C663   C691    1.450   .     S
C664   C669    1.459   .     S
C665   C680    1.391   .     A
H666   C680    1.083   .     S
H667   C677    1.084   .     S
H668   C80     1.084   1_556 S
C669   C680    1.399   .     A
C669   C679    1.393   .     A
C670   C671    1.386   .     A
C670   H683    1.083   .     S
C670   C681    1.402   .     A
C671   C87     1.390   1_556 S
C671   H100    1.083   1_556 S
C672   H684    1.075   .     S
C673   C674    1.419   .     A
C673   C87     1.419   1_556 S
C673   C90     1.424   1_556 S
C674   C681    1.419   .     A
C674   C678    1.412   .     A
C675   C679    1.403   .     A
C676   C677    1.391   .     A
C676   C80     1.403   1_556 S
C676   C90     1.422   1_556 S
C677   C678    1.385   .     A
C678   H686    1.080   .     S
C679   H682    1.076   .     S
C687   H688    1.083   .     S
C687   C696    1.400   .     A
C687   C884    1.384   .     S
C689   C691    1.402   .     A
C689   H690    1.083   .     S
C689   C1077   1.384   1_545 S
C691   C692    1.400   .     A
C692   H693    1.083   .     S
C692   C1084   1.383   1_545 S
C694   H695    1.083   .     S
C694   C696    1.402   .     A
C694   C887    1.383   .     S
C697   H698    1.082   .     S
C697   N705    1.369   .     A
C697   C764    1.419   .     S
C699   H700    1.082   .     S
C699   N701    1.366   .     A
N701   C702    1.399   .     A
C702   C706    1.522   .     S
C703   H704    1.080   .     S
C703   N705    1.347   .     A
C703   C767    1.415   .     S
C706   H714    1.087   .     S
C706   H715    1.113   .     S
C706   C707    1.548   .     S
C707   H713    1.109   .     S
C707   H712    1.112   .     S
C707   C708    1.529   .     S
C708   H711    1.111   .     S
C708   H709    1.111   .     S
C708   H710    1.109   .     S
O716   Cu722   1.963   .     S
O716   C718    1.293   .     A
O717   C718    1.296   .     A
O717   Cu723   1.966   .     S
C718   C761    1.451   .     S
O719   Cu722   1.958   .     S
O719   C721    1.300   .     A
O720   Cu723   1.949   .     S
O720   C721    1.298   .     A
C721   C746    1.471   .     S
Cu722  N766    2.020   .     S
Cu722  O726    1.949   .     S
Cu722  Cu723   2.688   .     S
Cu722  O724    1.966   .     S
Cu723  O727    1.958   .     S
Cu723  N770    2.020   .     S
Cu723  O725    1.963   .     S
O724   C728    1.296   .     A
O725   C728    1.293   .     A
O726   C729    1.299   .     A
O727   C729    1.294   .     A
C728   C756    1.450   .     S
C729   C734    1.459   .     S
C730   C745    1.391   .     A
H731   C745    1.083   .     S
H732   C742    1.084   .     S
H733   C145    1.084   1_556 S
C734   C745    1.399   .     A
C734   C744    1.393   .     A
C735   C736    1.386   .     A
C735   H748    1.083   .     S
C735   C746    1.402   .     A
C736   C152    1.390   1_556 S
C736   H165    1.083   1_556 S
C737   H749    1.075   .     S
C738   C739    1.419   .     A
C738   C152    1.419   1_556 S
C738   C155    1.424   1_556 S
C739   C746    1.419   .     A
C739   C743    1.412   .     A
C740   C744    1.403   .     A
C741   C742    1.391   .     A
C741   C145    1.403   1_556 S
C741   C155    1.422   1_556 S
C742   C743    1.385   .     A
C743   H751    1.080   .     S
C744   H747    1.076   .     S
C752   H753    1.083   .     S
C752   C761    1.400   .     A
C752   C949    1.384   .     S
C754   C756    1.402   .     A
C754   H755    1.083   .     S
C754   C1142   1.384   1_545 S
C756   C757    1.400   .     A
C757   H758    1.083   .     S
C757   C1149   1.383   1_545 S
C759   H760    1.083   .     S
C759   C761    1.402   .     A
C759   C952    1.383   .     S
C762   H763    1.082   .     S
C762   N770    1.369   .     A
C762   C634    1.419   1_655 S
C764   H765    1.082   .     S
C764   N766    1.366   .     A
N766   C767    1.399   .     A
C767   C771    1.522   .     S
C768   H769    1.080   .     S
C768   N770    1.347   .     A
C768   C637    1.415   1_655 S
C771   H779    1.087   .     S
C771   H780    1.113   .     S
C771   C772    1.548   .     S
C772   H778    1.109   .     S
C772   H777    1.112   .     S
C772   C773    1.529   .     S
C773   H776    1.111   .     S
C773   H774    1.111   .     S
C773   H775    1.109   .     S
O781   Cu787   1.963   .     S
O781   C783    1.293   .     A
O782   C783    1.296   .     A
O782   Cu788   1.966   .     S
C783   C826    1.451   .     S
O784   Cu787   1.958   .     S
O784   C786    1.300   .     A
O785   Cu788   1.949   .     S
O785   C786    1.298   .     A
C786   C811    1.471   .     S
Cu787  N831    2.020   .     S
Cu787  O791    1.949   .     S
Cu787  Cu788   2.688   .     S
Cu787  O789    1.966   .     S
Cu788  O792    1.958   .     S
Cu788  N835    2.020   .     S
Cu788  O790    1.963   .     S
O789   C793    1.296   .     A
O790   C793    1.293   .     A
O791   C794    1.299   .     A
O792   C794    1.294   .     A
C793   C821    1.450   .     S
C794   C799    1.459   .     S
C795   C810    1.391   .     A
H796   C810    1.083   .     S
H797   C807    1.084   .     S
H798   C210    1.084   1_556 S
C799   C810    1.399   .     A
C799   C809    1.393   .     A
C800   C801    1.386   .     A
C800   H813    1.083   .     S
C800   C811    1.402   .     A
C801   C217    1.390   1_556 S
C801   H230    1.083   1_556 S
C802   H814    1.075   .     S
C803   C804    1.419   .     A
C803   C217    1.419   1_556 S
C803   C220    1.424   1_556 S
C804   C811    1.419   .     A
C804   C808    1.412   .     A
C805   C809    1.403   .     A
C806   C807    1.391   .     A
C806   C210    1.403   1_556 S
C806   C220    1.422   1_556 S
C807   C808    1.385   .     A
C808   H816    1.080   .     S
C809   H812    1.076   .     S
C817   H818    1.083   .     S
C817   C826    1.400   .     A
C817   C1014   1.384   .     S
C819   C821    1.402   .     A
C819   H820    1.083   .     S
C821   C822    1.400   .     A
C822   H823    1.083   .     S
C824   H825    1.083   .     S
C824   C826    1.402   .     A
C824   C1017   1.383   .     S
C827   H828    1.082   .     S
C827   N835    1.369   .     A
C827   C894    1.419   .     S
C829   H830    1.082   .     S
C829   N831    1.366   .     A
C829   C957    1.419   1_455 S
N831   C832    1.399   .     A
C832   C836    1.522   .     S
C832   C963    1.415   1_455 S
C833   H834    1.080   .     S
C833   N835    1.347   .     A
C833   C897    1.415   .     S
C836   H844    1.087   .     S
C836   H845    1.113   .     S
C836   C837    1.548   .     S
C837   H843    1.109   .     S
C837   H842    1.112   .     S
C837   C838    1.529   .     S
C838   H841    1.111   .     S
C838   H839    1.111   .     S
C838   H840    1.109   .     S
O846   Cu852   1.963   .     S
O846   C848    1.293   .     A
O847   C848    1.296   .     A
O847   Cu853   1.966   .     S
C848   C891    1.451   .     S
O849   Cu852   1.958   .     S
O849   C851    1.300   .     A
O850   Cu853   1.949   .     S
O850   C851    1.298   .     A
C851   C876    1.471   .     S
Cu852  N896    2.020   .     S
Cu852  O856    1.949   .     S
Cu852  Cu853   2.688   .     S
Cu852  O854    1.966   .     S
Cu853  O857    1.958   .     S
Cu853  N900    2.020   .     S
Cu853  O855    1.963   .     S
O854   C858    1.296   .     A
O855   C858    1.293   .     A
O856   C859    1.299   .     A
O857   C859    1.294   .     A
C858   C886    1.450   .     S
C859   C864    1.459   .     S
C860   C875    1.391   .     A
H861   C875    1.083   .     S
H862   C872    1.084   .     S
H863   C275    1.084   1_556 S
C864   C875    1.399   .     A
C864   C874    1.393   .     A
C865   C866    1.386   .     A
C865   H878    1.083   .     S
C865   C876    1.402   .     A
C866   C282    1.390   1_556 S
C866   H295    1.083   1_556 S
C867   H879    1.075   .     S
C868   C869    1.419   .     A
C868   C282    1.419   1_556 S
C868   C285    1.424   1_556 S
C869   C876    1.419   .     A
C869   C873    1.412   .     A
C870   C874    1.403   .     A
C871   C872    1.391   .     A
C871   C275    1.403   1_556 S
C871   C285    1.422   1_556 S
C872   C873    1.385   .     A
C873   H881    1.080   .     S
C874   H877    1.076   .     S
C882   H883    1.083   .     S
C882   C891    1.400   .     A
C882   C1079   1.384   .     S
C884   C886    1.402   .     A
C884   H885    1.083   .     S
C886   C887    1.400   .     A
C887   H888    1.083   .     S
C889   H890    1.083   .     S
C889   C891    1.402   .     A
C889   C1082   1.383   .     S
C892   H893    1.082   .     S
C892   N900    1.369   .     A
C892   C959    1.419   .     S
C894   H895    1.082   .     S
C894   N896    1.366   .     A
N896   C897    1.399   .     A
C897   C901    1.522   .     S
C898   H899    1.080   .     S
C898   N900    1.347   .     A
C898   C962    1.415   .     S
C901   H909    1.087   .     S
C901   H910    1.113   .     S
C901   C902    1.548   .     S
C902   H908    1.109   .     S
C902   H907    1.112   .     S
C902   C903    1.529   .     S
C903   H906    1.111   .     S
C903   H904    1.111   .     S
C903   H905    1.109   .     S
O911   Cu917   1.963   .     S
O911   C913    1.293   .     A
O912   C913    1.296   .     A
O912   Cu918   1.966   .     S
C913   C956    1.451   .     S
O914   Cu917   1.958   .     S
O914   C916    1.300   .     A
O915   Cu918   1.949   .     S
O915   C916    1.298   .     A
C916   C941    1.471   .     S
Cu917  N961    2.020   .     S
Cu917  O921    1.949   .     S
Cu917  Cu918   2.688   .     S
Cu917  O919    1.966   .     S
Cu918  O922    1.958   .     S
Cu918  N965    2.020   .     S
Cu918  O920    1.963   .     S
O919   C923    1.296   .     A
O920   C923    1.293   .     A
O921   C924    1.299   .     A
O922   C924    1.294   .     A
C923   C951    1.450   .     S
C924   C929    1.459   .     S
C925   C940    1.391   .     A
H926   C940    1.083   .     S
H927   C937    1.084   .     S
H928   C340    1.084   1_556 S
C929   C940    1.399   .     A
C929   C939    1.393   .     A
C930   C931    1.386   .     A
C930   H943    1.083   .     S
C930   C941    1.402   .     A
C931   C347    1.390   1_556 S
C931   H360    1.083   1_556 S
C932   H944    1.075   .     S
C933   C934    1.419   .     A
C933   C347    1.419   1_556 S
C933   C350    1.424   1_556 S
C934   C941    1.419   .     A
C934   C938    1.412   .     A
C935   C939    1.403   .     A
C936   C937    1.391   .     A
C936   C340    1.403   1_556 S
C936   C350    1.422   1_556 S
C937   C938    1.385   .     A
C938   H946    1.080   .     S
C939   H942    1.076   .     S
C947   H948    1.083   .     S
C947   C956    1.400   .     A
C947   C1144   1.384   .     S
C949   C951    1.402   .     A
C949   H950    1.083   .     S
C951   C952    1.400   .     A
C952   H953    1.083   .     S
C954   H955    1.083   .     S
C954   C956    1.402   .     A
C954   C1147   1.383   .     S
C957   H958    1.082   .     S
C957   N965    1.369   .     A
C957   C829    1.419   1_655 S
C959   H960    1.082   .     S
C959   N961    1.366   .     A
N961   C962    1.399   .     A
C962   C966    1.522   .     S
C963   H964    1.080   .     S
C963   N965    1.347   .     A
C963   C832    1.415   1_655 S
C966   H974    1.087   .     S
C966   H975    1.113   .     S
C966   C967    1.548   .     S
C967   H973    1.109   .     S
C967   H972    1.112   .     S
C967   C968    1.529   .     S
C968   H971    1.111   .     S
C968   H969    1.111   .     S
C968   H970    1.109   .     S
O976   Cu982   1.963   .     S
O976   C978    1.293   .     A
O977   C978    1.296   .     A
O977   Cu983   1.966   .     S
C978   C1021   1.451   .     S
O979   Cu982   1.958   .     S
O979   C981    1.300   .     A
O980   Cu983   1.949   .     S
O980   C981    1.298   .     A
C981   C1006   1.471   .     S
Cu982  N1026   2.020   .     S
Cu982  O986    1.949   .     S
Cu982  Cu983   2.688   .     S
Cu982  O984    1.966   .     S
Cu983  O987    1.958   .     S
Cu983  N1030   2.020   .     S
Cu983  O985    1.963   .     S
O984   C988    1.296   .     A
O985   C988    1.293   .     A
O986   C989    1.299   .     A
O987   C989    1.294   .     A
C988   C1016   1.450   .     S
C989   C994    1.459   .     S
C990   C1005   1.391   .     A
H991   C1005   1.083   .     S
H992   C1002   1.084   .     S
H993   C405    1.084   1_556 S
C994   C1005   1.399   .     A
C994   C1004   1.393   .     A
C995   C996    1.386   .     A
C995   H1008   1.083   .     S
C995   C1006   1.402   .     A
C996   C412    1.390   1_556 S
C996   H425    1.083   1_556 S
C997   H1009   1.075   .     S
C998   C999    1.419   .     A
C998   C412    1.419   1_556 S
C998   C415    1.424   1_556 S
C999   C1006   1.419   .     A
C999   C1003   1.412   .     A
C1000  C1004   1.403   .     A
C1001  C1002   1.391   .     A
C1001  C405    1.403   1_556 S
C1001  C415    1.422   1_556 S
C1002  C1003   1.385   .     A
C1003  H1011   1.080   .     S
C1004  H1007   1.076   .     S
C1012  H1013   1.083   .     S
C1012  C1021   1.400   .     A
C1012  C624    1.384   1_565 S
C1014  C1016   1.402   .     A
C1014  H1015   1.083   .     S
C1016  C1017   1.400   .     A
C1017  H1018   1.083   .     S
C1019  H1020   1.083   .     S
C1019  C1021   1.402   .     A
C1019  C627    1.383   1_565 S
C1022  H1023   1.082   .     S
C1022  N1030   1.369   .     A
C1022  C1089   1.419   .     S
C1024  H1025   1.082   .     S
C1024  N1026   1.366   .     A
C1024  C1152   1.419   1_455 S
N1026  C1027   1.399   .     A
C1027  C1031   1.522   .     S
C1027  C1158   1.415   1_455 S
C1028  H1029   1.080   .     S
C1028  N1030   1.347   .     A
C1028  C1092   1.415   .     S
C1031  H1039   1.087   .     S
C1031  H1040   1.113   .     S
C1031  C1032   1.548   .     S
C1032  H1038   1.109   .     S
C1032  H1037   1.112   .     S
C1032  C1033   1.529   .     S
C1033  H1036   1.111   .     S
C1033  H1034   1.111   .     S
C1033  H1035   1.109   .     S
O1041  Cu1047  1.963   .     S
O1041  C1043   1.293   .     A
O1042  C1043   1.296   .     A
O1042  Cu1048  1.966   .     S
C1043  C1086   1.451   .     S
O1044  Cu1047  1.958   .     S
O1044  C1046   1.300   .     A
O1045  Cu1048  1.949   .     S
O1045  C1046   1.298   .     A
C1046  C1071   1.471   .     S
Cu1047 N1091   2.020   .     S
Cu1047 O1051   1.949   .     S
Cu1047 Cu1048  2.688   .     S
Cu1047 O1049   1.966   .     S
Cu1048 O1052   1.958   .     S
Cu1048 N1095   2.020   .     S
Cu1048 O1050   1.963   .     S
O1049  C1053   1.296   .     A
O1050  C1053   1.293   .     A
O1051  C1054   1.299   .     A
O1052  C1054   1.294   .     A
C1053  C1081   1.450   .     S
C1054  C1059   1.459   .     S
C1055  C1070   1.391   .     A
H1056  C1070   1.083   .     S
H1057  C1067   1.084   .     S
H1058  C470    1.084   1_556 S
C1059  C1070   1.399   .     A
C1059  C1069   1.393   .     A
C1060  C1061   1.386   .     A
C1060  H1073   1.083   .     S
C1060  C1071   1.402   .     A
C1061  C477    1.390   1_556 S
C1061  H490    1.083   1_556 S
C1062  H1074   1.075   .     S
C1063  C1064   1.419   .     A
C1063  C477    1.419   1_556 S
C1063  C480    1.424   1_556 S
C1064  C1071   1.419   .     A
C1064  C1068   1.412   .     A
C1065  C1069   1.403   .     A
C1066  C1067   1.391   .     A
C1066  C470    1.403   1_556 S
C1066  C480    1.422   1_556 S
C1067  C1068   1.385   .     A
C1068  H1076   1.080   .     S
C1069  H1072   1.076   .     S
C1077  H1078   1.083   .     S
C1077  C1086   1.400   .     A
C1077  C689    1.384   1_565 S
C1079  C1081   1.402   .     A
C1079  H1080   1.083   .     S
C1081  C1082   1.400   .     A
C1082  H1083   1.083   .     S
C1084  H1085   1.083   .     S
C1084  C1086   1.402   .     A
C1084  C692    1.383   1_565 S
C1087  H1088   1.082   .     S
C1087  N1095   1.369   .     A
C1087  C1154   1.419   .     S
C1089  H1090   1.082   .     S
C1089  N1091   1.366   .     A
N1091  C1092   1.399   .     A
C1092  C1096   1.522   .     S
C1093  H1094   1.080   .     S
C1093  N1095   1.347   .     A
C1093  C1157   1.415   .     S
C1096  H1104   1.087   .     S
C1096  H1105   1.113   .     S
C1096  C1097   1.548   .     S
C1097  H1103   1.109   .     S
C1097  H1102   1.112   .     S
C1097  C1098   1.529   .     S
C1098  H1101   1.111   .     S
C1098  H1099   1.111   .     S
C1098  H1100   1.109   .     S
O1106  Cu1112  1.963   .     S
O1106  C1108   1.293   .     A
O1107  C1108   1.296   .     A
O1107  Cu1113  1.966   .     S
C1108  C1151   1.451   .     S
O1109  Cu1112  1.958   .     S
O1109  C1111   1.300   .     A
O1110  Cu1113  1.949   .     S
O1110  C1111   1.298   .     A
C1111  C1136   1.471   .     S
Cu1112 N1156   2.020   .     S
Cu1112 O1116   1.949   .     S
Cu1112 Cu1113  2.688   .     S
Cu1112 O1114   1.966   .     S
Cu1113 O1117   1.958   .     S
Cu1113 N1160   2.020   .     S
Cu1113 O1115   1.963   .     S
O1114  C1118   1.296   .     A
O1115  C1118   1.293   .     A
O1116  C1119   1.299   .     A
O1117  C1119   1.294   .     A
C1118  C1146   1.450   .     S
C1119  C1124   1.459   .     S
C1120  C1135   1.391   .     A
H1121  C1135   1.083   .     S
H1122  C1132   1.084   .     S
H1123  C535    1.084   1_556 S
C1124  C1135   1.399   .     A
C1124  C1134   1.393   .     A
C1125  C1126   1.386   .     A
C1125  H1138   1.083   .     S
C1125  C1136   1.402   .     A
C1126  C542    1.390   1_556 S
C1126  H555    1.083   1_556 S
C1127  H1139   1.075   .     S
C1128  C1129   1.419   .     A
C1128  C542    1.419   1_556 S
C1128  C545    1.424   1_556 S
C1129  C1136   1.419   .     A
C1129  C1133   1.412   .     A
C1130  C1134   1.403   .     A
C1131  C1132   1.391   .     A
C1131  C535    1.403   1_556 S
C1131  C545    1.422   1_556 S
C1132  C1133   1.385   .     A
C1133  H1141   1.080   .     S
C1134  H1137   1.076   .     S
C1142  H1143   1.083   .     S
C1142  C1151   1.400   .     A
C1142  C754    1.384   1_565 S
C1144  C1146   1.402   .     A
C1144  H1145   1.083   .     S
C1146  C1147   1.400   .     A
C1147  H1148   1.083   .     S
C1149  H1150   1.083   .     S
C1149  C1151   1.402   .     A
C1149  C757    1.383   1_565 S
C1152  H1153   1.082   .     S
C1152  N1160   1.369   .     A
C1152  C1024   1.419   1_655 S
C1154  H1155   1.082   .     S
C1154  N1156   1.366   .     A
N1156  C1157   1.399   .     A
C1157  C1161   1.522   .     S
C1158  H1159   1.080   .     S
C1158  N1160   1.347   .     A
C1158  C1027   1.415   1_655 S
C1161  H1169   1.087   .     S
C1161  H1170   1.113   .     S
C1161  C1162   1.548   .     S
C1162  H1168   1.109   .     S
C1162  H1167   1.112   .     S
C1162  C1163   1.529   .     S
C1163  H1166   1.111   .     S
C1163  H1164   1.111   .     S
C1163  H1165   1.109   .     S
