data_str_m3_o1_o17_pcu_sym.209
_audit_creation_date              2020-01-03
_audit_creation_method            'Materials Studio'
_symmetry_space_group_name_H-M    'P1'
_symmetry_Int_Tables_number       1
_symmetry_cell_setting            triclinic
loop_
_symmetry_equiv_pos_as_xyz
  x,y,z
_cell_length_a                    32.6762
_cell_length_b                    29.9375
_cell_length_c                    29.9189
_cell_angle_alpha                 88.4882
_cell_angle_beta                  92.3833
_cell_angle_gamma                 87.5217
loop_
_atom_site_label
_atom_site_type_symbol
_atom_site_fract_x
_atom_site_fract_y
_atom_site_fract_z
_atom_site_U_iso_or_equiv
_atom_site_adp_type
_atom_site_occupancy
O1     O     0.10559   0.20487   0.24999   0.00000  Uiso   1.00
O2     O     0.22774   0.12846   0.25000   0.00000  Uiso   1.00
O3     O     0.22774   0.20487   0.25000   0.00000  Uiso   1.00
O4     O     0.10559   0.12846   0.24999   0.00000  Uiso   1.00
C5     C     0.08672   0.16747   0.25065   0.00000  Uiso   1.00
C6     C     0.24659   0.16581   0.24925   0.00000  Uiso   1.00
O7     O     0.16666   0.20489   0.18393   0.00000  Uiso   1.00
O8     O     0.16667   0.12844   0.31607   0.00000  Uiso   1.00
O9     O     0.16667   0.20489   0.31607   0.00000  Uiso   1.00
O10    O     0.16666   0.12844   0.18392   0.00000  Uiso   1.00
C11    C     0.16747   0.16678   0.16353   0.00000  Uiso   1.00
C12    C     0.16694   0.16622   0.33638   0.00000  Uiso   1.00
Zn13   Zn    0.16667   0.21771   0.25000   0.00000  Uiso   1.00
Zn14   Zn    0.16667   0.11563   0.25000   0.00000  Uiso   1.00
C15    C     0.20293   0.15141   0.40870   0.00000  Uiso   1.00
C16    C     0.13291   0.17823   0.08979   0.00000  Uiso   1.00
C17    C     0.16671   0.16465   0.38436   0.00000  Uiso   1.00
C18    C     0.16839   0.16496   0.11530   0.00000  Uiso   1.00
C19    C     0.13019   0.17513   0.40552   0.00000  Uiso   1.00
C20    C     0.20048   0.14004   0.09608   0.00000  Uiso   1.00
C21    C     0.12821   0.16563   0.45166   0.00000  Uiso   1.00
C22    C     0.20155   0.13824   0.04883   0.00000  Uiso   1.00
C23    C     0.16481   0.15208   0.47647   0.00000  Uiso   1.00
C24    C     0.16545   0.15204   0.02332   0.00000  Uiso   1.00
C25    C     0.20115   0.14089   0.45458   0.00000  Uiso   1.00
C26    C     0.12976   0.16666   0.04462   0.00000  Uiso   1.00
C27    C     0.09055   0.16731   0.47367   0.00000  Uiso   1.00
C28    C     0.23650   0.12186   0.02627   0.00000  Uiso   1.00
C29    C     0.09155   0.16721   0.02070   0.00000  Uiso   1.00
C30    C     0.23523   0.12071   0.47925   0.00000  Uiso   1.00
C31    C     0.02376   0.13015   0.26948   0.00000  Uiso   1.00
C32    C     0.30953   0.20253   0.22994   0.00000  Uiso   1.00
C33    C     0.31479   0.12775   0.26589   0.00000  Uiso   1.00
C34    C     0.01846   0.20517   0.23392   0.00000  Uiso   1.00
C35    C     0.29085   0.16455   0.24731   0.00000  Uiso   1.00
C36    C     0.04245   0.16850   0.25268   0.00000  Uiso   1.00
C37    C     0.18054   0.02204   0.28682   0.00000  Uiso   1.00
C38    C     0.15292   0.31140   0.21323   0.00000  Uiso   1.00
C39    C     0.15119   0.02568   0.21381   0.00000  Uiso   1.00
C40    C     0.18190   0.30773   0.28631   0.00000  Uiso   1.00
N41    N     0.16667   0.28573   0.25000   0.00000  Uiso   1.00
N42    N     0.16667   0.04760   0.25000   0.00000  Uiso   1.00
N43    N     0.24193   0.15892   0.38957   0.00000  Uiso   1.00
O44    O     0.25014   0.14508   0.35004   0.00000  Uiso   1.00
O45    O     0.26789   0.18389   0.41017   0.00000  Uiso   1.00
N46    N     0.09980   0.20259   0.10978   0.00000  Uiso   1.00
O47    O     0.08293   0.18608   0.14484   0.00000  Uiso   1.00
O48    O     0.08277   0.23796   0.08923   0.00000  Uiso   1.00
C49    C     0.09748   0.20361   0.38134   0.00000  Uiso   1.00
O50    O     0.08184   0.19173   0.34612   0.00000  Uiso   1.00
O51    O     0.08444   0.24406   0.39956   0.00000  Uiso   1.00
H52    H     0.06200   0.26048   0.38037   0.00000  Uiso   1.00
C53    C     0.22969   0.11253   0.12591   0.00000  Uiso   1.00
O54    O     0.23003   0.07172   0.12454   0.00000  Uiso   1.00
O55    O     0.25699   0.13327   0.15488   0.00000  Uiso   1.00
H56    H     0.27658   0.11090   0.17161   0.00000  Uiso   1.00
C57    C     0.05107   0.16238   0.44801   0.00000  Uiso   1.00
O58    O     0.02233   0.18928   0.45203   0.00000  Uiso   1.00
O59    O     0.04767   0.12782   0.41774   0.00000  Uiso   1.00
H60    H     0.02030   0.12916   0.40039   0.00000  Uiso   1.00
C61    C     0.27600   0.11016   0.05045   0.00000  Uiso   1.00
O62    O     0.29361   0.13910   0.07063   0.00000  Uiso   1.00
O63    O     0.29261   0.06631   0.05064   0.00000  Uiso   1.00
H64    H     0.31947   0.06255   0.06880   0.00000  Uiso   1.00
C65    C     0.05430   0.15838   0.04547   0.00000  Uiso   1.00
O66    O     0.02392   0.18359   0.04091   0.00000  Uiso   1.00
O67    O     0.05568   0.12262   0.07665   0.00000  Uiso   1.00
H68    H     0.03137   0.12284   0.09648   0.00000  Uiso   1.00
C69    C     0.26807   0.09546   0.45600   0.00000  Uiso   1.00
O70    O     0.30418   0.10247   0.46394   0.00000  Uiso   1.00
O71    O     0.25725   0.06370   0.42476   0.00000  Uiso   1.00
H72    H     0.28201   0.04856   0.41129   0.00000  Uiso   1.00
N73    N     0.04754   0.09304   0.29024   0.00000  Uiso   1.00
O74    O     0.06982   0.09851   0.32657   0.00000  Uiso   1.00
O75    O     0.04655   0.05359   0.27308   0.00000  Uiso   1.00
N76    N     0.28574   0.23852   0.20724   0.00000  Uiso   1.00
O77    O     0.26423   0.23115   0.17081   0.00000  Uiso   1.00
O78    O     0.28603   0.27878   0.22260   0.00000  Uiso   1.00
N79    N     0.29681   0.08795   0.28228   0.00000  Uiso   1.00
O80    O     0.28252   0.05987   0.25372   0.00000  Uiso   1.00
O81    O     0.30557   0.07391   0.32325   0.00000  Uiso   1.00
N82    N     0.03646   0.24472   0.21702   0.00000  Uiso   1.00
O83    O     0.05035   0.27339   0.24520   0.00000  Uiso   1.00
O84    O     0.02817   0.25787   0.17569   0.00000  Uiso   1.00
C85    C     0.19256   0.04345   0.32846   0.00000  Uiso   1.00
O86    O     0.22593   0.05977   0.33238   0.00000  Uiso   1.00
O87    O     0.16607   0.04355   0.36398   0.00000  Uiso   1.00
H88    H     0.17777   0.05873   0.39124   0.00000  Uiso   1.00
C89    C     0.14075   0.29022   0.17175   0.00000  Uiso   1.00
O90    O     0.10598   0.27784   0.16657   0.00000  Uiso   1.00
O91    O     0.16836   0.28710   0.13737   0.00000  Uiso   1.00
H92    H     0.15611   0.27353   0.10948   0.00000  Uiso   1.00
C93    C     0.12926   0.05100   0.17637   0.00000  Uiso   1.00
O94    O     0.09727   0.07201   0.18279   0.00000  Uiso   1.00
O95    O     0.14419   0.04931   0.13331   0.00000  Uiso   1.00
H96    H     0.12642   0.06781   0.11053   0.00000  Uiso   1.00
C97    C     0.20378   0.28249   0.32367   0.00000  Uiso   1.00
O98    O     0.18920   0.28129   0.36065   0.00000  Uiso   1.00
O99    O     0.24217   0.26202   0.31709   0.00000  Uiso   1.00
H100   H     0.25484   0.24692   0.34535   0.00000  Uiso   1.00
O101   O     0.43892   0.20487   0.24999   0.00000  Uiso   1.00
O102   O     0.56108   0.12846   0.25000   0.00000  Uiso   1.00
O103   O     0.56108   0.20487   0.25000   0.00000  Uiso   1.00
O104   O     0.43892   0.12846   0.24999   0.00000  Uiso   1.00
C105   C     0.42006   0.16747   0.25065   0.00000  Uiso   1.00
C106   C     0.57992   0.16581   0.24925   0.00000  Uiso   1.00
O107   O     0.49999   0.20489   0.18393   0.00000  Uiso   1.00
O108   O     0.50001   0.12844   0.31607   0.00000  Uiso   1.00
O109   O     0.50001   0.20489   0.31607   0.00000  Uiso   1.00
O110   O     0.49999   0.12844   0.18392   0.00000  Uiso   1.00
C111   C     0.50080   0.16678   0.16353   0.00000  Uiso   1.00
C112   C     0.50027   0.16622   0.33638   0.00000  Uiso   1.00
Zn113  Zn    0.50000   0.21771   0.25000   0.00000  Uiso   1.00
Zn114  Zn    0.50000   0.11563   0.25000   0.00000  Uiso   1.00
C115   C     0.53626   0.15141   0.40870   0.00000  Uiso   1.00
C116   C     0.46624   0.17823   0.08979   0.00000  Uiso   1.00
C117   C     0.50005   0.16465   0.38436   0.00000  Uiso   1.00
C118   C     0.50172   0.16496   0.11530   0.00000  Uiso   1.00
C119   C     0.46353   0.17513   0.40552   0.00000  Uiso   1.00
C120   C     0.53382   0.14004   0.09608   0.00000  Uiso   1.00
C121   C     0.46154   0.16563   0.45166   0.00000  Uiso   1.00
C122   C     0.53488   0.13824   0.04883   0.00000  Uiso   1.00
C123   C     0.49814   0.15208   0.47647   0.00000  Uiso   1.00
C124   C     0.49878   0.15204   0.02332   0.00000  Uiso   1.00
C125   C     0.53448   0.14089   0.45458   0.00000  Uiso   1.00
C126   C     0.46309   0.16666   0.04462   0.00000  Uiso   1.00
C127   C     0.42388   0.16731   0.47367   0.00000  Uiso   1.00
C128   C     0.56984   0.12186   0.02627   0.00000  Uiso   1.00
C129   C     0.42488   0.16721   0.02070   0.00000  Uiso   1.00
C130   C     0.56857   0.12071   0.47925   0.00000  Uiso   1.00
C131   C     0.35709   0.13015   0.26948   0.00000  Uiso   1.00
C132   C     0.64286   0.20253   0.22994   0.00000  Uiso   1.00
C133   C     0.64813   0.12775   0.26589   0.00000  Uiso   1.00
C134   C     0.35179   0.20517   0.23392   0.00000  Uiso   1.00
C135   C     0.62419   0.16455   0.24731   0.00000  Uiso   1.00
C136   C     0.37578   0.16850   0.25268   0.00000  Uiso   1.00
C137   C     0.51387   0.02204   0.28682   0.00000  Uiso   1.00
C138   C     0.48625   0.31140   0.21323   0.00000  Uiso   1.00
C139   C     0.48452   0.02568   0.21381   0.00000  Uiso   1.00
C140   C     0.51523   0.30773   0.28631   0.00000  Uiso   1.00
N141   N     0.50000   0.28573   0.25000   0.00000  Uiso   1.00
N142   N     0.50000   0.04760   0.25000   0.00000  Uiso   1.00
N143   N     0.57526   0.15892   0.38957   0.00000  Uiso   1.00
O144   O     0.58348   0.14508   0.35004   0.00000  Uiso   1.00
O145   O     0.60123   0.18389   0.41017   0.00000  Uiso   1.00
N146   N     0.43314   0.20259   0.10978   0.00000  Uiso   1.00
O147   O     0.41626   0.18608   0.14484   0.00000  Uiso   1.00
O148   O     0.41611   0.23796   0.08923   0.00000  Uiso   1.00
C149   C     0.43082   0.20361   0.38134   0.00000  Uiso   1.00
O150   O     0.41517   0.19173   0.34612   0.00000  Uiso   1.00
O151   O     0.41777   0.24406   0.39956   0.00000  Uiso   1.00
H152   H     0.39533   0.26048   0.38037   0.00000  Uiso   1.00
C153   C     0.56303   0.11253   0.12591   0.00000  Uiso   1.00
O154   O     0.56336   0.07172   0.12454   0.00000  Uiso   1.00
O155   O     0.59033   0.13327   0.15488   0.00000  Uiso   1.00
H156   H     0.60991   0.11090   0.17161   0.00000  Uiso   1.00
C157   C     0.38440   0.16238   0.44801   0.00000  Uiso   1.00
O158   O     0.35566   0.18928   0.45203   0.00000  Uiso   1.00
O159   O     0.38100   0.12782   0.41774   0.00000  Uiso   1.00
H160   H     0.35363   0.12916   0.40039   0.00000  Uiso   1.00
C161   C     0.60933   0.11016   0.05045   0.00000  Uiso   1.00
O162   O     0.62694   0.13910   0.07063   0.00000  Uiso   1.00
O163   O     0.62594   0.06631   0.05064   0.00000  Uiso   1.00
H164   H     0.65280   0.06255   0.06880   0.00000  Uiso   1.00
C165   C     0.38763   0.15838   0.04547   0.00000  Uiso   1.00
O166   O     0.35726   0.18359   0.04091   0.00000  Uiso   1.00
O167   O     0.38902   0.12262   0.07665   0.00000  Uiso   1.00
H168   H     0.36470   0.12284   0.09648   0.00000  Uiso   1.00
C169   C     0.60140   0.09546   0.45600   0.00000  Uiso   1.00
O170   O     0.63752   0.10247   0.46394   0.00000  Uiso   1.00
O171   O     0.59059   0.06370   0.42476   0.00000  Uiso   1.00
H172   H     0.61535   0.04856   0.41129   0.00000  Uiso   1.00
N173   N     0.38087   0.09304   0.29024   0.00000  Uiso   1.00
O174   O     0.40315   0.09851   0.32657   0.00000  Uiso   1.00
O175   O     0.37989   0.05359   0.27308   0.00000  Uiso   1.00
N176   N     0.61907   0.23852   0.20724   0.00000  Uiso   1.00
O177   O     0.59756   0.23115   0.17081   0.00000  Uiso   1.00
O178   O     0.61936   0.27878   0.22260   0.00000  Uiso   1.00
N179   N     0.63014   0.08795   0.28228   0.00000  Uiso   1.00
O180   O     0.61585   0.05987   0.25372   0.00000  Uiso   1.00
O181   O     0.63891   0.07391   0.32325   0.00000  Uiso   1.00
N182   N     0.36979   0.24472   0.21702   0.00000  Uiso   1.00
O183   O     0.38368   0.27339   0.24520   0.00000  Uiso   1.00
O184   O     0.36151   0.25787   0.17569   0.00000  Uiso   1.00
C185   C     0.52589   0.04345   0.32846   0.00000  Uiso   1.00
O186   O     0.55926   0.05977   0.33238   0.00000  Uiso   1.00
O187   O     0.49940   0.04355   0.36398   0.00000  Uiso   1.00
H188   H     0.51110   0.05873   0.39124   0.00000  Uiso   1.00
C189   C     0.47409   0.29022   0.17175   0.00000  Uiso   1.00
O190   O     0.43931   0.27784   0.16657   0.00000  Uiso   1.00
O191   O     0.50170   0.28710   0.13737   0.00000  Uiso   1.00
H192   H     0.48945   0.27353   0.10948   0.00000  Uiso   1.00
C193   C     0.46259   0.05100   0.17637   0.00000  Uiso   1.00
O194   O     0.43061   0.07201   0.18279   0.00000  Uiso   1.00
O195   O     0.47753   0.04931   0.13331   0.00000  Uiso   1.00
H196   H     0.45975   0.06781   0.11053   0.00000  Uiso   1.00
C197   C     0.53712   0.28249   0.32367   0.00000  Uiso   1.00
O198   O     0.52253   0.28129   0.36065   0.00000  Uiso   1.00
O199   O     0.57550   0.26202   0.31709   0.00000  Uiso   1.00
H200   H     0.58817   0.24692   0.34535   0.00000  Uiso   1.00
O201   O     0.77226   0.20487   0.24999   0.00000  Uiso   1.00
O202   O     0.89441   0.12846   0.25000   0.00000  Uiso   1.00
O203   O     0.89441   0.20487   0.25000   0.00000  Uiso   1.00
O204   O     0.77226   0.12846   0.24999   0.00000  Uiso   1.00
C205   C     0.75339   0.16747   0.25065   0.00000  Uiso   1.00
C206   C     0.91325   0.16581   0.24925   0.00000  Uiso   1.00
O207   O     0.83333   0.20489   0.18393   0.00000  Uiso   1.00
O208   O     0.83334   0.12844   0.31607   0.00000  Uiso   1.00
O209   O     0.83334   0.20489   0.31607   0.00000  Uiso   1.00
O210   O     0.83333   0.12844   0.18392   0.00000  Uiso   1.00
C211   C     0.83413   0.16678   0.16353   0.00000  Uiso   1.00
C212   C     0.83361   0.16622   0.33638   0.00000  Uiso   1.00
Zn213  Zn    0.83333   0.21771   0.25000   0.00000  Uiso   1.00
Zn214  Zn    0.83333   0.11563   0.25000   0.00000  Uiso   1.00
C215   C     0.86959   0.15141   0.40870   0.00000  Uiso   1.00
C216   C     0.79957   0.17823   0.08979   0.00000  Uiso   1.00
C217   C     0.83338   0.16465   0.38436   0.00000  Uiso   1.00
C218   C     0.83505   0.16496   0.11530   0.00000  Uiso   1.00
C219   C     0.79686   0.17513   0.40552   0.00000  Uiso   1.00
C220   C     0.86715   0.14004   0.09608   0.00000  Uiso   1.00
C221   C     0.79487   0.16563   0.45166   0.00000  Uiso   1.00
C222   C     0.86821   0.13824   0.04883   0.00000  Uiso   1.00
C223   C     0.83147   0.15208   0.47647   0.00000  Uiso   1.00
C224   C     0.83211   0.15204   0.02332   0.00000  Uiso   1.00
C225   C     0.86782   0.14089   0.45458   0.00000  Uiso   1.00
C226   C     0.79643   0.16666   0.04462   0.00000  Uiso   1.00
C227   C     0.75721   0.16731   0.47367   0.00000  Uiso   1.00
C228   C     0.90317   0.12186   0.02627   0.00000  Uiso   1.00
C229   C     0.75822   0.16721   0.02070   0.00000  Uiso   1.00
C230   C     0.90190   0.12071   0.47925   0.00000  Uiso   1.00
C231   C     0.69043   0.13015   0.26948   0.00000  Uiso   1.00
C232   C     0.97619   0.20253   0.22994   0.00000  Uiso   1.00
C233   C     0.98146   0.12775   0.26589   0.00000  Uiso   1.00
C234   C     0.68513   0.20517   0.23392   0.00000  Uiso   1.00
C235   C     0.95752   0.16455   0.24731   0.00000  Uiso   1.00
C236   C     0.70911   0.16850   0.25268   0.00000  Uiso   1.00
C237   C     0.84721   0.02204   0.28682   0.00000  Uiso   1.00
C238   C     0.81959   0.31140   0.21323   0.00000  Uiso   1.00
C239   C     0.81785   0.02568   0.21381   0.00000  Uiso   1.00
C240   C     0.84856   0.30773   0.28631   0.00000  Uiso   1.00
N241   N     0.83333   0.28573   0.25000   0.00000  Uiso   1.00
N242   N     0.83333   0.04760   0.25000   0.00000  Uiso   1.00
N243   N     0.90860   0.15892   0.38957   0.00000  Uiso   1.00
O244   O     0.91681   0.14508   0.35004   0.00000  Uiso   1.00
O245   O     0.93456   0.18389   0.41017   0.00000  Uiso   1.00
N246   N     0.76647   0.20259   0.10978   0.00000  Uiso   1.00
O247   O     0.74959   0.18608   0.14484   0.00000  Uiso   1.00
O248   O     0.74944   0.23796   0.08923   0.00000  Uiso   1.00
C249   C     0.76415   0.20361   0.38134   0.00000  Uiso   1.00
O250   O     0.74851   0.19173   0.34612   0.00000  Uiso   1.00
O251   O     0.75111   0.24406   0.39956   0.00000  Uiso   1.00
H252   H     0.72866   0.26048   0.38037   0.00000  Uiso   1.00
C253   C     0.89636   0.11253   0.12591   0.00000  Uiso   1.00
O254   O     0.89669   0.07172   0.12454   0.00000  Uiso   1.00
O255   O     0.92366   0.13327   0.15488   0.00000  Uiso   1.00
H256   H     0.94324   0.11090   0.17161   0.00000  Uiso   1.00
C257   C     0.71773   0.16238   0.44801   0.00000  Uiso   1.00
O258   O     0.68899   0.18928   0.45203   0.00000  Uiso   1.00
O259   O     0.71434   0.12782   0.41774   0.00000  Uiso   1.00
H260   H     0.68696   0.12916   0.40039   0.00000  Uiso   1.00
C261   C     0.94266   0.11016   0.05045   0.00000  Uiso   1.00
O262   O     0.96027   0.13910   0.07063   0.00000  Uiso   1.00
O263   O     0.95927   0.06631   0.05064   0.00000  Uiso   1.00
H264   H     0.98614   0.06255   0.06880   0.00000  Uiso   1.00
C265   C     0.72096   0.15838   0.04547   0.00000  Uiso   1.00
O266   O     0.69059   0.18359   0.04091   0.00000  Uiso   1.00
O267   O     0.72235   0.12262   0.07665   0.00000  Uiso   1.00
H268   H     0.69804   0.12284   0.09648   0.00000  Uiso   1.00
C269   C     0.93473   0.09546   0.45600   0.00000  Uiso   1.00
O270   O     0.97085   0.10247   0.46394   0.00000  Uiso   1.00
O271   O     0.92392   0.06370   0.42476   0.00000  Uiso   1.00
H272   H     0.94868   0.04856   0.41129   0.00000  Uiso   1.00
N273   N     0.71420   0.09304   0.29024   0.00000  Uiso   1.00
O274   O     0.73648   0.09851   0.32657   0.00000  Uiso   1.00
O275   O     0.71322   0.05359   0.27308   0.00000  Uiso   1.00
N276   N     0.95241   0.23852   0.20724   0.00000  Uiso   1.00
O277   O     0.93089   0.23115   0.17081   0.00000  Uiso   1.00
O278   O     0.95270   0.27878   0.22260   0.00000  Uiso   1.00
N279   N     0.96348   0.08795   0.28228   0.00000  Uiso   1.00
O280   O     0.94918   0.05987   0.25372   0.00000  Uiso   1.00
O281   O     0.97224   0.07391   0.32325   0.00000  Uiso   1.00
N282   N     0.70313   0.24472   0.21702   0.00000  Uiso   1.00
O283   O     0.71701   0.27339   0.24520   0.00000  Uiso   1.00
O284   O     0.69484   0.25787   0.17569   0.00000  Uiso   1.00
C285   C     0.85922   0.04345   0.32846   0.00000  Uiso   1.00
O286   O     0.89259   0.05977   0.33238   0.00000  Uiso   1.00
O287   O     0.83274   0.04355   0.36398   0.00000  Uiso   1.00
H288   H     0.84443   0.05873   0.39124   0.00000  Uiso   1.00
C289   C     0.80742   0.29022   0.17175   0.00000  Uiso   1.00
O290   O     0.77264   0.27784   0.16657   0.00000  Uiso   1.00
O291   O     0.83503   0.28710   0.13737   0.00000  Uiso   1.00
H292   H     0.82278   0.27353   0.10948   0.00000  Uiso   1.00
C293   C     0.79593   0.05100   0.17637   0.00000  Uiso   1.00
O294   O     0.76394   0.07201   0.18279   0.00000  Uiso   1.00
O295   O     0.81086   0.04931   0.13331   0.00000  Uiso   1.00
H296   H     0.79309   0.06781   0.11053   0.00000  Uiso   1.00
C297   C     0.87045   0.28249   0.32367   0.00000  Uiso   1.00
O298   O     0.85586   0.28129   0.36065   0.00000  Uiso   1.00
O299   O     0.90883   0.26202   0.31709   0.00000  Uiso   1.00
H300   H     0.92151   0.24692   0.34535   0.00000  Uiso   1.00
O301   O     0.10559   0.53821   0.24999   0.00000  Uiso   1.00
O302   O     0.22774   0.46179   0.25000   0.00000  Uiso   1.00
O303   O     0.22774   0.53821   0.25000   0.00000  Uiso   1.00
O304   O     0.10559   0.46179   0.24999   0.00000  Uiso   1.00
C305   C     0.08672   0.50080   0.25065   0.00000  Uiso   1.00
C306   C     0.24659   0.49915   0.24925   0.00000  Uiso   1.00
O307   O     0.16666   0.53823   0.18393   0.00000  Uiso   1.00
O308   O     0.16667   0.46177   0.31607   0.00000  Uiso   1.00
O309   O     0.16667   0.53823   0.31607   0.00000  Uiso   1.00
O310   O     0.16666   0.46177   0.18392   0.00000  Uiso   1.00
C311   C     0.16747   0.50011   0.16353   0.00000  Uiso   1.00
C312   C     0.16694   0.49955   0.33638   0.00000  Uiso   1.00
Zn313  Zn    0.16667   0.55104   0.25000   0.00000  Uiso   1.00
Zn314  Zn    0.16667   0.44896   0.25000   0.00000  Uiso   1.00
C315   C     0.20293   0.48475   0.40870   0.00000  Uiso   1.00
C316   C     0.13291   0.51157   0.08979   0.00000  Uiso   1.00
C317   C     0.16671   0.49798   0.38436   0.00000  Uiso   1.00
C318   C     0.16839   0.49830   0.11530   0.00000  Uiso   1.00
C319   C     0.13019   0.50846   0.40552   0.00000  Uiso   1.00
C320   C     0.20048   0.47338   0.09608   0.00000  Uiso   1.00
C321   C     0.12821   0.49897   0.45166   0.00000  Uiso   1.00
C322   C     0.20155   0.47157   0.04883   0.00000  Uiso   1.00
C323   C     0.16481   0.48541   0.47647   0.00000  Uiso   1.00
C324   C     0.16545   0.48538   0.02332   0.00000  Uiso   1.00
C325   C     0.20115   0.47422   0.45458   0.00000  Uiso   1.00
C326   C     0.12976   0.49999   0.04462   0.00000  Uiso   1.00
C327   C     0.09055   0.50064   0.47367   0.00000  Uiso   1.00
C328   C     0.23650   0.45519   0.02627   0.00000  Uiso   1.00
C329   C     0.09155   0.50054   0.02070   0.00000  Uiso   1.00
C330   C     0.23523   0.45404   0.47925   0.00000  Uiso   1.00
C331   C     0.02376   0.46349   0.26948   0.00000  Uiso   1.00
C332   C     0.30953   0.53587   0.22994   0.00000  Uiso   1.00
C333   C     0.31479   0.46108   0.26589   0.00000  Uiso   1.00
C334   C     0.01846   0.53851   0.23392   0.00000  Uiso   1.00
C335   C     0.29085   0.49788   0.24731   0.00000  Uiso   1.00
C336   C     0.04245   0.50184   0.25268   0.00000  Uiso   1.00
C337   C     0.18054   0.35538   0.28682   0.00000  Uiso   1.00
C338   C     0.15292   0.64473   0.21323   0.00000  Uiso   1.00
C339   C     0.15119   0.35902   0.21381   0.00000  Uiso   1.00
C340   C     0.18190   0.64106   0.28631   0.00000  Uiso   1.00
N341   N     0.16667   0.61907   0.25000   0.00000  Uiso   1.00
N342   N     0.16667   0.38093   0.25000   0.00000  Uiso   1.00
N343   N     0.24193   0.49225   0.38957   0.00000  Uiso   1.00
O344   O     0.25014   0.47841   0.35004   0.00000  Uiso   1.00
O345   O     0.26789   0.51722   0.41017   0.00000  Uiso   1.00
N346   N     0.09980   0.53592   0.10978   0.00000  Uiso   1.00
O347   O     0.08293   0.51941   0.14484   0.00000  Uiso   1.00
O348   O     0.08277   0.57129   0.08923   0.00000  Uiso   1.00
C349   C     0.09748   0.53695   0.38134   0.00000  Uiso   1.00
O350   O     0.08184   0.52506   0.34612   0.00000  Uiso   1.00
O351   O     0.08444   0.57740   0.39956   0.00000  Uiso   1.00
H352   H     0.06200   0.59382   0.38037   0.00000  Uiso   1.00
C353   C     0.22969   0.44586   0.12591   0.00000  Uiso   1.00
O354   O     0.23003   0.40505   0.12454   0.00000  Uiso   1.00
O355   O     0.25699   0.46660   0.15488   0.00000  Uiso   1.00
H356   H     0.27658   0.44424   0.17161   0.00000  Uiso   1.00
C357   C     0.05107   0.49571   0.44801   0.00000  Uiso   1.00
O358   O     0.02233   0.52261   0.45203   0.00000  Uiso   1.00
O359   O     0.04767   0.46115   0.41774   0.00000  Uiso   1.00
H360   H     0.02030   0.46250   0.40039   0.00000  Uiso   1.00
C361   C     0.27600   0.44350   0.05045   0.00000  Uiso   1.00
O362   O     0.29361   0.47244   0.07063   0.00000  Uiso   1.00
O363   O     0.29261   0.39965   0.05064   0.00000  Uiso   1.00
H364   H     0.31947   0.39588   0.06880   0.00000  Uiso   1.00
C365   C     0.05430   0.49172   0.04547   0.00000  Uiso   1.00
O366   O     0.02392   0.51692   0.04091   0.00000  Uiso   1.00
O367   O     0.05568   0.45595   0.07665   0.00000  Uiso   1.00
H368   H     0.03137   0.45618   0.09648   0.00000  Uiso   1.00
C369   C     0.26807   0.42879   0.45600   0.00000  Uiso   1.00
O370   O     0.30418   0.43581   0.46394   0.00000  Uiso   1.00
O371   O     0.25725   0.39704   0.42476   0.00000  Uiso   1.00
H372   H     0.28201   0.38190   0.41129   0.00000  Uiso   1.00
N373   N     0.04754   0.42638   0.29024   0.00000  Uiso   1.00
O374   O     0.06982   0.43184   0.32657   0.00000  Uiso   1.00
O375   O     0.04655   0.38692   0.27308   0.00000  Uiso   1.00
N376   N     0.28574   0.57185   0.20724   0.00000  Uiso   1.00
O377   O     0.26423   0.56448   0.17081   0.00000  Uiso   1.00
O378   O     0.28603   0.61211   0.22260   0.00000  Uiso   1.00
N379   N     0.29681   0.42128   0.28228   0.00000  Uiso   1.00
O380   O     0.28252   0.39320   0.25372   0.00000  Uiso   1.00
O381   O     0.30557   0.40725   0.32325   0.00000  Uiso   1.00
N382   N     0.03646   0.57805   0.21702   0.00000  Uiso   1.00
O383   O     0.05035   0.60672   0.24520   0.00000  Uiso   1.00
O384   O     0.02817   0.59120   0.17569   0.00000  Uiso   1.00
C385   C     0.19256   0.37679   0.32846   0.00000  Uiso   1.00
O386   O     0.22593   0.39311   0.33238   0.00000  Uiso   1.00
O387   O     0.16607   0.37689   0.36398   0.00000  Uiso   1.00
H388   H     0.17777   0.39206   0.39124   0.00000  Uiso   1.00
C389   C     0.14075   0.62356   0.17175   0.00000  Uiso   1.00
O390   O     0.10598   0.61118   0.16657   0.00000  Uiso   1.00
O391   O     0.16836   0.62043   0.13737   0.00000  Uiso   1.00
H392   H     0.15611   0.60687   0.10948   0.00000  Uiso   1.00
C393   C     0.12926   0.38434   0.17637   0.00000  Uiso   1.00
O394   O     0.09727   0.40535   0.18279   0.00000  Uiso   1.00
O395   O     0.14419   0.38265   0.13331   0.00000  Uiso   1.00
H396   H     0.12642   0.40115   0.11053   0.00000  Uiso   1.00
C397   C     0.20378   0.61583   0.32367   0.00000  Uiso   1.00
O398   O     0.18920   0.61462   0.36065   0.00000  Uiso   1.00
O399   O     0.24217   0.59535   0.31709   0.00000  Uiso   1.00
H400   H     0.25484   0.58025   0.34535   0.00000  Uiso   1.00
O401   O     0.43892   0.53821   0.24999   0.00000  Uiso   1.00
O402   O     0.56108   0.46179   0.25000   0.00000  Uiso   1.00
O403   O     0.56108   0.53821   0.25000   0.00000  Uiso   1.00
O404   O     0.43892   0.46179   0.24999   0.00000  Uiso   1.00
C405   C     0.42006   0.50080   0.25065   0.00000  Uiso   1.00
C406   C     0.57992   0.49915   0.24925   0.00000  Uiso   1.00
O407   O     0.49999   0.53823   0.18393   0.00000  Uiso   1.00
O408   O     0.50001   0.46177   0.31607   0.00000  Uiso   1.00
O409   O     0.50001   0.53823   0.31607   0.00000  Uiso   1.00
O410   O     0.49999   0.46177   0.18392   0.00000  Uiso   1.00
C411   C     0.50080   0.50011   0.16353   0.00000  Uiso   1.00
C412   C     0.50027   0.49955   0.33638   0.00000  Uiso   1.00
Zn413  Zn    0.50000   0.55104   0.25000   0.00000  Uiso   1.00
Zn414  Zn    0.50000   0.44896   0.25000   0.00000  Uiso   1.00
C415   C     0.53626   0.48475   0.40870   0.00000  Uiso   1.00
C416   C     0.46624   0.51157   0.08979   0.00000  Uiso   1.00
C417   C     0.50005   0.49798   0.38436   0.00000  Uiso   1.00
C418   C     0.50172   0.49830   0.11530   0.00000  Uiso   1.00
C419   C     0.46353   0.50846   0.40552   0.00000  Uiso   1.00
C420   C     0.53382   0.47338   0.09608   0.00000  Uiso   1.00
C421   C     0.46154   0.49897   0.45166   0.00000  Uiso   1.00
C422   C     0.53488   0.47157   0.04883   0.00000  Uiso   1.00
C423   C     0.49814   0.48541   0.47647   0.00000  Uiso   1.00
C424   C     0.49878   0.48538   0.02332   0.00000  Uiso   1.00
C425   C     0.53448   0.47422   0.45458   0.00000  Uiso   1.00
C426   C     0.46309   0.49999   0.04462   0.00000  Uiso   1.00
C427   C     0.42388   0.50064   0.47367   0.00000  Uiso   1.00
C428   C     0.56984   0.45519   0.02627   0.00000  Uiso   1.00
C429   C     0.42488   0.50054   0.02070   0.00000  Uiso   1.00
C430   C     0.56857   0.45404   0.47925   0.00000  Uiso   1.00
C431   C     0.35709   0.46349   0.26948   0.00000  Uiso   1.00
C432   C     0.64286   0.53587   0.22994   0.00000  Uiso   1.00
C433   C     0.64813   0.46108   0.26589   0.00000  Uiso   1.00
C434   C     0.35179   0.53851   0.23392   0.00000  Uiso   1.00
C435   C     0.62419   0.49788   0.24731   0.00000  Uiso   1.00
C436   C     0.37578   0.50184   0.25268   0.00000  Uiso   1.00
C437   C     0.51387   0.35538   0.28682   0.00000  Uiso   1.00
C438   C     0.48625   0.64473   0.21323   0.00000  Uiso   1.00
C439   C     0.48452   0.35902   0.21381   0.00000  Uiso   1.00
C440   C     0.51523   0.64106   0.28631   0.00000  Uiso   1.00
N441   N     0.50000   0.61907   0.25000   0.00000  Uiso   1.00
N442   N     0.50000   0.38093   0.25000   0.00000  Uiso   1.00
N443   N     0.57526   0.49225   0.38957   0.00000  Uiso   1.00
O444   O     0.58348   0.47841   0.35004   0.00000  Uiso   1.00
O445   O     0.60123   0.51722   0.41017   0.00000  Uiso   1.00
N446   N     0.43314   0.53592   0.10978   0.00000  Uiso   1.00
O447   O     0.41626   0.51941   0.14484   0.00000  Uiso   1.00
O448   O     0.41611   0.57129   0.08923   0.00000  Uiso   1.00
C449   C     0.43082   0.53695   0.38134   0.00000  Uiso   1.00
O450   O     0.41517   0.52506   0.34612   0.00000  Uiso   1.00
O451   O     0.41777   0.57740   0.39956   0.00000  Uiso   1.00
H452   H     0.39533   0.59382   0.38037   0.00000  Uiso   1.00
C453   C     0.56303   0.44586   0.12591   0.00000  Uiso   1.00
O454   O     0.56336   0.40505   0.12454   0.00000  Uiso   1.00
O455   O     0.59033   0.46660   0.15488   0.00000  Uiso   1.00
H456   H     0.60991   0.44424   0.17161   0.00000  Uiso   1.00
C457   C     0.38440   0.49571   0.44801   0.00000  Uiso   1.00
O458   O     0.35566   0.52261   0.45203   0.00000  Uiso   1.00
O459   O     0.38100   0.46115   0.41774   0.00000  Uiso   1.00
H460   H     0.35363   0.46250   0.40039   0.00000  Uiso   1.00
C461   C     0.60933   0.44350   0.05045   0.00000  Uiso   1.00
O462   O     0.62694   0.47244   0.07063   0.00000  Uiso   1.00
O463   O     0.62594   0.39965   0.05064   0.00000  Uiso   1.00
H464   H     0.65280   0.39588   0.06880   0.00000  Uiso   1.00
C465   C     0.38763   0.49172   0.04547   0.00000  Uiso   1.00
O466   O     0.35726   0.51692   0.04091   0.00000  Uiso   1.00
O467   O     0.38902   0.45595   0.07665   0.00000  Uiso   1.00
H468   H     0.36470   0.45618   0.09648   0.00000  Uiso   1.00
C469   C     0.60140   0.42879   0.45600   0.00000  Uiso   1.00
O470   O     0.63752   0.43581   0.46394   0.00000  Uiso   1.00
O471   O     0.59059   0.39704   0.42476   0.00000  Uiso   1.00
H472   H     0.61535   0.38190   0.41129   0.00000  Uiso   1.00
N473   N     0.38087   0.42638   0.29024   0.00000  Uiso   1.00
O474   O     0.40315   0.43184   0.32657   0.00000  Uiso   1.00
O475   O     0.37989   0.38692   0.27308   0.00000  Uiso   1.00
N476   N     0.61907   0.57185   0.20724   0.00000  Uiso   1.00
O477   O     0.59756   0.56448   0.17081   0.00000  Uiso   1.00
O478   O     0.61936   0.61211   0.22260   0.00000  Uiso   1.00
N479   N     0.63014   0.42128   0.28228   0.00000  Uiso   1.00
O480   O     0.61585   0.39320   0.25372   0.00000  Uiso   1.00
O481   O     0.63891   0.40725   0.32325   0.00000  Uiso   1.00
N482   N     0.36979   0.57805   0.21702   0.00000  Uiso   1.00
O483   O     0.38368   0.60672   0.24520   0.00000  Uiso   1.00
O484   O     0.36151   0.59120   0.17569   0.00000  Uiso   1.00
C485   C     0.52589   0.37679   0.32846   0.00000  Uiso   1.00
O486   O     0.55926   0.39311   0.33238   0.00000  Uiso   1.00
O487   O     0.49940   0.37689   0.36398   0.00000  Uiso   1.00
H488   H     0.51110   0.39206   0.39124   0.00000  Uiso   1.00
C489   C     0.47409   0.62356   0.17175   0.00000  Uiso   1.00
O490   O     0.43931   0.61118   0.16657   0.00000  Uiso   1.00
O491   O     0.50170   0.62043   0.13737   0.00000  Uiso   1.00
H492   H     0.48945   0.60687   0.10948   0.00000  Uiso   1.00
C493   C     0.46259   0.38434   0.17637   0.00000  Uiso   1.00
O494   O     0.43061   0.40535   0.18279   0.00000  Uiso   1.00
O495   O     0.47753   0.38265   0.13331   0.00000  Uiso   1.00
H496   H     0.45975   0.40115   0.11053   0.00000  Uiso   1.00
C497   C     0.53712   0.61583   0.32367   0.00000  Uiso   1.00
O498   O     0.52253   0.61462   0.36065   0.00000  Uiso   1.00
O499   O     0.57550   0.59535   0.31709   0.00000  Uiso   1.00
H500   H     0.58817   0.58025   0.34535   0.00000  Uiso   1.00
O501   O     0.77226   0.53821   0.24999   0.00000  Uiso   1.00
O502   O     0.89441   0.46179   0.25000   0.00000  Uiso   1.00
O503   O     0.89441   0.53821   0.25000   0.00000  Uiso   1.00
O504   O     0.77226   0.46179   0.24999   0.00000  Uiso   1.00
C505   C     0.75339   0.50080   0.25065   0.00000  Uiso   1.00
C506   C     0.91325   0.49915   0.24925   0.00000  Uiso   1.00
O507   O     0.83333   0.53823   0.18393   0.00000  Uiso   1.00
O508   O     0.83334   0.46177   0.31607   0.00000  Uiso   1.00
O509   O     0.83334   0.53823   0.31607   0.00000  Uiso   1.00
O510   O     0.83333   0.46177   0.18392   0.00000  Uiso   1.00
C511   C     0.83413   0.50011   0.16353   0.00000  Uiso   1.00
C512   C     0.83361   0.49955   0.33638   0.00000  Uiso   1.00
Zn513  Zn    0.83333   0.55104   0.25000   0.00000  Uiso   1.00
Zn514  Zn    0.83333   0.44896   0.25000   0.00000  Uiso   1.00
C515   C     0.86959   0.48475   0.40870   0.00000  Uiso   1.00
C516   C     0.79957   0.51157   0.08979   0.00000  Uiso   1.00
C517   C     0.83338   0.49798   0.38436   0.00000  Uiso   1.00
C518   C     0.83505   0.49830   0.11530   0.00000  Uiso   1.00
C519   C     0.79686   0.50846   0.40552   0.00000  Uiso   1.00
C520   C     0.86715   0.47338   0.09608   0.00000  Uiso   1.00
C521   C     0.79487   0.49897   0.45166   0.00000  Uiso   1.00
C522   C     0.86821   0.47157   0.04883   0.00000  Uiso   1.00
C523   C     0.83147   0.48541   0.47647   0.00000  Uiso   1.00
C524   C     0.83211   0.48538   0.02332   0.00000  Uiso   1.00
C525   C     0.86782   0.47422   0.45458   0.00000  Uiso   1.00
C526   C     0.79643   0.49999   0.04462   0.00000  Uiso   1.00
C527   C     0.75721   0.50064   0.47367   0.00000  Uiso   1.00
C528   C     0.90317   0.45519   0.02627   0.00000  Uiso   1.00
C529   C     0.75822   0.50054   0.02070   0.00000  Uiso   1.00
C530   C     0.90190   0.45404   0.47925   0.00000  Uiso   1.00
C531   C     0.69043   0.46349   0.26948   0.00000  Uiso   1.00
C532   C     0.97619   0.53587   0.22994   0.00000  Uiso   1.00
C533   C     0.98146   0.46108   0.26589   0.00000  Uiso   1.00
C534   C     0.68513   0.53851   0.23392   0.00000  Uiso   1.00
C535   C     0.95752   0.49788   0.24731   0.00000  Uiso   1.00
C536   C     0.70911   0.50184   0.25268   0.00000  Uiso   1.00
C537   C     0.84721   0.35538   0.28682   0.00000  Uiso   1.00
C538   C     0.81959   0.64473   0.21323   0.00000  Uiso   1.00
C539   C     0.81785   0.35902   0.21381   0.00000  Uiso   1.00
C540   C     0.84856   0.64106   0.28631   0.00000  Uiso   1.00
N541   N     0.83333   0.61907   0.25000   0.00000  Uiso   1.00
N542   N     0.83333   0.38093   0.25000   0.00000  Uiso   1.00
N543   N     0.90860   0.49225   0.38957   0.00000  Uiso   1.00
O544   O     0.91681   0.47841   0.35004   0.00000  Uiso   1.00
O545   O     0.93456   0.51722   0.41017   0.00000  Uiso   1.00
N546   N     0.76647   0.53592   0.10978   0.00000  Uiso   1.00
O547   O     0.74959   0.51941   0.14484   0.00000  Uiso   1.00
O548   O     0.74944   0.57129   0.08923   0.00000  Uiso   1.00
C549   C     0.76415   0.53695   0.38134   0.00000  Uiso   1.00
O550   O     0.74851   0.52506   0.34612   0.00000  Uiso   1.00
O551   O     0.75111   0.57740   0.39956   0.00000  Uiso   1.00
H552   H     0.72866   0.59382   0.38037   0.00000  Uiso   1.00
C553   C     0.89636   0.44586   0.12591   0.00000  Uiso   1.00
O554   O     0.89669   0.40505   0.12454   0.00000  Uiso   1.00
O555   O     0.92366   0.46660   0.15488   0.00000  Uiso   1.00
H556   H     0.94324   0.44424   0.17161   0.00000  Uiso   1.00
C557   C     0.71773   0.49571   0.44801   0.00000  Uiso   1.00
O558   O     0.68899   0.52261   0.45203   0.00000  Uiso   1.00
O559   O     0.71434   0.46115   0.41774   0.00000  Uiso   1.00
H560   H     0.68696   0.46250   0.40039   0.00000  Uiso   1.00
C561   C     0.94266   0.44350   0.05045   0.00000  Uiso   1.00
O562   O     0.96027   0.47244   0.07063   0.00000  Uiso   1.00
O563   O     0.95927   0.39965   0.05064   0.00000  Uiso   1.00
H564   H     0.98614   0.39588   0.06880   0.00000  Uiso   1.00
C565   C     0.72096   0.49172   0.04547   0.00000  Uiso   1.00
O566   O     0.69059   0.51692   0.04091   0.00000  Uiso   1.00
O567   O     0.72235   0.45595   0.07665   0.00000  Uiso   1.00
H568   H     0.69804   0.45618   0.09648   0.00000  Uiso   1.00
C569   C     0.93473   0.42879   0.45600   0.00000  Uiso   1.00
O570   O     0.97085   0.43581   0.46394   0.00000  Uiso   1.00
O571   O     0.92392   0.39704   0.42476   0.00000  Uiso   1.00
H572   H     0.94868   0.38190   0.41129   0.00000  Uiso   1.00
N573   N     0.71420   0.42638   0.29024   0.00000  Uiso   1.00
O574   O     0.73648   0.43184   0.32657   0.00000  Uiso   1.00
O575   O     0.71322   0.38692   0.27308   0.00000  Uiso   1.00
N576   N     0.95241   0.57185   0.20724   0.00000  Uiso   1.00
O577   O     0.93089   0.56448   0.17081   0.00000  Uiso   1.00
O578   O     0.95270   0.61211   0.22260   0.00000  Uiso   1.00
N579   N     0.96348   0.42128   0.28228   0.00000  Uiso   1.00
O580   O     0.94918   0.39320   0.25372   0.00000  Uiso   1.00
O581   O     0.97224   0.40725   0.32325   0.00000  Uiso   1.00
N582   N     0.70313   0.57805   0.21702   0.00000  Uiso   1.00
O583   O     0.71701   0.60672   0.24520   0.00000  Uiso   1.00
O584   O     0.69484   0.59120   0.17569   0.00000  Uiso   1.00
C585   C     0.85922   0.37679   0.32846   0.00000  Uiso   1.00
O586   O     0.89259   0.39311   0.33238   0.00000  Uiso   1.00
O587   O     0.83274   0.37689   0.36398   0.00000  Uiso   1.00
H588   H     0.84443   0.39206   0.39124   0.00000  Uiso   1.00
C589   C     0.80742   0.62356   0.17175   0.00000  Uiso   1.00
O590   O     0.77264   0.61118   0.16657   0.00000  Uiso   1.00
O591   O     0.83503   0.62043   0.13737   0.00000  Uiso   1.00
H592   H     0.82278   0.60687   0.10948   0.00000  Uiso   1.00
C593   C     0.79593   0.38434   0.17637   0.00000  Uiso   1.00
O594   O     0.76394   0.40535   0.18279   0.00000  Uiso   1.00
O595   O     0.81086   0.38265   0.13331   0.00000  Uiso   1.00
H596   H     0.79309   0.40115   0.11053   0.00000  Uiso   1.00
C597   C     0.87045   0.61583   0.32367   0.00000  Uiso   1.00
O598   O     0.85586   0.61462   0.36065   0.00000  Uiso   1.00
O599   O     0.90883   0.59535   0.31709   0.00000  Uiso   1.00
H600   H     0.92151   0.58025   0.34535   0.00000  Uiso   1.00
O601   O     0.10559   0.87154   0.24999   0.00000  Uiso   1.00
O602   O     0.22774   0.79513   0.25000   0.00000  Uiso   1.00
O603   O     0.22774   0.87154   0.25000   0.00000  Uiso   1.00
O604   O     0.10559   0.79513   0.24999   0.00000  Uiso   1.00
C605   C     0.08672   0.83413   0.25065   0.00000  Uiso   1.00
C606   C     0.24659   0.83248   0.24925   0.00000  Uiso   1.00
O607   O     0.16666   0.87156   0.18393   0.00000  Uiso   1.00
O608   O     0.16667   0.79511   0.31607   0.00000  Uiso   1.00
O609   O     0.16667   0.87156   0.31607   0.00000  Uiso   1.00
O610   O     0.16666   0.79511   0.18392   0.00000  Uiso   1.00
C611   C     0.16747   0.83345   0.16353   0.00000  Uiso   1.00
C612   C     0.16694   0.83289   0.33638   0.00000  Uiso   1.00
Zn613  Zn    0.16667   0.88437   0.25000   0.00000  Uiso   1.00
Zn614  Zn    0.16667   0.78229   0.25000   0.00000  Uiso   1.00
C615   C     0.20293   0.81808   0.40870   0.00000  Uiso   1.00
C616   C     0.13291   0.84490   0.08979   0.00000  Uiso   1.00
C617   C     0.16671   0.83132   0.38436   0.00000  Uiso   1.00
C618   C     0.16839   0.83163   0.11530   0.00000  Uiso   1.00
C619   C     0.13019   0.84179   0.40552   0.00000  Uiso   1.00
C620   C     0.20048   0.80671   0.09608   0.00000  Uiso   1.00
C621   C     0.12821   0.83230   0.45166   0.00000  Uiso   1.00
C622   C     0.20155   0.80490   0.04883   0.00000  Uiso   1.00
C623   C     0.16481   0.81874   0.47647   0.00000  Uiso   1.00
C624   C     0.16545   0.81871   0.02332   0.00000  Uiso   1.00
C625   C     0.20115   0.80755   0.45458   0.00000  Uiso   1.00
C626   C     0.12976   0.83332   0.04462   0.00000  Uiso   1.00
C627   C     0.09055   0.83398   0.47367   0.00000  Uiso   1.00
C628   C     0.23650   0.78852   0.02627   0.00000  Uiso   1.00
C629   C     0.09155   0.83387   0.02070   0.00000  Uiso   1.00
C630   C     0.23523   0.78737   0.47925   0.00000  Uiso   1.00
C631   C     0.02376   0.79682   0.26948   0.00000  Uiso   1.00
C632   C     0.30953   0.86920   0.22994   0.00000  Uiso   1.00
C633   C     0.31479   0.79442   0.26589   0.00000  Uiso   1.00
C634   C     0.01846   0.87184   0.23392   0.00000  Uiso   1.00
C635   C     0.29085   0.83122   0.24731   0.00000  Uiso   1.00
C636   C     0.04245   0.83517   0.25268   0.00000  Uiso   1.00
C637   C     0.18054   0.68871   0.28682   0.00000  Uiso   1.00
C638   C     0.15292   0.97807   0.21323   0.00000  Uiso   1.00
C639   C     0.15119   0.69235   0.21381   0.00000  Uiso   1.00
C640   C     0.18190   0.97439   0.28631   0.00000  Uiso   1.00
N641   N     0.16667   0.95240   0.25000   0.00000  Uiso   1.00
N642   N     0.16667   0.71427   0.25000   0.00000  Uiso   1.00
N643   N     0.24193   0.82558   0.38957   0.00000  Uiso   1.00
O644   O     0.25014   0.81174   0.35004   0.00000  Uiso   1.00
O645   O     0.26789   0.85055   0.41017   0.00000  Uiso   1.00
N646   N     0.09980   0.86925   0.10978   0.00000  Uiso   1.00
O647   O     0.08293   0.85274   0.14484   0.00000  Uiso   1.00
O648   O     0.08277   0.90463   0.08923   0.00000  Uiso   1.00
C649   C     0.09748   0.87028   0.38134   0.00000  Uiso   1.00
O650   O     0.08184   0.85839   0.34612   0.00000  Uiso   1.00
O651   O     0.08444   0.91073   0.39956   0.00000  Uiso   1.00
H652   H     0.06200   0.92715   0.38037   0.00000  Uiso   1.00
C653   C     0.22969   0.77919   0.12591   0.00000  Uiso   1.00
O654   O     0.23003   0.73839   0.12454   0.00000  Uiso   1.00
O655   O     0.25699   0.79994   0.15488   0.00000  Uiso   1.00
H656   H     0.27658   0.77757   0.17161   0.00000  Uiso   1.00
C657   C     0.05107   0.82905   0.44801   0.00000  Uiso   1.00
O658   O     0.02233   0.85594   0.45203   0.00000  Uiso   1.00
O659   O     0.04767   0.79449   0.41774   0.00000  Uiso   1.00
H660   H     0.02030   0.79583   0.40039   0.00000  Uiso   1.00
C661   C     0.27600   0.77683   0.05045   0.00000  Uiso   1.00
O662   O     0.29361   0.80577   0.07063   0.00000  Uiso   1.00
O663   O     0.29261   0.73298   0.05064   0.00000  Uiso   1.00
H664   H     0.31947   0.72921   0.06880   0.00000  Uiso   1.00
C665   C     0.05430   0.82505   0.04547   0.00000  Uiso   1.00
O666   O     0.02392   0.85025   0.04091   0.00000  Uiso   1.00
O667   O     0.05568   0.78929   0.07665   0.00000  Uiso   1.00
H668   H     0.03137   0.78951   0.09648   0.00000  Uiso   1.00
C669   C     0.26807   0.76212   0.45600   0.00000  Uiso   1.00
O670   O     0.30418   0.76914   0.46394   0.00000  Uiso   1.00
O671   O     0.25725   0.73037   0.42476   0.00000  Uiso   1.00
H672   H     0.28201   0.71523   0.41129   0.00000  Uiso   1.00
N673   N     0.04754   0.75971   0.29024   0.00000  Uiso   1.00
O674   O     0.06982   0.76518   0.32657   0.00000  Uiso   1.00
O675   O     0.04655   0.72025   0.27308   0.00000  Uiso   1.00
N676   N     0.28574   0.90519   0.20724   0.00000  Uiso   1.00
O677   O     0.26423   0.89782   0.17081   0.00000  Uiso   1.00
O678   O     0.28603   0.94545   0.22260   0.00000  Uiso   1.00
N679   N     0.29681   0.75462   0.28228   0.00000  Uiso   1.00
O680   O     0.28252   0.72654   0.25372   0.00000  Uiso   1.00
O681   O     0.30557   0.74058   0.32325   0.00000  Uiso   1.00
N682   N     0.03646   0.91138   0.21702   0.00000  Uiso   1.00
O683   O     0.05035   0.94006   0.24520   0.00000  Uiso   1.00
O684   O     0.02817   0.92454   0.17569   0.00000  Uiso   1.00
C685   C     0.19256   0.71012   0.32846   0.00000  Uiso   1.00
O686   O     0.22593   0.72644   0.33238   0.00000  Uiso   1.00
O687   O     0.16607   0.71022   0.36398   0.00000  Uiso   1.00
H688   H     0.17777   0.72540   0.39124   0.00000  Uiso   1.00
C689   C     0.14075   0.95689   0.17175   0.00000  Uiso   1.00
O690   O     0.10598   0.94451   0.16657   0.00000  Uiso   1.00
O691   O     0.16836   0.95377   0.13737   0.00000  Uiso   1.00
H692   H     0.15611   0.94020   0.10948   0.00000  Uiso   1.00
C693   C     0.12926   0.71767   0.17637   0.00000  Uiso   1.00
O694   O     0.09727   0.73868   0.18279   0.00000  Uiso   1.00
O695   O     0.14419   0.71598   0.13331   0.00000  Uiso   1.00
H696   H     0.12642   0.73448   0.11053   0.00000  Uiso   1.00
C697   C     0.20378   0.94916   0.32367   0.00000  Uiso   1.00
O698   O     0.18920   0.94796   0.36065   0.00000  Uiso   1.00
O699   O     0.24217   0.92868   0.31709   0.00000  Uiso   1.00
H700   H     0.25484   0.91359   0.34535   0.00000  Uiso   1.00
O701   O     0.43892   0.87154   0.24999   0.00000  Uiso   1.00
O702   O     0.56108   0.79513   0.25000   0.00000  Uiso   1.00
O703   O     0.56108   0.87154   0.25000   0.00000  Uiso   1.00
O704   O     0.43892   0.79513   0.24999   0.00000  Uiso   1.00
C705   C     0.42006   0.83413   0.25065   0.00000  Uiso   1.00
C706   C     0.57992   0.83248   0.24925   0.00000  Uiso   1.00
O707   O     0.49999   0.87156   0.18393   0.00000  Uiso   1.00
O708   O     0.50001   0.79511   0.31607   0.00000  Uiso   1.00
O709   O     0.50001   0.87156   0.31607   0.00000  Uiso   1.00
O710   O     0.49999   0.79511   0.18392   0.00000  Uiso   1.00
C711   C     0.50080   0.83345   0.16353   0.00000  Uiso   1.00
C712   C     0.50027   0.83289   0.33638   0.00000  Uiso   1.00
Zn713  Zn    0.50000   0.88437   0.25000   0.00000  Uiso   1.00
Zn714  Zn    0.50000   0.78229   0.25000   0.00000  Uiso   1.00
C715   C     0.53626   0.81808   0.40870   0.00000  Uiso   1.00
C716   C     0.46624   0.84490   0.08979   0.00000  Uiso   1.00
C717   C     0.50005   0.83132   0.38436   0.00000  Uiso   1.00
C718   C     0.50172   0.83163   0.11530   0.00000  Uiso   1.00
C719   C     0.46353   0.84179   0.40552   0.00000  Uiso   1.00
C720   C     0.53382   0.80671   0.09608   0.00000  Uiso   1.00
C721   C     0.46154   0.83230   0.45166   0.00000  Uiso   1.00
C722   C     0.53488   0.80490   0.04883   0.00000  Uiso   1.00
C723   C     0.49814   0.81874   0.47647   0.00000  Uiso   1.00
C724   C     0.49878   0.81871   0.02332   0.00000  Uiso   1.00
C725   C     0.53448   0.80755   0.45458   0.00000  Uiso   1.00
C726   C     0.46309   0.83332   0.04462   0.00000  Uiso   1.00
C727   C     0.42388   0.83398   0.47367   0.00000  Uiso   1.00
C728   C     0.56984   0.78852   0.02627   0.00000  Uiso   1.00
C729   C     0.42488   0.83387   0.02070   0.00000  Uiso   1.00
C730   C     0.56857   0.78737   0.47925   0.00000  Uiso   1.00
C731   C     0.35709   0.79682   0.26948   0.00000  Uiso   1.00
C732   C     0.64286   0.86920   0.22994   0.00000  Uiso   1.00
C733   C     0.64813   0.79442   0.26589   0.00000  Uiso   1.00
C734   C     0.35179   0.87184   0.23392   0.00000  Uiso   1.00
C735   C     0.62419   0.83122   0.24731   0.00000  Uiso   1.00
C736   C     0.37578   0.83517   0.25268   0.00000  Uiso   1.00
C737   C     0.51387   0.68871   0.28682   0.00000  Uiso   1.00
C738   C     0.48625   0.97807   0.21323   0.00000  Uiso   1.00
C739   C     0.48452   0.69235   0.21381   0.00000  Uiso   1.00
C740   C     0.51523   0.97439   0.28631   0.00000  Uiso   1.00
N741   N     0.50000   0.95240   0.25000   0.00000  Uiso   1.00
N742   N     0.50000   0.71427   0.25000   0.00000  Uiso   1.00
N743   N     0.57526   0.82558   0.38957   0.00000  Uiso   1.00
O744   O     0.58348   0.81174   0.35004   0.00000  Uiso   1.00
O745   O     0.60123   0.85055   0.41017   0.00000  Uiso   1.00
N746   N     0.43314   0.86925   0.10978   0.00000  Uiso   1.00
O747   O     0.41626   0.85274   0.14484   0.00000  Uiso   1.00
O748   O     0.41611   0.90463   0.08923   0.00000  Uiso   1.00
C749   C     0.43082   0.87028   0.38134   0.00000  Uiso   1.00
O750   O     0.41517   0.85839   0.34612   0.00000  Uiso   1.00
O751   O     0.41777   0.91073   0.39956   0.00000  Uiso   1.00
H752   H     0.39533   0.92715   0.38037   0.00000  Uiso   1.00
C753   C     0.56303   0.77919   0.12591   0.00000  Uiso   1.00
O754   O     0.56336   0.73839   0.12454   0.00000  Uiso   1.00
O755   O     0.59033   0.79994   0.15488   0.00000  Uiso   1.00
H756   H     0.60991   0.77757   0.17161   0.00000  Uiso   1.00
C757   C     0.38440   0.82905   0.44801   0.00000  Uiso   1.00
O758   O     0.35566   0.85594   0.45203   0.00000  Uiso   1.00
O759   O     0.38100   0.79449   0.41774   0.00000  Uiso   1.00
H760   H     0.35363   0.79583   0.40039   0.00000  Uiso   1.00
C761   C     0.60933   0.77683   0.05045   0.00000  Uiso   1.00
O762   O     0.62694   0.80577   0.07063   0.00000  Uiso   1.00
O763   O     0.62594   0.73298   0.05064   0.00000  Uiso   1.00
H764   H     0.65280   0.72921   0.06880   0.00000  Uiso   1.00
C765   C     0.38763   0.82505   0.04547   0.00000  Uiso   1.00
O766   O     0.35726   0.85025   0.04091   0.00000  Uiso   1.00
O767   O     0.38902   0.78929   0.07665   0.00000  Uiso   1.00
H768   H     0.36470   0.78951   0.09648   0.00000  Uiso   1.00
C769   C     0.60140   0.76212   0.45600   0.00000  Uiso   1.00
O770   O     0.63752   0.76914   0.46394   0.00000  Uiso   1.00
O771   O     0.59059   0.73037   0.42476   0.00000  Uiso   1.00
H772   H     0.61535   0.71523   0.41129   0.00000  Uiso   1.00
N773   N     0.38087   0.75971   0.29024   0.00000  Uiso   1.00
O774   O     0.40315   0.76518   0.32657   0.00000  Uiso   1.00
O775   O     0.37989   0.72025   0.27308   0.00000  Uiso   1.00
N776   N     0.61907   0.90519   0.20724   0.00000  Uiso   1.00
O777   O     0.59756   0.89782   0.17081   0.00000  Uiso   1.00
O778   O     0.61936   0.94545   0.22260   0.00000  Uiso   1.00
N779   N     0.63014   0.75462   0.28228   0.00000  Uiso   1.00
O780   O     0.61585   0.72654   0.25372   0.00000  Uiso   1.00
O781   O     0.63891   0.74058   0.32325   0.00000  Uiso   1.00
N782   N     0.36979   0.91138   0.21702   0.00000  Uiso   1.00
O783   O     0.38368   0.94006   0.24520   0.00000  Uiso   1.00
O784   O     0.36151   0.92454   0.17569   0.00000  Uiso   1.00
C785   C     0.52589   0.71012   0.32846   0.00000  Uiso   1.00
O786   O     0.55926   0.72644   0.33238   0.00000  Uiso   1.00
O787   O     0.49940   0.71022   0.36398   0.00000  Uiso   1.00
H788   H     0.51110   0.72540   0.39124   0.00000  Uiso   1.00
C789   C     0.47409   0.95689   0.17175   0.00000  Uiso   1.00
O790   O     0.43931   0.94451   0.16657   0.00000  Uiso   1.00
O791   O     0.50170   0.95377   0.13737   0.00000  Uiso   1.00
H792   H     0.48945   0.94020   0.10948   0.00000  Uiso   1.00
C793   C     0.46259   0.71767   0.17637   0.00000  Uiso   1.00
O794   O     0.43061   0.73868   0.18279   0.00000  Uiso   1.00
O795   O     0.47753   0.71598   0.13331   0.00000  Uiso   1.00
H796   H     0.45975   0.73448   0.11053   0.00000  Uiso   1.00
C797   C     0.53712   0.94916   0.32367   0.00000  Uiso   1.00
O798   O     0.52253   0.94796   0.36065   0.00000  Uiso   1.00
O799   O     0.57550   0.92868   0.31709   0.00000  Uiso   1.00
H800   H     0.58817   0.91359   0.34535   0.00000  Uiso   1.00
O801   O     0.77226   0.87154   0.24999   0.00000  Uiso   1.00
O802   O     0.89441   0.79513   0.25000   0.00000  Uiso   1.00
O803   O     0.89441   0.87154   0.25000   0.00000  Uiso   1.00
O804   O     0.77226   0.79513   0.24999   0.00000  Uiso   1.00
C805   C     0.75339   0.83413   0.25065   0.00000  Uiso   1.00
C806   C     0.91325   0.83248   0.24925   0.00000  Uiso   1.00
O807   O     0.83333   0.87156   0.18393   0.00000  Uiso   1.00
O808   O     0.83334   0.79511   0.31607   0.00000  Uiso   1.00
O809   O     0.83334   0.87156   0.31607   0.00000  Uiso   1.00
O810   O     0.83333   0.79511   0.18392   0.00000  Uiso   1.00
C811   C     0.83413   0.83345   0.16353   0.00000  Uiso   1.00
C812   C     0.83361   0.83289   0.33638   0.00000  Uiso   1.00
Zn813  Zn    0.83333   0.88437   0.25000   0.00000  Uiso   1.00
Zn814  Zn    0.83333   0.78229   0.25000   0.00000  Uiso   1.00
C815   C     0.86959   0.81808   0.40870   0.00000  Uiso   1.00
C816   C     0.79957   0.84490   0.08979   0.00000  Uiso   1.00
C817   C     0.83338   0.83132   0.38436   0.00000  Uiso   1.00
C818   C     0.83505   0.83163   0.11530   0.00000  Uiso   1.00
C819   C     0.79686   0.84179   0.40552   0.00000  Uiso   1.00
C820   C     0.86715   0.80671   0.09608   0.00000  Uiso   1.00
C821   C     0.79487   0.83230   0.45166   0.00000  Uiso   1.00
C822   C     0.86821   0.80490   0.04883   0.00000  Uiso   1.00
C823   C     0.83147   0.81874   0.47647   0.00000  Uiso   1.00
C824   C     0.83211   0.81871   0.02332   0.00000  Uiso   1.00
C825   C     0.86782   0.80755   0.45458   0.00000  Uiso   1.00
C826   C     0.79643   0.83332   0.04462   0.00000  Uiso   1.00
C827   C     0.75721   0.83398   0.47367   0.00000  Uiso   1.00
C828   C     0.90317   0.78852   0.02627   0.00000  Uiso   1.00
C829   C     0.75822   0.83387   0.02070   0.00000  Uiso   1.00
C830   C     0.90190   0.78737   0.47925   0.00000  Uiso   1.00
C831   C     0.69043   0.79682   0.26948   0.00000  Uiso   1.00
C832   C     0.97619   0.86920   0.22994   0.00000  Uiso   1.00
C833   C     0.98146   0.79442   0.26589   0.00000  Uiso   1.00
C834   C     0.68513   0.87184   0.23392   0.00000  Uiso   1.00
C835   C     0.95752   0.83122   0.24731   0.00000  Uiso   1.00
C836   C     0.70911   0.83517   0.25268   0.00000  Uiso   1.00
C837   C     0.84721   0.68871   0.28682   0.00000  Uiso   1.00
C838   C     0.81959   0.97807   0.21323   0.00000  Uiso   1.00
C839   C     0.81785   0.69235   0.21381   0.00000  Uiso   1.00
C840   C     0.84856   0.97439   0.28631   0.00000  Uiso   1.00
N841   N     0.83333   0.95240   0.25000   0.00000  Uiso   1.00
N842   N     0.83333   0.71427   0.25000   0.00000  Uiso   1.00
N843   N     0.90860   0.82558   0.38957   0.00000  Uiso   1.00
O844   O     0.91681   0.81174   0.35004   0.00000  Uiso   1.00
O845   O     0.93456   0.85055   0.41017   0.00000  Uiso   1.00
N846   N     0.76647   0.86925   0.10978   0.00000  Uiso   1.00
O847   O     0.74959   0.85274   0.14484   0.00000  Uiso   1.00
O848   O     0.74944   0.90463   0.08923   0.00000  Uiso   1.00
C849   C     0.76415   0.87028   0.38134   0.00000  Uiso   1.00
O850   O     0.74851   0.85839   0.34612   0.00000  Uiso   1.00
O851   O     0.75111   0.91073   0.39956   0.00000  Uiso   1.00
H852   H     0.72866   0.92715   0.38037   0.00000  Uiso   1.00
C853   C     0.89636   0.77919   0.12591   0.00000  Uiso   1.00
O854   O     0.89669   0.73839   0.12454   0.00000  Uiso   1.00
O855   O     0.92366   0.79994   0.15488   0.00000  Uiso   1.00
H856   H     0.94324   0.77757   0.17161   0.00000  Uiso   1.00
C857   C     0.71773   0.82905   0.44801   0.00000  Uiso   1.00
O858   O     0.68899   0.85594   0.45203   0.00000  Uiso   1.00
O859   O     0.71434   0.79449   0.41774   0.00000  Uiso   1.00
H860   H     0.68696   0.79583   0.40039   0.00000  Uiso   1.00
C861   C     0.94266   0.77683   0.05045   0.00000  Uiso   1.00
O862   O     0.96027   0.80577   0.07063   0.00000  Uiso   1.00
O863   O     0.95927   0.73298   0.05064   0.00000  Uiso   1.00
H864   H     0.98614   0.72921   0.06880   0.00000  Uiso   1.00
C865   C     0.72096   0.82505   0.04547   0.00000  Uiso   1.00
O866   O     0.69059   0.85025   0.04091   0.00000  Uiso   1.00
O867   O     0.72235   0.78929   0.07665   0.00000  Uiso   1.00
H868   H     0.69804   0.78951   0.09648   0.00000  Uiso   1.00
C869   C     0.93473   0.76212   0.45600   0.00000  Uiso   1.00
O870   O     0.97085   0.76914   0.46394   0.00000  Uiso   1.00
O871   O     0.92392   0.73037   0.42476   0.00000  Uiso   1.00
H872   H     0.94868   0.71523   0.41129   0.00000  Uiso   1.00
N873   N     0.71420   0.75971   0.29024   0.00000  Uiso   1.00
O874   O     0.73648   0.76518   0.32657   0.00000  Uiso   1.00
O875   O     0.71322   0.72025   0.27308   0.00000  Uiso   1.00
N876   N     0.95241   0.90519   0.20724   0.00000  Uiso   1.00
O877   O     0.93089   0.89782   0.17081   0.00000  Uiso   1.00
O878   O     0.95270   0.94545   0.22260   0.00000  Uiso   1.00
N879   N     0.96348   0.75462   0.28228   0.00000  Uiso   1.00
O880   O     0.94918   0.72654   0.25372   0.00000  Uiso   1.00
O881   O     0.97224   0.74058   0.32325   0.00000  Uiso   1.00
N882   N     0.70313   0.91138   0.21702   0.00000  Uiso   1.00
O883   O     0.71701   0.94006   0.24520   0.00000  Uiso   1.00
O884   O     0.69484   0.92454   0.17569   0.00000  Uiso   1.00
C885   C     0.85922   0.71012   0.32846   0.00000  Uiso   1.00
O886   O     0.89259   0.72644   0.33238   0.00000  Uiso   1.00
O887   O     0.83274   0.71022   0.36398   0.00000  Uiso   1.00
H888   H     0.84443   0.72540   0.39124   0.00000  Uiso   1.00
C889   C     0.80742   0.95689   0.17175   0.00000  Uiso   1.00
O890   O     0.77264   0.94451   0.16657   0.00000  Uiso   1.00
O891   O     0.83503   0.95377   0.13737   0.00000  Uiso   1.00
H892   H     0.82278   0.94020   0.10948   0.00000  Uiso   1.00
C893   C     0.79593   0.71767   0.17637   0.00000  Uiso   1.00
O894   O     0.76394   0.73868   0.18279   0.00000  Uiso   1.00
O895   O     0.81086   0.71598   0.13331   0.00000  Uiso   1.00
H896   H     0.79309   0.73448   0.11053   0.00000  Uiso   1.00
C897   C     0.87045   0.94916   0.32367   0.00000  Uiso   1.00
O898   O     0.85586   0.94796   0.36065   0.00000  Uiso   1.00
O899   O     0.90883   0.92868   0.31709   0.00000  Uiso   1.00
H900   H     0.92151   0.91359   0.34535   0.00000  Uiso   1.00
O901   O     0.10559   0.20487   0.74999   0.00000  Uiso   1.00
O902   O     0.22774   0.12846   0.75000   0.00000  Uiso   1.00
O903   O     0.22774   0.20487   0.75000   0.00000  Uiso   1.00
O904   O     0.10559   0.12846   0.74999   0.00000  Uiso   1.00
C905   C     0.08672   0.16747   0.75065   0.00000  Uiso   1.00
C906   C     0.24659   0.16581   0.74925   0.00000  Uiso   1.00
O907   O     0.16666   0.20489   0.68393   0.00000  Uiso   1.00
O908   O     0.16667   0.12844   0.81607   0.00000  Uiso   1.00
O909   O     0.16667   0.20489   0.81607   0.00000  Uiso   1.00
O910   O     0.16666   0.12844   0.68392   0.00000  Uiso   1.00
C911   C     0.16747   0.16678   0.66353   0.00000  Uiso   1.00
C912   C     0.16694   0.16622   0.83638   0.00000  Uiso   1.00
Zn913  Zn    0.16667   0.21771   0.75000   0.00000  Uiso   1.00
Zn914  Zn    0.16667   0.11563   0.75000   0.00000  Uiso   1.00
C915   C     0.20293   0.15141   0.90870   0.00000  Uiso   1.00
C916   C     0.13291   0.17823   0.58979   0.00000  Uiso   1.00
C917   C     0.16671   0.16465   0.88436   0.00000  Uiso   1.00
C918   C     0.16839   0.16496   0.61530   0.00000  Uiso   1.00
C919   C     0.13019   0.17513   0.90552   0.00000  Uiso   1.00
C920   C     0.20048   0.14004   0.59608   0.00000  Uiso   1.00
C921   C     0.12821   0.16563   0.95166   0.00000  Uiso   1.00
C922   C     0.20155   0.13824   0.54883   0.00000  Uiso   1.00
C923   C     0.16481   0.15208   0.97647   0.00000  Uiso   1.00
C924   C     0.16545   0.15204   0.52332   0.00000  Uiso   1.00
C925   C     0.20115   0.14089   0.95458   0.00000  Uiso   1.00
C926   C     0.12976   0.16666   0.54462   0.00000  Uiso   1.00
C927   C     0.09055   0.16731   0.97367   0.00000  Uiso   1.00
C928   C     0.23650   0.12186   0.52627   0.00000  Uiso   1.00
C929   C     0.09155   0.16721   0.52070   0.00000  Uiso   1.00
C930   C     0.23523   0.12071   0.97925   0.00000  Uiso   1.00
C931   C     0.02376   0.13015   0.76948   0.00000  Uiso   1.00
C932   C     0.30953   0.20253   0.72994   0.00000  Uiso   1.00
C933   C     0.31479   0.12775   0.76589   0.00000  Uiso   1.00
C934   C     0.01846   0.20517   0.73392   0.00000  Uiso   1.00
C935   C     0.29085   0.16455   0.74731   0.00000  Uiso   1.00
C936   C     0.04245   0.16850   0.75268   0.00000  Uiso   1.00
C937   C     0.18054   0.02204   0.78682   0.00000  Uiso   1.00
C938   C     0.15292   0.31140   0.71323   0.00000  Uiso   1.00
C939   C     0.15119   0.02568   0.71381   0.00000  Uiso   1.00
C940   C     0.18190   0.30773   0.78631   0.00000  Uiso   1.00
N941   N     0.16667   0.28573   0.75000   0.00000  Uiso   1.00
N942   N     0.16667   0.04760   0.75000   0.00000  Uiso   1.00
N943   N     0.24193   0.15892   0.88957   0.00000  Uiso   1.00
O944   O     0.25014   0.14508   0.85004   0.00000  Uiso   1.00
O945   O     0.26789   0.18389   0.91017   0.00000  Uiso   1.00
N946   N     0.09980   0.20259   0.60978   0.00000  Uiso   1.00
O947   O     0.08293   0.18608   0.64484   0.00000  Uiso   1.00
O948   O     0.08277   0.23796   0.58923   0.00000  Uiso   1.00
C949   C     0.09748   0.20361   0.88134   0.00000  Uiso   1.00
O950   O     0.08184   0.19173   0.84612   0.00000  Uiso   1.00
O951   O     0.08444   0.24406   0.89956   0.00000  Uiso   1.00
H952   H     0.06200   0.26048   0.88037   0.00000  Uiso   1.00
C953   C     0.22969   0.11253   0.62591   0.00000  Uiso   1.00
O954   O     0.23003   0.07172   0.62454   0.00000  Uiso   1.00
O955   O     0.25699   0.13327   0.65488   0.00000  Uiso   1.00
H956   H     0.27658   0.11090   0.67161   0.00000  Uiso   1.00
C957   C     0.05107   0.16238   0.94801   0.00000  Uiso   1.00
O958   O     0.02233   0.18928   0.95203   0.00000  Uiso   1.00
O959   O     0.04767   0.12782   0.91774   0.00000  Uiso   1.00
H960   H     0.02030   0.12916   0.90039   0.00000  Uiso   1.00
C961   C     0.27600   0.11016   0.55045   0.00000  Uiso   1.00
O962   O     0.29361   0.13910   0.57063   0.00000  Uiso   1.00
O963   O     0.29261   0.06631   0.55064   0.00000  Uiso   1.00
H964   H     0.31947   0.06255   0.56880   0.00000  Uiso   1.00
C965   C     0.05430   0.15838   0.54547   0.00000  Uiso   1.00
O966   O     0.02392   0.18359   0.54091   0.00000  Uiso   1.00
O967   O     0.05568   0.12262   0.57665   0.00000  Uiso   1.00
H968   H     0.03137   0.12284   0.59648   0.00000  Uiso   1.00
C969   C     0.26807   0.09546   0.95600   0.00000  Uiso   1.00
O970   O     0.30418   0.10247   0.96394   0.00000  Uiso   1.00
O971   O     0.25725   0.06370   0.92476   0.00000  Uiso   1.00
H972   H     0.28201   0.04856   0.91129   0.00000  Uiso   1.00
N973   N     0.04754   0.09304   0.79024   0.00000  Uiso   1.00
O974   O     0.06982   0.09851   0.82657   0.00000  Uiso   1.00
O975   O     0.04655   0.05359   0.77308   0.00000  Uiso   1.00
N976   N     0.28574   0.23852   0.70724   0.00000  Uiso   1.00
O977   O     0.26423   0.23115   0.67081   0.00000  Uiso   1.00
O978   O     0.28603   0.27878   0.72260   0.00000  Uiso   1.00
N979   N     0.29681   0.08795   0.78228   0.00000  Uiso   1.00
O980   O     0.28252   0.05987   0.75372   0.00000  Uiso   1.00
O981   O     0.30557   0.07391   0.82325   0.00000  Uiso   1.00
N982   N     0.03646   0.24472   0.71702   0.00000  Uiso   1.00
O983   O     0.05035   0.27339   0.74520   0.00000  Uiso   1.00
O984   O     0.02817   0.25787   0.67569   0.00000  Uiso   1.00
C985   C     0.19256   0.04345   0.82846   0.00000  Uiso   1.00
O986   O     0.22593   0.05977   0.83238   0.00000  Uiso   1.00
O987   O     0.16607   0.04355   0.86398   0.00000  Uiso   1.00
H988   H     0.17777   0.05873   0.89124   0.00000  Uiso   1.00
C989   C     0.14075   0.29022   0.67175   0.00000  Uiso   1.00
O990   O     0.10598   0.27784   0.66657   0.00000  Uiso   1.00
O991   O     0.16836   0.28710   0.63737   0.00000  Uiso   1.00
H992   H     0.15611   0.27353   0.60948   0.00000  Uiso   1.00
C993   C     0.12926   0.05100   0.67637   0.00000  Uiso   1.00
O994   O     0.09727   0.07201   0.68279   0.00000  Uiso   1.00
O995   O     0.14419   0.04931   0.63331   0.00000  Uiso   1.00
H996   H     0.12642   0.06781   0.61053   0.00000  Uiso   1.00
C997   C     0.20378   0.28249   0.82367   0.00000  Uiso   1.00
O998   O     0.18920   0.28129   0.86065   0.00000  Uiso   1.00
O999   O     0.24217   0.26202   0.81709   0.00000  Uiso   1.00
H1000  H     0.25484   0.24692   0.84535   0.00000  Uiso   1.00
O1001  O     0.43892   0.20487   0.74999   0.00000  Uiso   1.00
O1002  O     0.56108   0.12846   0.75000   0.00000  Uiso   1.00
O1003  O     0.56108   0.20487   0.75000   0.00000  Uiso   1.00
O1004  O     0.43892   0.12846   0.74999   0.00000  Uiso   1.00
C1005  C     0.42006   0.16747   0.75065   0.00000  Uiso   1.00
C1006  C     0.57992   0.16581   0.74925   0.00000  Uiso   1.00
O1007  O     0.49999   0.20489   0.68393   0.00000  Uiso   1.00
O1008  O     0.50001   0.12844   0.81607   0.00000  Uiso   1.00
O1009  O     0.50001   0.20489   0.81607   0.00000  Uiso   1.00
O1010  O     0.49999   0.12844   0.68392   0.00000  Uiso   1.00
C1011  C     0.50080   0.16678   0.66353   0.00000  Uiso   1.00
C1012  C     0.50027   0.16622   0.83638   0.00000  Uiso   1.00
Zn1013 Zn    0.50000   0.21771   0.75000   0.00000  Uiso   1.00
Zn1014 Zn    0.50000   0.11563   0.75000   0.00000  Uiso   1.00
C1015  C     0.53626   0.15141   0.90870   0.00000  Uiso   1.00
C1016  C     0.46624   0.17823   0.58979   0.00000  Uiso   1.00
C1017  C     0.50005   0.16465   0.88436   0.00000  Uiso   1.00
C1018  C     0.50172   0.16496   0.61530   0.00000  Uiso   1.00
C1019  C     0.46353   0.17513   0.90552   0.00000  Uiso   1.00
C1020  C     0.53382   0.14004   0.59608   0.00000  Uiso   1.00
C1021  C     0.46154   0.16563   0.95166   0.00000  Uiso   1.00
C1022  C     0.53488   0.13824   0.54883   0.00000  Uiso   1.00
C1023  C     0.49814   0.15208   0.97647   0.00000  Uiso   1.00
C1024  C     0.49878   0.15204   0.52332   0.00000  Uiso   1.00
C1025  C     0.53448   0.14089   0.95458   0.00000  Uiso   1.00
C1026  C     0.46309   0.16666   0.54462   0.00000  Uiso   1.00
C1027  C     0.42388   0.16731   0.97367   0.00000  Uiso   1.00
C1028  C     0.56984   0.12186   0.52627   0.00000  Uiso   1.00
C1029  C     0.42488   0.16721   0.52070   0.00000  Uiso   1.00
C1030  C     0.56857   0.12071   0.97925   0.00000  Uiso   1.00
C1031  C     0.35709   0.13015   0.76948   0.00000  Uiso   1.00
C1032  C     0.64286   0.20253   0.72994   0.00000  Uiso   1.00
C1033  C     0.64813   0.12775   0.76589   0.00000  Uiso   1.00
C1034  C     0.35179   0.20517   0.73392   0.00000  Uiso   1.00
C1035  C     0.62419   0.16455   0.74731   0.00000  Uiso   1.00
C1036  C     0.37578   0.16850   0.75268   0.00000  Uiso   1.00
C1037  C     0.51387   0.02204   0.78682   0.00000  Uiso   1.00
C1038  C     0.48625   0.31140   0.71323   0.00000  Uiso   1.00
C1039  C     0.48452   0.02568   0.71381   0.00000  Uiso   1.00
C1040  C     0.51523   0.30773   0.78631   0.00000  Uiso   1.00
N1041  N     0.50000   0.28573   0.75000   0.00000  Uiso   1.00
N1042  N     0.50000   0.04760   0.75000   0.00000  Uiso   1.00
N1043  N     0.57526   0.15892   0.88957   0.00000  Uiso   1.00
O1044  O     0.58348   0.14508   0.85004   0.00000  Uiso   1.00
O1045  O     0.60123   0.18389   0.91017   0.00000  Uiso   1.00
N1046  N     0.43314   0.20259   0.60978   0.00000  Uiso   1.00
O1047  O     0.41626   0.18608   0.64484   0.00000  Uiso   1.00
O1048  O     0.41611   0.23796   0.58923   0.00000  Uiso   1.00
C1049  C     0.43082   0.20361   0.88134   0.00000  Uiso   1.00
O1050  O     0.41517   0.19173   0.84612   0.00000  Uiso   1.00
O1051  O     0.41777   0.24406   0.89956   0.00000  Uiso   1.00
H1052  H     0.39533   0.26048   0.88037   0.00000  Uiso   1.00
C1053  C     0.56303   0.11253   0.62591   0.00000  Uiso   1.00
O1054  O     0.56336   0.07172   0.62454   0.00000  Uiso   1.00
O1055  O     0.59033   0.13327   0.65488   0.00000  Uiso   1.00
H1056  H     0.60991   0.11090   0.67161   0.00000  Uiso   1.00
C1057  C     0.38440   0.16238   0.94801   0.00000  Uiso   1.00
O1058  O     0.35566   0.18928   0.95203   0.00000  Uiso   1.00
O1059  O     0.38100   0.12782   0.91774   0.00000  Uiso   1.00
H1060  H     0.35363   0.12916   0.90039   0.00000  Uiso   1.00
C1061  C     0.60933   0.11016   0.55045   0.00000  Uiso   1.00
O1062  O     0.62694   0.13910   0.57063   0.00000  Uiso   1.00
O1063  O     0.62594   0.06631   0.55064   0.00000  Uiso   1.00
H1064  H     0.65280   0.06255   0.56880   0.00000  Uiso   1.00
C1065  C     0.38763   0.15838   0.54547   0.00000  Uiso   1.00
O1066  O     0.35726   0.18359   0.54091   0.00000  Uiso   1.00
O1067  O     0.38902   0.12262   0.57665   0.00000  Uiso   1.00
H1068  H     0.36470   0.12284   0.59648   0.00000  Uiso   1.00
C1069  C     0.60140   0.09546   0.95600   0.00000  Uiso   1.00
O1070  O     0.63752   0.10247   0.96394   0.00000  Uiso   1.00
O1071  O     0.59059   0.06370   0.92476   0.00000  Uiso   1.00
H1072  H     0.61535   0.04856   0.91129   0.00000  Uiso   1.00
N1073  N     0.38087   0.09304   0.79024   0.00000  Uiso   1.00
O1074  O     0.40315   0.09851   0.82657   0.00000  Uiso   1.00
O1075  O     0.37989   0.05359   0.77308   0.00000  Uiso   1.00
N1076  N     0.61907   0.23852   0.70724   0.00000  Uiso   1.00
O1077  O     0.59756   0.23115   0.67081   0.00000  Uiso   1.00
O1078  O     0.61936   0.27878   0.72260   0.00000  Uiso   1.00
N1079  N     0.63014   0.08795   0.78228   0.00000  Uiso   1.00
O1080  O     0.61585   0.05987   0.75372   0.00000  Uiso   1.00
O1081  O     0.63891   0.07391   0.82325   0.00000  Uiso   1.00
N1082  N     0.36979   0.24472   0.71702   0.00000  Uiso   1.00
O1083  O     0.38368   0.27339   0.74520   0.00000  Uiso   1.00
O1084  O     0.36151   0.25787   0.67569   0.00000  Uiso   1.00
C1085  C     0.52589   0.04345   0.82846   0.00000  Uiso   1.00
O1086  O     0.55926   0.05977   0.83238   0.00000  Uiso   1.00
O1087  O     0.49940   0.04355   0.86398   0.00000  Uiso   1.00
H1088  H     0.51110   0.05873   0.89124   0.00000  Uiso   1.00
C1089  C     0.47409   0.29022   0.67175   0.00000  Uiso   1.00
O1090  O     0.43931   0.27784   0.66657   0.00000  Uiso   1.00
O1091  O     0.50170   0.28710   0.63737   0.00000  Uiso   1.00
H1092  H     0.48945   0.27353   0.60948   0.00000  Uiso   1.00
C1093  C     0.46259   0.05100   0.67637   0.00000  Uiso   1.00
O1094  O     0.43061   0.07201   0.68279   0.00000  Uiso   1.00
O1095  O     0.47753   0.04931   0.63331   0.00000  Uiso   1.00
H1096  H     0.45975   0.06781   0.61053   0.00000  Uiso   1.00
C1097  C     0.53712   0.28249   0.82367   0.00000  Uiso   1.00
O1098  O     0.52253   0.28129   0.86065   0.00000  Uiso   1.00
O1099  O     0.57550   0.26202   0.81709   0.00000  Uiso   1.00
H1100  H     0.58817   0.24692   0.84535   0.00000  Uiso   1.00
O1101  O     0.77226   0.20487   0.74999   0.00000  Uiso   1.00
O1102  O     0.89441   0.12846   0.75000   0.00000  Uiso   1.00
O1103  O     0.89441   0.20487   0.75000   0.00000  Uiso   1.00
O1104  O     0.77226   0.12846   0.74999   0.00000  Uiso   1.00
C1105  C     0.75339   0.16747   0.75065   0.00000  Uiso   1.00
C1106  C     0.91325   0.16581   0.74925   0.00000  Uiso   1.00
O1107  O     0.83333   0.20489   0.68393   0.00000  Uiso   1.00
O1108  O     0.83334   0.12844   0.81607   0.00000  Uiso   1.00
O1109  O     0.83334   0.20489   0.81607   0.00000  Uiso   1.00
O1110  O     0.83333   0.12844   0.68392   0.00000  Uiso   1.00
C1111  C     0.83413   0.16678   0.66353   0.00000  Uiso   1.00
C1112  C     0.83361   0.16622   0.83638   0.00000  Uiso   1.00
Zn1113 Zn    0.83333   0.21771   0.75000   0.00000  Uiso   1.00
Zn1114 Zn    0.83333   0.11563   0.75000   0.00000  Uiso   1.00
C1115  C     0.86959   0.15141   0.90870   0.00000  Uiso   1.00
C1116  C     0.79957   0.17823   0.58979   0.00000  Uiso   1.00
C1117  C     0.83338   0.16465   0.88436   0.00000  Uiso   1.00
C1118  C     0.83505   0.16496   0.61530   0.00000  Uiso   1.00
C1119  C     0.79686   0.17513   0.90552   0.00000  Uiso   1.00
C1120  C     0.86715   0.14004   0.59608   0.00000  Uiso   1.00
C1121  C     0.79487   0.16563   0.95166   0.00000  Uiso   1.00
C1122  C     0.86821   0.13824   0.54883   0.00000  Uiso   1.00
C1123  C     0.83147   0.15208   0.97647   0.00000  Uiso   1.00
C1124  C     0.83211   0.15204   0.52332   0.00000  Uiso   1.00
C1125  C     0.86782   0.14089   0.95458   0.00000  Uiso   1.00
C1126  C     0.79643   0.16666   0.54462   0.00000  Uiso   1.00
C1127  C     0.75721   0.16731   0.97367   0.00000  Uiso   1.00
C1128  C     0.90317   0.12186   0.52627   0.00000  Uiso   1.00
C1129  C     0.75822   0.16721   0.52070   0.00000  Uiso   1.00
C1130  C     0.90190   0.12071   0.97925   0.00000  Uiso   1.00
C1131  C     0.69043   0.13015   0.76948   0.00000  Uiso   1.00
C1132  C     0.97619   0.20253   0.72994   0.00000  Uiso   1.00
C1133  C     0.98146   0.12775   0.76589   0.00000  Uiso   1.00
C1134  C     0.68513   0.20517   0.73392   0.00000  Uiso   1.00
C1135  C     0.95752   0.16455   0.74731   0.00000  Uiso   1.00
C1136  C     0.70911   0.16850   0.75268   0.00000  Uiso   1.00
C1137  C     0.84721   0.02204   0.78682   0.00000  Uiso   1.00
C1138  C     0.81959   0.31140   0.71323   0.00000  Uiso   1.00
C1139  C     0.81785   0.02568   0.71381   0.00000  Uiso   1.00
C1140  C     0.84856   0.30773   0.78631   0.00000  Uiso   1.00
N1141  N     0.83333   0.28573   0.75000   0.00000  Uiso   1.00
N1142  N     0.83333   0.04760   0.75000   0.00000  Uiso   1.00
N1143  N     0.90860   0.15892   0.88957   0.00000  Uiso   1.00
O1144  O     0.91681   0.14508   0.85004   0.00000  Uiso   1.00
O1145  O     0.93456   0.18389   0.91017   0.00000  Uiso   1.00
N1146  N     0.76647   0.20259   0.60978   0.00000  Uiso   1.00
O1147  O     0.74959   0.18608   0.64484   0.00000  Uiso   1.00
O1148  O     0.74944   0.23796   0.58923   0.00000  Uiso   1.00
C1149  C     0.76415   0.20361   0.88134   0.00000  Uiso   1.00
O1150  O     0.74851   0.19173   0.84612   0.00000  Uiso   1.00
O1151  O     0.75111   0.24406   0.89956   0.00000  Uiso   1.00
H1152  H     0.72866   0.26048   0.88037   0.00000  Uiso   1.00
C1153  C     0.89636   0.11253   0.62591   0.00000  Uiso   1.00
O1154  O     0.89669   0.07172   0.62454   0.00000  Uiso   1.00
O1155  O     0.92366   0.13327   0.65488   0.00000  Uiso   1.00
H1156  H     0.94324   0.11090   0.67161   0.00000  Uiso   1.00
C1157  C     0.71773   0.16238   0.94801   0.00000  Uiso   1.00
O1158  O     0.68899   0.18928   0.95203   0.00000  Uiso   1.00
O1159  O     0.71434   0.12782   0.91774   0.00000  Uiso   1.00
H1160  H     0.68696   0.12916   0.90039   0.00000  Uiso   1.00
C1161  C     0.94266   0.11016   0.55045   0.00000  Uiso   1.00
O1162  O     0.96027   0.13910   0.57063   0.00000  Uiso   1.00
O1163  O     0.95927   0.06631   0.55064   0.00000  Uiso   1.00
H1164  H     0.98614   0.06255   0.56880   0.00000  Uiso   1.00
C1165  C     0.72096   0.15838   0.54547   0.00000  Uiso   1.00
O1166  O     0.69059   0.18359   0.54091   0.00000  Uiso   1.00
O1167  O     0.72235   0.12262   0.57665   0.00000  Uiso   1.00
H1168  H     0.69804   0.12284   0.59648   0.00000  Uiso   1.00
C1169  C     0.93473   0.09546   0.95600   0.00000  Uiso   1.00
O1170  O     0.97085   0.10247   0.96394   0.00000  Uiso   1.00
O1171  O     0.92392   0.06370   0.92476   0.00000  Uiso   1.00
H1172  H     0.94868   0.04856   0.91129   0.00000  Uiso   1.00
N1173  N     0.71420   0.09304   0.79024   0.00000  Uiso   1.00
O1174  O     0.73648   0.09851   0.82657   0.00000  Uiso   1.00
O1175  O     0.71322   0.05359   0.77308   0.00000  Uiso   1.00
N1176  N     0.95241   0.23852   0.70724   0.00000  Uiso   1.00
O1177  O     0.93089   0.23115   0.67081   0.00000  Uiso   1.00
O1178  O     0.95270   0.27878   0.72260   0.00000  Uiso   1.00
N1179  N     0.96348   0.08795   0.78228   0.00000  Uiso   1.00
O1180  O     0.94918   0.05987   0.75372   0.00000  Uiso   1.00
O1181  O     0.97224   0.07391   0.82325   0.00000  Uiso   1.00
N1182  N     0.70313   0.24472   0.71702   0.00000  Uiso   1.00
O1183  O     0.71701   0.27339   0.74520   0.00000  Uiso   1.00
O1184  O     0.69484   0.25787   0.67569   0.00000  Uiso   1.00
C1185  C     0.85922   0.04345   0.82846   0.00000  Uiso   1.00
O1186  O     0.89259   0.05977   0.83238   0.00000  Uiso   1.00
O1187  O     0.83274   0.04355   0.86398   0.00000  Uiso   1.00
H1188  H     0.84443   0.05873   0.89124   0.00000  Uiso   1.00
C1189  C     0.80742   0.29022   0.67175   0.00000  Uiso   1.00
O1190  O     0.77264   0.27784   0.66657   0.00000  Uiso   1.00
O1191  O     0.83503   0.28710   0.63737   0.00000  Uiso   1.00
H1192  H     0.82278   0.27353   0.60948   0.00000  Uiso   1.00
C1193  C     0.79593   0.05100   0.67637   0.00000  Uiso   1.00
O1194  O     0.76394   0.07201   0.68279   0.00000  Uiso   1.00
O1195  O     0.81086   0.04931   0.63331   0.00000  Uiso   1.00
H1196  H     0.79309   0.06781   0.61053   0.00000  Uiso   1.00
C1197  C     0.87045   0.28249   0.82367   0.00000  Uiso   1.00
O1198  O     0.85586   0.28129   0.86065   0.00000  Uiso   1.00
O1199  O     0.90883   0.26202   0.81709   0.00000  Uiso   1.00
H1200  H     0.92151   0.24692   0.84535   0.00000  Uiso   1.00
O1201  O     0.10559   0.53821   0.74999   0.00000  Uiso   1.00
O1202  O     0.22774   0.46179   0.75000   0.00000  Uiso   1.00
O1203  O     0.22774   0.53821   0.75000   0.00000  Uiso   1.00
O1204  O     0.10559   0.46179   0.74999   0.00000  Uiso   1.00
C1205  C     0.08672   0.50080   0.75065   0.00000  Uiso   1.00
C1206  C     0.24659   0.49915   0.74925   0.00000  Uiso   1.00
O1207  O     0.16666   0.53823   0.68393   0.00000  Uiso   1.00
O1208  O     0.16667   0.46177   0.81607   0.00000  Uiso   1.00
O1209  O     0.16667   0.53823   0.81607   0.00000  Uiso   1.00
O1210  O     0.16666   0.46177   0.68392   0.00000  Uiso   1.00
C1211  C     0.16747   0.50011   0.66353   0.00000  Uiso   1.00
C1212  C     0.16694   0.49955   0.83638   0.00000  Uiso   1.00
Zn1213 Zn    0.16667   0.55104   0.75000   0.00000  Uiso   1.00
Zn1214 Zn    0.16667   0.44896   0.75000   0.00000  Uiso   1.00
C1215  C     0.20293   0.48475   0.90870   0.00000  Uiso   1.00
C1216  C     0.13291   0.51157   0.58979   0.00000  Uiso   1.00
C1217  C     0.16671   0.49798   0.88436   0.00000  Uiso   1.00
C1218  C     0.16839   0.49830   0.61530   0.00000  Uiso   1.00
C1219  C     0.13019   0.50846   0.90552   0.00000  Uiso   1.00
C1220  C     0.20048   0.47338   0.59608   0.00000  Uiso   1.00
C1221  C     0.12821   0.49897   0.95166   0.00000  Uiso   1.00
C1222  C     0.20155   0.47157   0.54883   0.00000  Uiso   1.00
C1223  C     0.16481   0.48541   0.97647   0.00000  Uiso   1.00
C1224  C     0.16545   0.48538   0.52332   0.00000  Uiso   1.00
C1225  C     0.20115   0.47422   0.95458   0.00000  Uiso   1.00
C1226  C     0.12976   0.49999   0.54462   0.00000  Uiso   1.00
C1227  C     0.09055   0.50064   0.97367   0.00000  Uiso   1.00
C1228  C     0.23650   0.45519   0.52627   0.00000  Uiso   1.00
C1229  C     0.09155   0.50054   0.52070   0.00000  Uiso   1.00
C1230  C     0.23523   0.45404   0.97925   0.00000  Uiso   1.00
C1231  C     0.02376   0.46349   0.76948   0.00000  Uiso   1.00
C1232  C     0.30953   0.53587   0.72994   0.00000  Uiso   1.00
C1233  C     0.31479   0.46108   0.76589   0.00000  Uiso   1.00
C1234  C     0.01846   0.53851   0.73392   0.00000  Uiso   1.00
C1235  C     0.29085   0.49788   0.74731   0.00000  Uiso   1.00
C1236  C     0.04245   0.50184   0.75268   0.00000  Uiso   1.00
C1237  C     0.18054   0.35538   0.78682   0.00000  Uiso   1.00
C1238  C     0.15292   0.64473   0.71323   0.00000  Uiso   1.00
C1239  C     0.15119   0.35902   0.71381   0.00000  Uiso   1.00
C1240  C     0.18190   0.64106   0.78631   0.00000  Uiso   1.00
N1241  N     0.16667   0.61907   0.75000   0.00000  Uiso   1.00
N1242  N     0.16667   0.38093   0.75000   0.00000  Uiso   1.00
N1243  N     0.24193   0.49225   0.88957   0.00000  Uiso   1.00
O1244  O     0.25014   0.47841   0.85004   0.00000  Uiso   1.00
O1245  O     0.26789   0.51722   0.91017   0.00000  Uiso   1.00
N1246  N     0.09980   0.53592   0.60978   0.00000  Uiso   1.00
O1247  O     0.08293   0.51941   0.64484   0.00000  Uiso   1.00
O1248  O     0.08277   0.57129   0.58923   0.00000  Uiso   1.00
C1249  C     0.09748   0.53695   0.88134   0.00000  Uiso   1.00
O1250  O     0.08184   0.52506   0.84612   0.00000  Uiso   1.00
O1251  O     0.08444   0.57740   0.89956   0.00000  Uiso   1.00
H1252  H     0.06200   0.59382   0.88037   0.00000  Uiso   1.00
C1253  C     0.22969   0.44586   0.62591   0.00000  Uiso   1.00
O1254  O     0.23003   0.40505   0.62454   0.00000  Uiso   1.00
O1255  O     0.25699   0.46660   0.65488   0.00000  Uiso   1.00
H1256  H     0.27658   0.44424   0.67161   0.00000  Uiso   1.00
C1257  C     0.05107   0.49571   0.94801   0.00000  Uiso   1.00
O1258  O     0.02233   0.52261   0.95203   0.00000  Uiso   1.00
O1259  O     0.04767   0.46115   0.91774   0.00000  Uiso   1.00
H1260  H     0.02030   0.46250   0.90039   0.00000  Uiso   1.00
C1261  C     0.27600   0.44350   0.55045   0.00000  Uiso   1.00
O1262  O     0.29361   0.47244   0.57063   0.00000  Uiso   1.00
O1263  O     0.29261   0.39965   0.55064   0.00000  Uiso   1.00
H1264  H     0.31947   0.39588   0.56880   0.00000  Uiso   1.00
C1265  C     0.05430   0.49172   0.54547   0.00000  Uiso   1.00
O1266  O     0.02392   0.51692   0.54091   0.00000  Uiso   1.00
O1267  O     0.05568   0.45595   0.57665   0.00000  Uiso   1.00
H1268  H     0.03137   0.45618   0.59648   0.00000  Uiso   1.00
C1269  C     0.26807   0.42879   0.95600   0.00000  Uiso   1.00
O1270  O     0.30418   0.43581   0.96394   0.00000  Uiso   1.00
O1271  O     0.25725   0.39704   0.92476   0.00000  Uiso   1.00
H1272  H     0.28201   0.38190   0.91129   0.00000  Uiso   1.00
N1273  N     0.04754   0.42638   0.79024   0.00000  Uiso   1.00
O1274  O     0.06982   0.43184   0.82657   0.00000  Uiso   1.00
O1275  O     0.04655   0.38692   0.77308   0.00000  Uiso   1.00
N1276  N     0.28574   0.57185   0.70724   0.00000  Uiso   1.00
O1277  O     0.26423   0.56448   0.67081   0.00000  Uiso   1.00
O1278  O     0.28603   0.61211   0.72260   0.00000  Uiso   1.00
N1279  N     0.29681   0.42128   0.78228   0.00000  Uiso   1.00
O1280  O     0.28252   0.39320   0.75372   0.00000  Uiso   1.00
O1281  O     0.30557   0.40725   0.82325   0.00000  Uiso   1.00
N1282  N     0.03646   0.57805   0.71702   0.00000  Uiso   1.00
O1283  O     0.05035   0.60672   0.74520   0.00000  Uiso   1.00
O1284  O     0.02817   0.59120   0.67569   0.00000  Uiso   1.00
C1285  C     0.19256   0.37679   0.82846   0.00000  Uiso   1.00
O1286  O     0.22593   0.39311   0.83238   0.00000  Uiso   1.00
O1287  O     0.16607   0.37689   0.86398   0.00000  Uiso   1.00
H1288  H     0.17777   0.39206   0.89124   0.00000  Uiso   1.00
C1289  C     0.14075   0.62356   0.67175   0.00000  Uiso   1.00
O1290  O     0.10598   0.61118   0.66657   0.00000  Uiso   1.00
O1291  O     0.16836   0.62043   0.63737   0.00000  Uiso   1.00
H1292  H     0.15611   0.60687   0.60948   0.00000  Uiso   1.00
C1293  C     0.12926   0.38434   0.67637   0.00000  Uiso   1.00
O1294  O     0.09727   0.40535   0.68279   0.00000  Uiso   1.00
O1295  O     0.14419   0.38265   0.63331   0.00000  Uiso   1.00
H1296  H     0.12642   0.40115   0.61053   0.00000  Uiso   1.00
C1297  C     0.20378   0.61583   0.82367   0.00000  Uiso   1.00
O1298  O     0.18920   0.61462   0.86065   0.00000  Uiso   1.00
O1299  O     0.24217   0.59535   0.81709   0.00000  Uiso   1.00
H1300  H     0.25484   0.58025   0.84535   0.00000  Uiso   1.00
O1301  O     0.43892   0.53821   0.74999   0.00000  Uiso   1.00
O1302  O     0.56108   0.46179   0.75000   0.00000  Uiso   1.00
O1303  O     0.56108   0.53821   0.75000   0.00000  Uiso   1.00
O1304  O     0.43892   0.46179   0.74999   0.00000  Uiso   1.00
C1305  C     0.42006   0.50080   0.75065   0.00000  Uiso   1.00
C1306  C     0.57992   0.49915   0.74925   0.00000  Uiso   1.00
O1307  O     0.49999   0.53823   0.68393   0.00000  Uiso   1.00
O1308  O     0.50001   0.46177   0.81607   0.00000  Uiso   1.00
O1309  O     0.50001   0.53823   0.81607   0.00000  Uiso   1.00
O1310  O     0.49999   0.46177   0.68392   0.00000  Uiso   1.00
C1311  C     0.50080   0.50011   0.66353   0.00000  Uiso   1.00
C1312  C     0.50027   0.49955   0.83638   0.00000  Uiso   1.00
Zn1313 Zn    0.50000   0.55104   0.75000   0.00000  Uiso   1.00
Zn1314 Zn    0.50000   0.44896   0.75000   0.00000  Uiso   1.00
C1315  C     0.53626   0.48475   0.90870   0.00000  Uiso   1.00
C1316  C     0.46624   0.51157   0.58979   0.00000  Uiso   1.00
C1317  C     0.50005   0.49798   0.88436   0.00000  Uiso   1.00
C1318  C     0.50172   0.49830   0.61530   0.00000  Uiso   1.00
C1319  C     0.46353   0.50846   0.90552   0.00000  Uiso   1.00
C1320  C     0.53382   0.47338   0.59608   0.00000  Uiso   1.00
C1321  C     0.46154   0.49897   0.95166   0.00000  Uiso   1.00
C1322  C     0.53488   0.47157   0.54883   0.00000  Uiso   1.00
C1323  C     0.49814   0.48541   0.97647   0.00000  Uiso   1.00
C1324  C     0.49878   0.48538   0.52332   0.00000  Uiso   1.00
C1325  C     0.53448   0.47422   0.95458   0.00000  Uiso   1.00
C1326  C     0.46309   0.49999   0.54462   0.00000  Uiso   1.00
C1327  C     0.42388   0.50064   0.97367   0.00000  Uiso   1.00
C1328  C     0.56984   0.45519   0.52627   0.00000  Uiso   1.00
C1329  C     0.42488   0.50054   0.52070   0.00000  Uiso   1.00
C1330  C     0.56857   0.45404   0.97925   0.00000  Uiso   1.00
C1331  C     0.35709   0.46349   0.76948   0.00000  Uiso   1.00
C1332  C     0.64286   0.53587   0.72994   0.00000  Uiso   1.00
C1333  C     0.64813   0.46108   0.76589   0.00000  Uiso   1.00
C1334  C     0.35179   0.53851   0.73392   0.00000  Uiso   1.00
C1335  C     0.62419   0.49788   0.74731   0.00000  Uiso   1.00
C1336  C     0.37578   0.50184   0.75268   0.00000  Uiso   1.00
C1337  C     0.51387   0.35538   0.78682   0.00000  Uiso   1.00
C1338  C     0.48625   0.64473   0.71323   0.00000  Uiso   1.00
C1339  C     0.48452   0.35902   0.71381   0.00000  Uiso   1.00
C1340  C     0.51523   0.64106   0.78631   0.00000  Uiso   1.00
N1341  N     0.50000   0.61907   0.75000   0.00000  Uiso   1.00
N1342  N     0.50000   0.38093   0.75000   0.00000  Uiso   1.00
N1343  N     0.57526   0.49225   0.88957   0.00000  Uiso   1.00
O1344  O     0.58348   0.47841   0.85004   0.00000  Uiso   1.00
O1345  O     0.60123   0.51722   0.91017   0.00000  Uiso   1.00
N1346  N     0.43314   0.53592   0.60978   0.00000  Uiso   1.00
O1347  O     0.41626   0.51941   0.64484   0.00000  Uiso   1.00
O1348  O     0.41611   0.57129   0.58923   0.00000  Uiso   1.00
C1349  C     0.43082   0.53695   0.88134   0.00000  Uiso   1.00
O1350  O     0.41517   0.52506   0.84612   0.00000  Uiso   1.00
O1351  O     0.41777   0.57740   0.89956   0.00000  Uiso   1.00
H1352  H     0.39533   0.59382   0.88037   0.00000  Uiso   1.00
C1353  C     0.56303   0.44586   0.62591   0.00000  Uiso   1.00
O1354  O     0.56336   0.40505   0.62454   0.00000  Uiso   1.00
O1355  O     0.59033   0.46660   0.65488   0.00000  Uiso   1.00
H1356  H     0.60991   0.44424   0.67161   0.00000  Uiso   1.00
C1357  C     0.38440   0.49571   0.94801   0.00000  Uiso   1.00
O1358  O     0.35566   0.52261   0.95203   0.00000  Uiso   1.00
O1359  O     0.38100   0.46115   0.91774   0.00000  Uiso   1.00
H1360  H     0.35363   0.46250   0.90039   0.00000  Uiso   1.00
C1361  C     0.60933   0.44350   0.55045   0.00000  Uiso   1.00
O1362  O     0.62694   0.47244   0.57063   0.00000  Uiso   1.00
O1363  O     0.62594   0.39965   0.55064   0.00000  Uiso   1.00
H1364  H     0.65280   0.39588   0.56880   0.00000  Uiso   1.00
C1365  C     0.38763   0.49172   0.54547   0.00000  Uiso   1.00
O1366  O     0.35726   0.51692   0.54091   0.00000  Uiso   1.00
O1367  O     0.38902   0.45595   0.57665   0.00000  Uiso   1.00
H1368  H     0.36470   0.45618   0.59648   0.00000  Uiso   1.00
C1369  C     0.60140   0.42879   0.95600   0.00000  Uiso   1.00
O1370  O     0.63752   0.43581   0.96394   0.00000  Uiso   1.00
O1371  O     0.59059   0.39704   0.92476   0.00000  Uiso   1.00
H1372  H     0.61535   0.38190   0.91129   0.00000  Uiso   1.00
N1373  N     0.38087   0.42638   0.79024   0.00000  Uiso   1.00
O1374  O     0.40315   0.43184   0.82657   0.00000  Uiso   1.00
O1375  O     0.37989   0.38692   0.77308   0.00000  Uiso   1.00
N1376  N     0.61907   0.57185   0.70724   0.00000  Uiso   1.00
O1377  O     0.59756   0.56448   0.67081   0.00000  Uiso   1.00
O1378  O     0.61936   0.61211   0.72260   0.00000  Uiso   1.00
N1379  N     0.63014   0.42128   0.78228   0.00000  Uiso   1.00
O1380  O     0.61585   0.39320   0.75372   0.00000  Uiso   1.00
O1381  O     0.63891   0.40725   0.82325   0.00000  Uiso   1.00
N1382  N     0.36979   0.57805   0.71702   0.00000  Uiso   1.00
O1383  O     0.38368   0.60672   0.74520   0.00000  Uiso   1.00
O1384  O     0.36151   0.59120   0.67569   0.00000  Uiso   1.00
C1385  C     0.52589   0.37679   0.82846   0.00000  Uiso   1.00
O1386  O     0.55926   0.39311   0.83238   0.00000  Uiso   1.00
O1387  O     0.49940   0.37689   0.86398   0.00000  Uiso   1.00
H1388  H     0.51110   0.39206   0.89124   0.00000  Uiso   1.00
C1389  C     0.47409   0.62356   0.67175   0.00000  Uiso   1.00
O1390  O     0.43931   0.61118   0.66657   0.00000  Uiso   1.00
O1391  O     0.50170   0.62043   0.63737   0.00000  Uiso   1.00
H1392  H     0.48945   0.60687   0.60948   0.00000  Uiso   1.00
C1393  C     0.46259   0.38434   0.67637   0.00000  Uiso   1.00
O1394  O     0.43061   0.40535   0.68279   0.00000  Uiso   1.00
O1395  O     0.47753   0.38265   0.63331   0.00000  Uiso   1.00
H1396  H     0.45975   0.40115   0.61053   0.00000  Uiso   1.00
C1397  C     0.53712   0.61583   0.82367   0.00000  Uiso   1.00
O1398  O     0.52253   0.61462   0.86065   0.00000  Uiso   1.00
O1399  O     0.57550   0.59535   0.81709   0.00000  Uiso   1.00
H1400  H     0.58817   0.58025   0.84535   0.00000  Uiso   1.00
O1401  O     0.77226   0.53821   0.74999   0.00000  Uiso   1.00
O1402  O     0.89441   0.46179   0.75000   0.00000  Uiso   1.00
O1403  O     0.89441   0.53821   0.75000   0.00000  Uiso   1.00
O1404  O     0.77226   0.46179   0.74999   0.00000  Uiso   1.00
C1405  C     0.75339   0.50080   0.75065   0.00000  Uiso   1.00
C1406  C     0.91325   0.49915   0.74925   0.00000  Uiso   1.00
O1407  O     0.83333   0.53823   0.68393   0.00000  Uiso   1.00
O1408  O     0.83334   0.46177   0.81607   0.00000  Uiso   1.00
O1409  O     0.83334   0.53823   0.81607   0.00000  Uiso   1.00
O1410  O     0.83333   0.46177   0.68392   0.00000  Uiso   1.00
C1411  C     0.83413   0.50011   0.66353   0.00000  Uiso   1.00
C1412  C     0.83361   0.49955   0.83638   0.00000  Uiso   1.00
Zn1413 Zn    0.83333   0.55104   0.75000   0.00000  Uiso   1.00
Zn1414 Zn    0.83333   0.44896   0.75000   0.00000  Uiso   1.00
C1415  C     0.86959   0.48475   0.90870   0.00000  Uiso   1.00
C1416  C     0.79957   0.51157   0.58979   0.00000  Uiso   1.00
C1417  C     0.83338   0.49798   0.88436   0.00000  Uiso   1.00
C1418  C     0.83505   0.49830   0.61530   0.00000  Uiso   1.00
C1419  C     0.79686   0.50846   0.90552   0.00000  Uiso   1.00
C1420  C     0.86715   0.47338   0.59608   0.00000  Uiso   1.00
C1421  C     0.79487   0.49897   0.95166   0.00000  Uiso   1.00
C1422  C     0.86821   0.47157   0.54883   0.00000  Uiso   1.00
C1423  C     0.83147   0.48541   0.97647   0.00000  Uiso   1.00
C1424  C     0.83211   0.48538   0.52332   0.00000  Uiso   1.00
C1425  C     0.86782   0.47422   0.95458   0.00000  Uiso   1.00
C1426  C     0.79643   0.49999   0.54462   0.00000  Uiso   1.00
C1427  C     0.75721   0.50064   0.97367   0.00000  Uiso   1.00
C1428  C     0.90317   0.45519   0.52627   0.00000  Uiso   1.00
C1429  C     0.75822   0.50054   0.52070   0.00000  Uiso   1.00
C1430  C     0.90190   0.45404   0.97925   0.00000  Uiso   1.00
C1431  C     0.69043   0.46349   0.76948   0.00000  Uiso   1.00
C1432  C     0.97619   0.53587   0.72994   0.00000  Uiso   1.00
C1433  C     0.98146   0.46108   0.76589   0.00000  Uiso   1.00
C1434  C     0.68513   0.53851   0.73392   0.00000  Uiso   1.00
C1435  C     0.95752   0.49788   0.74731   0.00000  Uiso   1.00
C1436  C     0.70911   0.50184   0.75268   0.00000  Uiso   1.00
C1437  C     0.84721   0.35538   0.78682   0.00000  Uiso   1.00
C1438  C     0.81959   0.64473   0.71323   0.00000  Uiso   1.00
C1439  C     0.81785   0.35902   0.71381   0.00000  Uiso   1.00
C1440  C     0.84856   0.64106   0.78631   0.00000  Uiso   1.00
N1441  N     0.83333   0.61907   0.75000   0.00000  Uiso   1.00
N1442  N     0.83333   0.38093   0.75000   0.00000  Uiso   1.00
N1443  N     0.90860   0.49225   0.88957   0.00000  Uiso   1.00
O1444  O     0.91681   0.47841   0.85004   0.00000  Uiso   1.00
O1445  O     0.93456   0.51722   0.91017   0.00000  Uiso   1.00
N1446  N     0.76647   0.53592   0.60978   0.00000  Uiso   1.00
O1447  O     0.74959   0.51941   0.64484   0.00000  Uiso   1.00
O1448  O     0.74944   0.57129   0.58923   0.00000  Uiso   1.00
C1449  C     0.76415   0.53695   0.88134   0.00000  Uiso   1.00
O1450  O     0.74851   0.52506   0.84612   0.00000  Uiso   1.00
O1451  O     0.75111   0.57740   0.89956   0.00000  Uiso   1.00
H1452  H     0.72866   0.59382   0.88037   0.00000  Uiso   1.00
C1453  C     0.89636   0.44586   0.62591   0.00000  Uiso   1.00
O1454  O     0.89669   0.40505   0.62454   0.00000  Uiso   1.00
O1455  O     0.92366   0.46660   0.65488   0.00000  Uiso   1.00
H1456  H     0.94324   0.44424   0.67161   0.00000  Uiso   1.00
C1457  C     0.71773   0.49571   0.94801   0.00000  Uiso   1.00
O1458  O     0.68899   0.52261   0.95203   0.00000  Uiso   1.00
O1459  O     0.71434   0.46115   0.91774   0.00000  Uiso   1.00
H1460  H     0.68696   0.46250   0.90039   0.00000  Uiso   1.00
C1461  C     0.94266   0.44350   0.55045   0.00000  Uiso   1.00
O1462  O     0.96027   0.47244   0.57063   0.00000  Uiso   1.00
O1463  O     0.95927   0.39965   0.55064   0.00000  Uiso   1.00
H1464  H     0.98614   0.39588   0.56880   0.00000  Uiso   1.00
C1465  C     0.72096   0.49172   0.54547   0.00000  Uiso   1.00
O1466  O     0.69059   0.51692   0.54091   0.00000  Uiso   1.00
O1467  O     0.72235   0.45595   0.57665   0.00000  Uiso   1.00
H1468  H     0.69804   0.45618   0.59648   0.00000  Uiso   1.00
C1469  C     0.93473   0.42879   0.95600   0.00000  Uiso   1.00
O1470  O     0.97085   0.43581   0.96394   0.00000  Uiso   1.00
O1471  O     0.92392   0.39704   0.92476   0.00000  Uiso   1.00
H1472  H     0.94868   0.38190   0.91129   0.00000  Uiso   1.00
N1473  N     0.71420   0.42638   0.79024   0.00000  Uiso   1.00
O1474  O     0.73648   0.43184   0.82657   0.00000  Uiso   1.00
O1475  O     0.71322   0.38692   0.77308   0.00000  Uiso   1.00
N1476  N     0.95241   0.57185   0.70724   0.00000  Uiso   1.00
O1477  O     0.93089   0.56448   0.67081   0.00000  Uiso   1.00
O1478  O     0.95270   0.61211   0.72260   0.00000  Uiso   1.00
N1479  N     0.96348   0.42128   0.78228   0.00000  Uiso   1.00
O1480  O     0.94918   0.39320   0.75372   0.00000  Uiso   1.00
O1481  O     0.97224   0.40725   0.82325   0.00000  Uiso   1.00
N1482  N     0.70313   0.57805   0.71702   0.00000  Uiso   1.00
O1483  O     0.71701   0.60672   0.74520   0.00000  Uiso   1.00
O1484  O     0.69484   0.59120   0.67569   0.00000  Uiso   1.00
C1485  C     0.85922   0.37679   0.82846   0.00000  Uiso   1.00
O1486  O     0.89259   0.39311   0.83238   0.00000  Uiso   1.00
O1487  O     0.83274   0.37689   0.86398   0.00000  Uiso   1.00
H1488  H     0.84443   0.39206   0.89124   0.00000  Uiso   1.00
C1489  C     0.80742   0.62356   0.67175   0.00000  Uiso   1.00
O1490  O     0.77264   0.61118   0.66657   0.00000  Uiso   1.00
O1491  O     0.83503   0.62043   0.63737   0.00000  Uiso   1.00
H1492  H     0.82278   0.60687   0.60948   0.00000  Uiso   1.00
C1493  C     0.79593   0.38434   0.67637   0.00000  Uiso   1.00
O1494  O     0.76394   0.40535   0.68279   0.00000  Uiso   1.00
O1495  O     0.81086   0.38265   0.63331   0.00000  Uiso   1.00
H1496  H     0.79309   0.40115   0.61053   0.00000  Uiso   1.00
C1497  C     0.87045   0.61583   0.82367   0.00000  Uiso   1.00
O1498  O     0.85586   0.61462   0.86065   0.00000  Uiso   1.00
O1499  O     0.90883   0.59535   0.81709   0.00000  Uiso   1.00
H1500  H     0.92151   0.58025   0.84535   0.00000  Uiso   1.00
O1501  O     0.10559   0.87154   0.74999   0.00000  Uiso   1.00
O1502  O     0.22774   0.79513   0.75000   0.00000  Uiso   1.00
O1503  O     0.22774   0.87154   0.75000   0.00000  Uiso   1.00
O1504  O     0.10559   0.79513   0.74999   0.00000  Uiso   1.00
C1505  C     0.08672   0.83413   0.75065   0.00000  Uiso   1.00
C1506  C     0.24659   0.83248   0.74925   0.00000  Uiso   1.00
O1507  O     0.16666   0.87156   0.68393   0.00000  Uiso   1.00
O1508  O     0.16667   0.79511   0.81607   0.00000  Uiso   1.00
O1509  O     0.16667   0.87156   0.81607   0.00000  Uiso   1.00
O1510  O     0.16666   0.79511   0.68392   0.00000  Uiso   1.00
C1511  C     0.16747   0.83345   0.66353   0.00000  Uiso   1.00
C1512  C     0.16694   0.83289   0.83638   0.00000  Uiso   1.00
Zn1513 Zn    0.16667   0.88437   0.75000   0.00000  Uiso   1.00
Zn1514 Zn    0.16667   0.78229   0.75000   0.00000  Uiso   1.00
C1515  C     0.20293   0.81808   0.90870   0.00000  Uiso   1.00
C1516  C     0.13291   0.84490   0.58979   0.00000  Uiso   1.00
C1517  C     0.16671   0.83132   0.88436   0.00000  Uiso   1.00
C1518  C     0.16839   0.83163   0.61530   0.00000  Uiso   1.00
C1519  C     0.13019   0.84179   0.90552   0.00000  Uiso   1.00
C1520  C     0.20048   0.80671   0.59608   0.00000  Uiso   1.00
C1521  C     0.12821   0.83230   0.95166   0.00000  Uiso   1.00
C1522  C     0.20155   0.80490   0.54883   0.00000  Uiso   1.00
C1523  C     0.16481   0.81874   0.97647   0.00000  Uiso   1.00
C1524  C     0.16545   0.81871   0.52332   0.00000  Uiso   1.00
C1525  C     0.20115   0.80755   0.95458   0.00000  Uiso   1.00
C1526  C     0.12976   0.83332   0.54462   0.00000  Uiso   1.00
C1527  C     0.09055   0.83398   0.97367   0.00000  Uiso   1.00
C1528  C     0.23650   0.78852   0.52627   0.00000  Uiso   1.00
C1529  C     0.09155   0.83387   0.52070   0.00000  Uiso   1.00
C1530  C     0.23523   0.78737   0.97925   0.00000  Uiso   1.00
C1531  C     0.02376   0.79682   0.76948   0.00000  Uiso   1.00
C1532  C     0.30953   0.86920   0.72994   0.00000  Uiso   1.00
C1533  C     0.31479   0.79442   0.76589   0.00000  Uiso   1.00
C1534  C     0.01846   0.87184   0.73392   0.00000  Uiso   1.00
C1535  C     0.29085   0.83122   0.74731   0.00000  Uiso   1.00
C1536  C     0.04245   0.83517   0.75268   0.00000  Uiso   1.00
C1537  C     0.18054   0.68871   0.78682   0.00000  Uiso   1.00
C1538  C     0.15292   0.97807   0.71323   0.00000  Uiso   1.00
C1539  C     0.15119   0.69235   0.71381   0.00000  Uiso   1.00
C1540  C     0.18190   0.97439   0.78631   0.00000  Uiso   1.00
N1541  N     0.16667   0.95240   0.75000   0.00000  Uiso   1.00
N1542  N     0.16667   0.71427   0.75000   0.00000  Uiso   1.00
N1543  N     0.24193   0.82558   0.88957   0.00000  Uiso   1.00
O1544  O     0.25014   0.81174   0.85004   0.00000  Uiso   1.00
O1545  O     0.26789   0.85055   0.91017   0.00000  Uiso   1.00
N1546  N     0.09980   0.86925   0.60978   0.00000  Uiso   1.00
O1547  O     0.08293   0.85274   0.64484   0.00000  Uiso   1.00
O1548  O     0.08277   0.90463   0.58923   0.00000  Uiso   1.00
C1549  C     0.09748   0.87028   0.88134   0.00000  Uiso   1.00
O1550  O     0.08184   0.85839   0.84612   0.00000  Uiso   1.00
O1551  O     0.08444   0.91073   0.89956   0.00000  Uiso   1.00
H1552  H     0.06200   0.92715   0.88037   0.00000  Uiso   1.00
C1553  C     0.22969   0.77919   0.62591   0.00000  Uiso   1.00
O1554  O     0.23003   0.73839   0.62454   0.00000  Uiso   1.00
O1555  O     0.25699   0.79994   0.65488   0.00000  Uiso   1.00
H1556  H     0.27658   0.77757   0.67161   0.00000  Uiso   1.00
C1557  C     0.05107   0.82905   0.94801   0.00000  Uiso   1.00
O1558  O     0.02233   0.85594   0.95203   0.00000  Uiso   1.00
O1559  O     0.04767   0.79449   0.91774   0.00000  Uiso   1.00
H1560  H     0.02030   0.79583   0.90039   0.00000  Uiso   1.00
C1561  C     0.27600   0.77683   0.55045   0.00000  Uiso   1.00
O1562  O     0.29361   0.80577   0.57063   0.00000  Uiso   1.00
O1563  O     0.29261   0.73298   0.55064   0.00000  Uiso   1.00
H1564  H     0.31947   0.72921   0.56880   0.00000  Uiso   1.00
C1565  C     0.05430   0.82505   0.54547   0.00000  Uiso   1.00
O1566  O     0.02392   0.85025   0.54091   0.00000  Uiso   1.00
O1567  O     0.05568   0.78929   0.57665   0.00000  Uiso   1.00
H1568  H     0.03137   0.78951   0.59648   0.00000  Uiso   1.00
C1569  C     0.26807   0.76212   0.95600   0.00000  Uiso   1.00
O1570  O     0.30418   0.76914   0.96394   0.00000  Uiso   1.00
O1571  O     0.25725   0.73037   0.92476   0.00000  Uiso   1.00
H1572  H     0.28201   0.71523   0.91129   0.00000  Uiso   1.00
N1573  N     0.04754   0.75971   0.79024   0.00000  Uiso   1.00
O1574  O     0.06982   0.76518   0.82657   0.00000  Uiso   1.00
O1575  O     0.04655   0.72025   0.77308   0.00000  Uiso   1.00
N1576  N     0.28574   0.90519   0.70724   0.00000  Uiso   1.00
O1577  O     0.26423   0.89782   0.67081   0.00000  Uiso   1.00
O1578  O     0.28603   0.94545   0.72260   0.00000  Uiso   1.00
N1579  N     0.29681   0.75462   0.78228   0.00000  Uiso   1.00
O1580  O     0.28252   0.72654   0.75372   0.00000  Uiso   1.00
O1581  O     0.30557   0.74058   0.82325   0.00000  Uiso   1.00
N1582  N     0.03646   0.91138   0.71702   0.00000  Uiso   1.00
O1583  O     0.05035   0.94006   0.74520   0.00000  Uiso   1.00
O1584  O     0.02817   0.92454   0.67569   0.00000  Uiso   1.00
C1585  C     0.19256   0.71012   0.82846   0.00000  Uiso   1.00
O1586  O     0.22593   0.72644   0.83238   0.00000  Uiso   1.00
O1587  O     0.16607   0.71022   0.86398   0.00000  Uiso   1.00
H1588  H     0.17777   0.72540   0.89124   0.00000  Uiso   1.00
C1589  C     0.14075   0.95689   0.67175   0.00000  Uiso   1.00
O1590  O     0.10598   0.94451   0.66657   0.00000  Uiso   1.00
O1591  O     0.16836   0.95377   0.63737   0.00000  Uiso   1.00
H1592  H     0.15611   0.94020   0.60948   0.00000  Uiso   1.00
C1593  C     0.12926   0.71767   0.67637   0.00000  Uiso   1.00
O1594  O     0.09727   0.73868   0.68279   0.00000  Uiso   1.00
O1595  O     0.14419   0.71598   0.63331   0.00000  Uiso   1.00
H1596  H     0.12642   0.73448   0.61053   0.00000  Uiso   1.00
C1597  C     0.20378   0.94916   0.82367   0.00000  Uiso   1.00
O1598  O     0.18920   0.94796   0.86065   0.00000  Uiso   1.00
O1599  O     0.24217   0.92868   0.81709   0.00000  Uiso   1.00
H1600  H     0.25484   0.91359   0.84535   0.00000  Uiso   1.00
O1601  O     0.43892   0.87154   0.74999   0.00000  Uiso   1.00
O1602  O     0.56108   0.79513   0.75000   0.00000  Uiso   1.00
O1603  O     0.56108   0.87154   0.75000   0.00000  Uiso   1.00
O1604  O     0.43892   0.79513   0.74999   0.00000  Uiso   1.00
C1605  C     0.42006   0.83413   0.75065   0.00000  Uiso   1.00
C1606  C     0.57992   0.83248   0.74925   0.00000  Uiso   1.00
O1607  O     0.49999   0.87156   0.68393   0.00000  Uiso   1.00
O1608  O     0.50001   0.79511   0.81607   0.00000  Uiso   1.00
O1609  O     0.50001   0.87156   0.81607   0.00000  Uiso   1.00
O1610  O     0.49999   0.79511   0.68392   0.00000  Uiso   1.00
C1611  C     0.50080   0.83345   0.66353   0.00000  Uiso   1.00
C1612  C     0.50027   0.83289   0.83638   0.00000  Uiso   1.00
Zn1613 Zn    0.50000   0.88437   0.75000   0.00000  Uiso   1.00
Zn1614 Zn    0.50000   0.78229   0.75000   0.00000  Uiso   1.00
C1615  C     0.53626   0.81808   0.90870   0.00000  Uiso   1.00
C1616  C     0.46624   0.84490   0.58979   0.00000  Uiso   1.00
C1617  C     0.50005   0.83132   0.88436   0.00000  Uiso   1.00
C1618  C     0.50172   0.83163   0.61530   0.00000  Uiso   1.00
C1619  C     0.46353   0.84179   0.90552   0.00000  Uiso   1.00
C1620  C     0.53382   0.80671   0.59608   0.00000  Uiso   1.00
C1621  C     0.46154   0.83230   0.95166   0.00000  Uiso   1.00
C1622  C     0.53488   0.80490   0.54883   0.00000  Uiso   1.00
C1623  C     0.49814   0.81874   0.97647   0.00000  Uiso   1.00
C1624  C     0.49878   0.81871   0.52332   0.00000  Uiso   1.00
C1625  C     0.53448   0.80755   0.95458   0.00000  Uiso   1.00
C1626  C     0.46309   0.83332   0.54462   0.00000  Uiso   1.00
C1627  C     0.42388   0.83398   0.97367   0.00000  Uiso   1.00
C1628  C     0.56984   0.78852   0.52627   0.00000  Uiso   1.00
C1629  C     0.42488   0.83387   0.52070   0.00000  Uiso   1.00
C1630  C     0.56857   0.78737   0.97925   0.00000  Uiso   1.00
C1631  C     0.35709   0.79682   0.76948   0.00000  Uiso   1.00
C1632  C     0.64286   0.86920   0.72994   0.00000  Uiso   1.00
C1633  C     0.64813   0.79442   0.76589   0.00000  Uiso   1.00
C1634  C     0.35179   0.87184   0.73392   0.00000  Uiso   1.00
C1635  C     0.62419   0.83122   0.74731   0.00000  Uiso   1.00
C1636  C     0.37578   0.83517   0.75268   0.00000  Uiso   1.00
C1637  C     0.51387   0.68871   0.78682   0.00000  Uiso   1.00
C1638  C     0.48625   0.97807   0.71323   0.00000  Uiso   1.00
C1639  C     0.48452   0.69235   0.71381   0.00000  Uiso   1.00
C1640  C     0.51523   0.97439   0.78631   0.00000  Uiso   1.00
N1641  N     0.50000   0.95240   0.75000   0.00000  Uiso   1.00
N1642  N     0.50000   0.71427   0.75000   0.00000  Uiso   1.00
N1643  N     0.57526   0.82558   0.88957   0.00000  Uiso   1.00
O1644  O     0.58348   0.81174   0.85004   0.00000  Uiso   1.00
O1645  O     0.60123   0.85055   0.91017   0.00000  Uiso   1.00
N1646  N     0.43314   0.86925   0.60978   0.00000  Uiso   1.00
O1647  O     0.41626   0.85274   0.64484   0.00000  Uiso   1.00
O1648  O     0.41611   0.90463   0.58923   0.00000  Uiso   1.00
C1649  C     0.43082   0.87028   0.88134   0.00000  Uiso   1.00
O1650  O     0.41517   0.85839   0.84612   0.00000  Uiso   1.00
O1651  O     0.41777   0.91073   0.89956   0.00000  Uiso   1.00
H1652  H     0.39533   0.92715   0.88037   0.00000  Uiso   1.00
C1653  C     0.56303   0.77919   0.62591   0.00000  Uiso   1.00
O1654  O     0.56336   0.73839   0.62454   0.00000  Uiso   1.00
O1655  O     0.59033   0.79994   0.65488   0.00000  Uiso   1.00
H1656  H     0.60991   0.77757   0.67161   0.00000  Uiso   1.00
C1657  C     0.38440   0.82905   0.94801   0.00000  Uiso   1.00
O1658  O     0.35566   0.85594   0.95203   0.00000  Uiso   1.00
O1659  O     0.38100   0.79449   0.91774   0.00000  Uiso   1.00
H1660  H     0.35363   0.79583   0.90039   0.00000  Uiso   1.00
C1661  C     0.60933   0.77683   0.55045   0.00000  Uiso   1.00
O1662  O     0.62694   0.80577   0.57063   0.00000  Uiso   1.00
O1663  O     0.62594   0.73298   0.55064   0.00000  Uiso   1.00
H1664  H     0.65280   0.72921   0.56880   0.00000  Uiso   1.00
C1665  C     0.38763   0.82505   0.54547   0.00000  Uiso   1.00
O1666  O     0.35726   0.85025   0.54091   0.00000  Uiso   1.00
O1667  O     0.38902   0.78929   0.57665   0.00000  Uiso   1.00
H1668  H     0.36470   0.78951   0.59648   0.00000  Uiso   1.00
C1669  C     0.60140   0.76212   0.95600   0.00000  Uiso   1.00
O1670  O     0.63752   0.76914   0.96394   0.00000  Uiso   1.00
O1671  O     0.59059   0.73037   0.92476   0.00000  Uiso   1.00
H1672  H     0.61535   0.71523   0.91129   0.00000  Uiso   1.00
N1673  N     0.38087   0.75971   0.79024   0.00000  Uiso   1.00
O1674  O     0.40315   0.76518   0.82657   0.00000  Uiso   1.00
O1675  O     0.37989   0.72025   0.77308   0.00000  Uiso   1.00
N1676  N     0.61907   0.90519   0.70724   0.00000  Uiso   1.00
O1677  O     0.59756   0.89782   0.67081   0.00000  Uiso   1.00
O1678  O     0.61936   0.94545   0.72260   0.00000  Uiso   1.00
N1679  N     0.63014   0.75462   0.78228   0.00000  Uiso   1.00
O1680  O     0.61585   0.72654   0.75372   0.00000  Uiso   1.00
O1681  O     0.63891   0.74058   0.82325   0.00000  Uiso   1.00
N1682  N     0.36979   0.91138   0.71702   0.00000  Uiso   1.00
O1683  O     0.38368   0.94006   0.74520   0.00000  Uiso   1.00
O1684  O     0.36151   0.92454   0.67569   0.00000  Uiso   1.00
C1685  C     0.52589   0.71012   0.82846   0.00000  Uiso   1.00
O1686  O     0.55926   0.72644   0.83238   0.00000  Uiso   1.00
O1687  O     0.49940   0.71022   0.86398   0.00000  Uiso   1.00
H1688  H     0.51110   0.72540   0.89124   0.00000  Uiso   1.00
C1689  C     0.47409   0.95689   0.67175   0.00000  Uiso   1.00
O1690  O     0.43931   0.94451   0.66657   0.00000  Uiso   1.00
O1691  O     0.50170   0.95377   0.63737   0.00000  Uiso   1.00
H1692  H     0.48945   0.94020   0.60948   0.00000  Uiso   1.00
C1693  C     0.46259   0.71767   0.67637   0.00000  Uiso   1.00
O1694  O     0.43061   0.73868   0.68279   0.00000  Uiso   1.00
O1695  O     0.47753   0.71598   0.63331   0.00000  Uiso   1.00
H1696  H     0.45975   0.73448   0.61053   0.00000  Uiso   1.00
C1697  C     0.53712   0.94916   0.82367   0.00000  Uiso   1.00
O1698  O     0.52253   0.94796   0.86065   0.00000  Uiso   1.00
O1699  O     0.57550   0.92868   0.81709   0.00000  Uiso   1.00
H1700  H     0.58817   0.91359   0.84535   0.00000  Uiso   1.00
O1701  O     0.77226   0.87154   0.74999   0.00000  Uiso   1.00
O1702  O     0.89441   0.79513   0.75000   0.00000  Uiso   1.00
O1703  O     0.89441   0.87154   0.75000   0.00000  Uiso   1.00
O1704  O     0.77226   0.79513   0.74999   0.00000  Uiso   1.00
C1705  C     0.75339   0.83413   0.75065   0.00000  Uiso   1.00
C1706  C     0.91325   0.83248   0.74925   0.00000  Uiso   1.00
O1707  O     0.83333   0.87156   0.68393   0.00000  Uiso   1.00
O1708  O     0.83334   0.79511   0.81607   0.00000  Uiso   1.00
O1709  O     0.83334   0.87156   0.81607   0.00000  Uiso   1.00
O1710  O     0.83333   0.79511   0.68392   0.00000  Uiso   1.00
C1711  C     0.83413   0.83345   0.66353   0.00000  Uiso   1.00
C1712  C     0.83361   0.83289   0.83638   0.00000  Uiso   1.00
Zn1713 Zn    0.83333   0.88437   0.75000   0.00000  Uiso   1.00
Zn1714 Zn    0.83333   0.78229   0.75000   0.00000  Uiso   1.00
C1715  C     0.86959   0.81808   0.90870   0.00000  Uiso   1.00
C1716  C     0.79957   0.84490   0.58979   0.00000  Uiso   1.00
C1717  C     0.83338   0.83132   0.88436   0.00000  Uiso   1.00
C1718  C     0.83505   0.83163   0.61530   0.00000  Uiso   1.00
C1719  C     0.79686   0.84179   0.90552   0.00000  Uiso   1.00
C1720  C     0.86715   0.80671   0.59608   0.00000  Uiso   1.00
C1721  C     0.79487   0.83230   0.95166   0.00000  Uiso   1.00
C1722  C     0.86821   0.80490   0.54883   0.00000  Uiso   1.00
C1723  C     0.83147   0.81874   0.97647   0.00000  Uiso   1.00
C1724  C     0.83211   0.81871   0.52332   0.00000  Uiso   1.00
C1725  C     0.86782   0.80755   0.95458   0.00000  Uiso   1.00
C1726  C     0.79643   0.83332   0.54462   0.00000  Uiso   1.00
C1727  C     0.75721   0.83398   0.97367   0.00000  Uiso   1.00
C1728  C     0.90317   0.78852   0.52627   0.00000  Uiso   1.00
C1729  C     0.75822   0.83387   0.52070   0.00000  Uiso   1.00
C1730  C     0.90190   0.78737   0.97925   0.00000  Uiso   1.00
C1731  C     0.69043   0.79682   0.76948   0.00000  Uiso   1.00
C1732  C     0.97619   0.86920   0.72994   0.00000  Uiso   1.00
C1733  C     0.98146   0.79442   0.76589   0.00000  Uiso   1.00
C1734  C     0.68513   0.87184   0.73392   0.00000  Uiso   1.00
C1735  C     0.95752   0.83122   0.74731   0.00000  Uiso   1.00
C1736  C     0.70911   0.83517   0.75268   0.00000  Uiso   1.00
C1737  C     0.84721   0.68871   0.78682   0.00000  Uiso   1.00
C1738  C     0.81959   0.97807   0.71323   0.00000  Uiso   1.00
C1739  C     0.81785   0.69235   0.71381   0.00000  Uiso   1.00
C1740  C     0.84856   0.97439   0.78631   0.00000  Uiso   1.00
N1741  N     0.83333   0.95240   0.75000   0.00000  Uiso   1.00
N1742  N     0.83333   0.71427   0.75000   0.00000  Uiso   1.00
N1743  N     0.90860   0.82558   0.88957   0.00000  Uiso   1.00
O1744  O     0.91681   0.81174   0.85004   0.00000  Uiso   1.00
O1745  O     0.93456   0.85055   0.91017   0.00000  Uiso   1.00
N1746  N     0.76647   0.86925   0.60978   0.00000  Uiso   1.00
O1747  O     0.74959   0.85274   0.64484   0.00000  Uiso   1.00
O1748  O     0.74944   0.90463   0.58923   0.00000  Uiso   1.00
C1749  C     0.76415   0.87028   0.88134   0.00000  Uiso   1.00
O1750  O     0.74851   0.85839   0.84612   0.00000  Uiso   1.00
O1751  O     0.75111   0.91073   0.89956   0.00000  Uiso   1.00
H1752  H     0.72866   0.92715   0.88037   0.00000  Uiso   1.00
C1753  C     0.89636   0.77919   0.62591   0.00000  Uiso   1.00
O1754  O     0.89669   0.73839   0.62454   0.00000  Uiso   1.00
O1755  O     0.92366   0.79994   0.65488   0.00000  Uiso   1.00
H1756  H     0.94324   0.77757   0.67161   0.00000  Uiso   1.00
C1757  C     0.71773   0.82905   0.94801   0.00000  Uiso   1.00
O1758  O     0.68899   0.85594   0.95203   0.00000  Uiso   1.00
O1759  O     0.71434   0.79449   0.91774   0.00000  Uiso   1.00
H1760  H     0.68696   0.79583   0.90039   0.00000  Uiso   1.00
C1761  C     0.94266   0.77683   0.55045   0.00000  Uiso   1.00
O1762  O     0.96027   0.80577   0.57063   0.00000  Uiso   1.00
O1763  O     0.95927   0.73298   0.55064   0.00000  Uiso   1.00
H1764  H     0.98614   0.72921   0.56880   0.00000  Uiso   1.00
C1765  C     0.72096   0.82505   0.54547   0.00000  Uiso   1.00
O1766  O     0.69059   0.85025   0.54091   0.00000  Uiso   1.00
O1767  O     0.72235   0.78929   0.57665   0.00000  Uiso   1.00
H1768  H     0.69804   0.78951   0.59648   0.00000  Uiso   1.00
C1769  C     0.93473   0.76212   0.95600   0.00000  Uiso   1.00
O1770  O     0.97085   0.76914   0.96394   0.00000  Uiso   1.00
O1771  O     0.92392   0.73037   0.92476   0.00000  Uiso   1.00
H1772  H     0.94868   0.71523   0.91129   0.00000  Uiso   1.00
N1773  N     0.71420   0.75971   0.79024   0.00000  Uiso   1.00
O1774  O     0.73648   0.76518   0.82657   0.00000  Uiso   1.00
O1775  O     0.71322   0.72025   0.77308   0.00000  Uiso   1.00
N1776  N     0.95241   0.90519   0.70724   0.00000  Uiso   1.00
O1777  O     0.93089   0.89782   0.67081   0.00000  Uiso   1.00
O1778  O     0.95270   0.94545   0.72260   0.00000  Uiso   1.00
N1779  N     0.96348   0.75462   0.78228   0.00000  Uiso   1.00
O1780  O     0.94918   0.72654   0.75372   0.00000  Uiso   1.00
O1781  O     0.97224   0.74058   0.82325   0.00000  Uiso   1.00
N1782  N     0.70313   0.91138   0.71702   0.00000  Uiso   1.00
O1783  O     0.71701   0.94006   0.74520   0.00000  Uiso   1.00
O1784  O     0.69484   0.92454   0.67569   0.00000  Uiso   1.00
C1785  C     0.85922   0.71012   0.82846   0.00000  Uiso   1.00
O1786  O     0.89259   0.72644   0.83238   0.00000  Uiso   1.00
O1787  O     0.83274   0.71022   0.86398   0.00000  Uiso   1.00
H1788  H     0.84443   0.72540   0.89124   0.00000  Uiso   1.00
C1789  C     0.80742   0.95689   0.67175   0.00000  Uiso   1.00
O1790  O     0.77264   0.94451   0.66657   0.00000  Uiso   1.00
O1791  O     0.83503   0.95377   0.63737   0.00000  Uiso   1.00
H1792  H     0.82278   0.94020   0.60948   0.00000  Uiso   1.00
C1793  C     0.79593   0.71767   0.67637   0.00000  Uiso   1.00
O1794  O     0.76394   0.73868   0.68279   0.00000  Uiso   1.00
O1795  O     0.81086   0.71598   0.63331   0.00000  Uiso   1.00
H1796  H     0.79309   0.73448   0.61053   0.00000  Uiso   1.00
C1797  C     0.87045   0.94916   0.82367   0.00000  Uiso   1.00
O1798  O     0.85586   0.94796   0.86065   0.00000  Uiso   1.00
O1799  O     0.90883   0.92868   0.81709   0.00000  Uiso   1.00
H1800  H     0.92151   0.91359   0.84535   0.00000  Uiso   1.00
loop_
_geom_bond_atom_site_label_1
_geom_bond_atom_site_label_2
_geom_bond_distance
_geom_bond_site_symmetry_2
_ccdc_geom_bond_type
O1     C5      1.302   .     A
O1     Zn13    2.049   .     S
O2     C6      1.300   .     A
O2     Zn14    2.049   .     S
O3     C6      1.299   .     A
O3     Zn13    2.016   .     S
O4     C5      1.298   .     A
O4     Zn14    2.016   .     S
C5     C36     1.450   .     S
C6     C35     1.449   .     S
O7     C11     1.308   .     A
O7     Zn13    2.024   .     S
O8     C12     1.298   .     A
O8     Zn14    2.024   .     S
O9     Zn13    2.004   .     S
O9     C12     1.293   .     A
O10    Zn14    2.004   .     S
O10    C11     1.287   .     A
C11    C18     1.447   .     S
C12    C17     1.435   .     S
Zn13   N41     2.037   .     S
Zn14   N42     2.037   .     S
C15    C17     1.400   .     A
C15    N43     1.442   .     S
C15    C25     1.405   .     A
C16    C26     1.405   .     A
C16    N46     1.438   .     S
C16    C18     1.398   .     A
C17    C19     1.402   .     A
C18    C20     1.412   .     A
C19    C21     1.407   .     A
C19    C49     1.489   .     S
C20    C22     1.418   .     A
C20    C53     1.486   .     S
C21    C27     1.419   .     A
C21    C23     1.419   .     A
C22    C28     1.426   .     A
C22    C24     1.418   .     A
C23    C25     1.412   .     A
C23    C924    1.401   .     S
C24    C26     1.411   .     A
C24    C923    1.401   1_554 S
C25    C30     1.414   .     A
C26    C29     1.412   .     A
C27    C57     1.488   .     S
C27    C929    1.406   .     S
C28    C61     1.477   .     S
C28    C930    1.407   1_554 S
C29    C65     1.481   .     S
C29    C927    1.406   1_554 S
C30    C69     1.492   .     S
C30    C928    1.407   .     S
C31    N73     1.440   .     S
C31    C36     1.414   .     A
C31    C233    1.387   1_455 S
C32    C35     1.411   .     A
C32    N76     1.439   .     S
C32    C134    1.387   .     S
C33    C35     1.411   .     A
C33    N79     1.435   .     S
C33    C131    1.387   .     S
C34    C36     1.411   .     A
C34    N82     1.434   .     S
C34    C232    1.387   1_455 S
C37    C85     1.463   .     S
C37    N42     1.374   .     A
C37    C640    1.426   1_545 S
C38    C89     1.457   .     S
C38    N41     1.374   .     A
C38    C339    1.425   .     S
C39    C93     1.478   .     S
C39    N42     1.371   .     A
C39    C638    1.425   1_545 S
C40    N41     1.372   .     A
C40    C97     1.474   .     S
C40    C337    1.426   .     S
N43    O44     1.298   .     A
N43    O45     1.302   .     A
N46    O48     1.302   .     A
N46    O47     1.301   .     A
C49    O51     1.398   .     S
C49    O50     1.220   .     D
O51    H52     1.014   .     S
C53    O54     1.223   .     D
C53    O55     1.394   .     S
O55    H56     1.013   .     S
C57    O59     1.398   .     S
C57    O58     1.222   .     D
O59    H60     1.014   .     S
C61    O63     1.398   .     S
C61    O62     1.220   .     D
O63    H64     1.013   .     S
C65    O67     1.399   .     S
C65    O66     1.221   .     D
O67    H68     1.011   .     S
C69    O71     1.397   .     S
C69    O70     1.222   .     D
O71    H72     1.014   .     S
N73    O74     1.301   .     A
N73    O75     1.301   .     A
N76    O77     1.301   .     A
N76    O78     1.301   .     A
N79    O81     1.302   .     A
N79    O80     1.301   .     A
N82    O83     1.301   .     A
N82    O84     1.302   .     A
C85    O87     1.398   .     S
C85    O86     1.216   .     D
O87    H88     1.013   .     S
C89    O91     1.398   .     S
C89    O90     1.216   .     D
O91    H92     1.013   .     S
C93    O94     1.221   .     D
C93    O95     1.398   .     S
O95    H96     1.014   .     S
C97    O98     1.223   .     D
C97    O99     1.396   .     S
O99    H100    1.013   .     S
O101   C105    1.302   .     A
O101   Zn113   2.049   .     S
O102   C106    1.300   .     A
O102   Zn114   2.049   .     S
O103   C106    1.299   .     A
O103   Zn113   2.016   .     S
O104   C105    1.298   .     A
O104   Zn114   2.016   .     S
C105   C136    1.450   .     S
C106   C135    1.449   .     S
O107   C111    1.308   .     A
O107   Zn113   2.024   .     S
O108   C112    1.298   .     A
O108   Zn114   2.024   .     S
O109   Zn113   2.004   .     S
O109   C112    1.293   .     A
O110   Zn114   2.004   .     S
O110   C111    1.287   .     A
C111   C118    1.447   .     S
C112   C117    1.435   .     S
Zn113  N141    2.037   .     S
Zn114  N142    2.037   .     S
C115   C117    1.400   .     A
C115   N143    1.442   .     S
C115   C125    1.405   .     A
C116   C126    1.405   .     A
C116   N146    1.438   .     S
C116   C118    1.398   .     A
C117   C119    1.402   .     A
C118   C120    1.412   .     A
C119   C121    1.407   .     A
C119   C149    1.489   .     S
C120   C122    1.418   .     A
C120   C153    1.486   .     S
C121   C127    1.419   .     A
C121   C123    1.419   .     A
C122   C128    1.426   .     A
C122   C124    1.418   .     A
C123   C125    1.412   .     A
C123   C1024   1.401   .     S
C124   C126    1.411   .     A
C124   C1023   1.401   1_554 S
C125   C130    1.414   .     A
C126   C129    1.412   .     A
C127   C157    1.488   .     S
C127   C1029   1.406   .     S
C128   C161    1.477   .     S
C128   C1030   1.407   1_554 S
C129   C165    1.481   .     S
C129   C1027   1.406   1_554 S
C130   C169    1.492   .     S
C130   C1028   1.407   .     S
C131   N173    1.440   .     S
C131   C136    1.414   .     A
C132   C135    1.411   .     A
C132   N176    1.439   .     S
C132   C234    1.387   .     S
C133   C135    1.411   .     A
C133   N179    1.435   .     S
C133   C231    1.387   .     S
C134   C136    1.411   .     A
C134   N182    1.434   .     S
C137   C185    1.463   .     S
C137   N142    1.374   .     A
C137   C740    1.426   1_545 S
C138   C189    1.457   .     S
C138   N141    1.374   .     A
C138   C439    1.425   .     S
C139   C193    1.478   .     S
C139   N142    1.371   .     A
C139   C738    1.425   1_545 S
C140   N141    1.372   .     A
C140   C197    1.474   .     S
C140   C437    1.426   .     S
N143   O144    1.298   .     A
N143   O145    1.302   .     A
N146   O148    1.302   .     A
N146   O147    1.301   .     A
C149   O151    1.398   .     S
C149   O150    1.220   .     D
O151   H152    1.014   .     S
C153   O154    1.223   .     D
C153   O155    1.394   .     S
O155   H156    1.013   .     S
C157   O159    1.398   .     S
C157   O158    1.222   .     D
O159   H160    1.014   .     S
C161   O163    1.398   .     S
C161   O162    1.220   .     D
O163   H164    1.013   .     S
C165   O167    1.399   .     S
C165   O166    1.221   .     D
O167   H168    1.011   .     S
C169   O171    1.397   .     S
C169   O170    1.222   .     D
O171   H172    1.014   .     S
N173   O174    1.301   .     A
N173   O175    1.301   .     A
N176   O177    1.301   .     A
N176   O178    1.301   .     A
N179   O181    1.302   .     A
N179   O180    1.301   .     A
N182   O183    1.301   .     A
N182   O184    1.302   .     A
C185   O187    1.398   .     S
C185   O186    1.216   .     D
O187   H188    1.013   .     S
C189   O191    1.398   .     S
C189   O190    1.216   .     D
O191   H192    1.013   .     S
C193   O194    1.221   .     D
C193   O195    1.398   .     S
O195   H196    1.014   .     S
C197   O198    1.223   .     D
C197   O199    1.396   .     S
O199   H200    1.013   .     S
O201   C205    1.302   .     A
O201   Zn213   2.049   .     S
O202   C206    1.300   .     A
O202   Zn214   2.049   .     S
O203   C206    1.299   .     A
O203   Zn213   2.016   .     S
O204   C205    1.298   .     A
O204   Zn214   2.016   .     S
C205   C236    1.450   .     S
C206   C235    1.449   .     S
O207   C211    1.308   .     A
O207   Zn213   2.024   .     S
O208   C212    1.298   .     A
O208   Zn214   2.024   .     S
O209   Zn213   2.004   .     S
O209   C212    1.293   .     A
O210   Zn214   2.004   .     S
O210   C211    1.287   .     A
C211   C218    1.447   .     S
C212   C217    1.435   .     S
Zn213  N241    2.037   .     S
Zn214  N242    2.037   .     S
C215   C217    1.400   .     A
C215   N243    1.442   .     S
C215   C225    1.405   .     A
C216   C226    1.405   .     A
C216   N246    1.438   .     S
C216   C218    1.398   .     A
C217   C219    1.402   .     A
C218   C220    1.412   .     A
C219   C221    1.407   .     A
C219   C249    1.489   .     S
C220   C222    1.418   .     A
C220   C253    1.486   .     S
C221   C227    1.419   .     A
C221   C223    1.419   .     A
C222   C228    1.426   .     A
C222   C224    1.418   .     A
C223   C225    1.412   .     A
C223   C1124   1.401   .     S
C224   C226    1.411   .     A
C224   C1123   1.401   1_554 S
C225   C230    1.414   .     A
C226   C229    1.412   .     A
C227   C257    1.488   .     S
C227   C1129   1.406   .     S
C228   C261    1.477   .     S
C228   C1130   1.407   1_554 S
C229   C265    1.481   .     S
C229   C1127   1.406   1_554 S
C230   C269    1.492   .     S
C230   C1128   1.407   .     S
C231   N273    1.440   .     S
C231   C236    1.414   .     A
C232   C235    1.411   .     A
C232   N276    1.439   .     S
C232   C34     1.387   1_655 S
C233   C235    1.411   .     A
C233   N279    1.435   .     S
C233   C31     1.387   1_655 S
C234   C236    1.411   .     A
C234   N282    1.434   .     S
C237   C285    1.463   .     S
C237   N242    1.374   .     A
C237   C840    1.426   1_545 S
C238   C289    1.457   .     S
C238   N241    1.374   .     A
C238   C539    1.425   .     S
C239   C293    1.478   .     S
C239   N242    1.371   .     A
C239   C838    1.425   1_545 S
C240   N241    1.372   .     A
C240   C297    1.474   .     S
C240   C537    1.426   .     S
N243   O244    1.298   .     A
N243   O245    1.302   .     A
N246   O248    1.302   .     A
N246   O247    1.301   .     A
C249   O251    1.398   .     S
C249   O250    1.220   .     D
O251   H252    1.014   .     S
C253   O254    1.223   .     D
C253   O255    1.394   .     S
O255   H256    1.013   .     S
C257   O259    1.398   .     S
C257   O258    1.222   .     D
O259   H260    1.014   .     S
C261   O263    1.398   .     S
C261   O262    1.220   .     D
O263   H264    1.013   .     S
C265   O267    1.399   .     S
C265   O266    1.221   .     D
O267   H268    1.011   .     S
C269   O271    1.397   .     S
C269   O270    1.222   .     D
O271   H272    1.014   .     S
N273   O274    1.301   .     A
N273   O275    1.301   .     A
N276   O277    1.301   .     A
N276   O278    1.301   .     A
N279   O281    1.302   .     A
N279   O280    1.301   .     A
N282   O283    1.301   .     A
N282   O284    1.302   .     A
C285   O287    1.398   .     S
C285   O286    1.216   .     D
O287   H288    1.013   .     S
C289   O291    1.398   .     S
C289   O290    1.216   .     D
O291   H292    1.013   .     S
C293   O294    1.221   .     D
C293   O295    1.398   .     S
O295   H296    1.014   .     S
C297   O298    1.223   .     D
C297   O299    1.396   .     S
O299   H300    1.013   .     S
O301   C305    1.302   .     A
O301   Zn313   2.049   .     S
O302   C306    1.300   .     A
O302   Zn314   2.049   .     S
O303   C306    1.299   .     A
O303   Zn313   2.016   .     S
O304   C305    1.298   .     A
O304   Zn314   2.016   .     S
C305   C336    1.450   .     S
C306   C335    1.449   .     S
O307   C311    1.308   .     A
O307   Zn313   2.024   .     S
O308   C312    1.298   .     A
O308   Zn314   2.024   .     S
O309   Zn313   2.004   .     S
O309   C312    1.293   .     A
O310   Zn314   2.004   .     S
O310   C311    1.287   .     A
C311   C318    1.447   .     S
C312   C317    1.435   .     S
Zn313  N341    2.037   .     S
Zn314  N342    2.037   .     S
C315   C317    1.400   .     A
C315   N343    1.442   .     S
C315   C325    1.405   .     A
C316   C326    1.405   .     A
C316   N346    1.438   .     S
C316   C318    1.398   .     A
C317   C319    1.402   .     A
C318   C320    1.412   .     A
C319   C321    1.407   .     A
C319   C349    1.489   .     S
C320   C322    1.418   .     A
C320   C353    1.486   .     S
C321   C327    1.419   .     A
C321   C323    1.419   .     A
C322   C328    1.426   .     A
C322   C324    1.418   .     A
C323   C325    1.412   .     A
C323   C1224   1.401   .     S
C324   C326    1.411   .     A
C324   C1223   1.401   1_554 S
C325   C330    1.414   .     A
C326   C329    1.412   .     A
C327   C357    1.488   .     S
C327   C1229   1.406   .     S
C328   C361    1.477   .     S
C328   C1230   1.407   1_554 S
C329   C365    1.481   .     S
C329   C1227   1.406   1_554 S
C330   C369    1.492   .     S
C330   C1228   1.407   .     S
C331   N373    1.440   .     S
C331   C336    1.414   .     A
C331   C533    1.387   1_455 S
C332   C335    1.411   .     A
C332   N376    1.439   .     S
C332   C434    1.387   .     S
C333   C335    1.411   .     A
C333   N379    1.435   .     S
C333   C431    1.387   .     S
C334   C336    1.411   .     A
C334   N382    1.434   .     S
C334   C532    1.387   1_455 S
C337   C385    1.463   .     S
C337   N342    1.374   .     A
C338   C389    1.457   .     S
C338   N341    1.374   .     A
C338   C639    1.425   .     S
C339   C393    1.478   .     S
C339   N342    1.371   .     A
C340   N341    1.372   .     A
C340   C397    1.474   .     S
C340   C637    1.426   .     S
N343   O344    1.298   .     A
N343   O345    1.302   .     A
N346   O348    1.302   .     A
N346   O347    1.301   .     A
C349   O351    1.398   .     S
C349   O350    1.220   .     D
O351   H352    1.014   .     S
C353   O354    1.223   .     D
C353   O355    1.394   .     S
O355   H356    1.013   .     S
C357   O359    1.398   .     S
C357   O358    1.222   .     D
O359   H360    1.014   .     S
C361   O363    1.398   .     S
C361   O362    1.220   .     D
O363   H364    1.013   .     S
C365   O367    1.399   .     S
C365   O366    1.221   .     D
O367   H368    1.011   .     S
C369   O371    1.397   .     S
C369   O370    1.222   .     D
O371   H372    1.014   .     S
N373   O374    1.301   .     A
N373   O375    1.301   .     A
N376   O377    1.301   .     A
N376   O378    1.301   .     A
N379   O381    1.302   .     A
N379   O380    1.301   .     A
N382   O383    1.301   .     A
N382   O384    1.302   .     A
C385   O387    1.398   .     S
C385   O386    1.216   .     D
O387   H388    1.013   .     S
C389   O391    1.398   .     S
C389   O390    1.216   .     D
O391   H392    1.013   .     S
C393   O394    1.221   .     D
C393   O395    1.398   .     S
O395   H396    1.014   .     S
C397   O398    1.223   .     D
C397   O399    1.396   .     S
O399   H400    1.013   .     S
O401   C405    1.302   .     A
O401   Zn413   2.049   .     S
O402   C406    1.300   .     A
O402   Zn414   2.049   .     S
O403   C406    1.299   .     A
O403   Zn413   2.016   .     S
O404   C405    1.298   .     A
O404   Zn414   2.016   .     S
C405   C436    1.450   .     S
C406   C435    1.449   .     S
O407   C411    1.308   .     A
O407   Zn413   2.024   .     S
O408   C412    1.298   .     A
O408   Zn414   2.024   .     S
O409   Zn413   2.004   .     S
O409   C412    1.293   .     A
O410   Zn414   2.004   .     S
O410   C411    1.287   .     A
C411   C418    1.447   .     S
C412   C417    1.435   .     S
Zn413  N441    2.037   .     S
Zn414  N442    2.037   .     S
C415   C417    1.400   .     A
C415   N443    1.442   .     S
C415   C425    1.405   .     A
C416   C426    1.405   .     A
C416   N446    1.438   .     S
C416   C418    1.398   .     A
C417   C419    1.402   .     A
C418   C420    1.412   .     A
C419   C421    1.407   .     A
C419   C449    1.489   .     S
C420   C422    1.418   .     A
C420   C453    1.486   .     S
C421   C427    1.419   .     A
C421   C423    1.419   .     A
C422   C428    1.426   .     A
C422   C424    1.418   .     A
C423   C425    1.412   .     A
C423   C1324   1.401   .     S
C424   C426    1.411   .     A
C424   C1323   1.401   1_554 S
C425   C430    1.414   .     A
C426   C429    1.412   .     A
C427   C457    1.488   .     S
C427   C1329   1.406   .     S
C428   C461    1.477   .     S
C428   C1330   1.407   1_554 S
C429   C465    1.481   .     S
C429   C1327   1.406   1_554 S
C430   C469    1.492   .     S
C430   C1328   1.407   .     S
C431   N473    1.440   .     S
C431   C436    1.414   .     A
C432   C435    1.411   .     A
C432   N476    1.439   .     S
C432   C534    1.387   .     S
C433   C435    1.411   .     A
C433   N479    1.435   .     S
C433   C531    1.387   .     S
C434   C436    1.411   .     A
C434   N482    1.434   .     S
C437   C485    1.463   .     S
C437   N442    1.374   .     A
C438   C489    1.457   .     S
C438   N441    1.374   .     A
C438   C739    1.425   .     S
C439   C493    1.478   .     S
C439   N442    1.371   .     A
C440   N441    1.372   .     A
C440   C497    1.474   .     S
C440   C737    1.426   .     S
N443   O444    1.298   .     A
N443   O445    1.302   .     A
N446   O448    1.302   .     A
N446   O447    1.301   .     A
C449   O451    1.398   .     S
C449   O450    1.220   .     D
O451   H452    1.014   .     S
C453   O454    1.223   .     D
C453   O455    1.394   .     S
O455   H456    1.013   .     S
C457   O459    1.398   .     S
C457   O458    1.222   .     D
O459   H460    1.014   .     S
C461   O463    1.398   .     S
C461   O462    1.220   .     D
O463   H464    1.013   .     S
C465   O467    1.399   .     S
C465   O466    1.221   .     D
O467   H468    1.011   .     S
C469   O471    1.397   .     S
C469   O470    1.222   .     D
O471   H472    1.014   .     S
N473   O474    1.301   .     A
N473   O475    1.301   .     A
N476   O477    1.301   .     A
N476   O478    1.301   .     A
N479   O481    1.302   .     A
N479   O480    1.301   .     A
N482   O483    1.301   .     A
N482   O484    1.302   .     A
C485   O487    1.398   .     S
C485   O486    1.216   .     D
O487   H488    1.013   .     S
C489   O491    1.398   .     S
C489   O490    1.216   .     D
O491   H492    1.013   .     S
C493   O494    1.221   .     D
C493   O495    1.398   .     S
O495   H496    1.014   .     S
C497   O498    1.223   .     D
C497   O499    1.396   .     S
O499   H500    1.013   .     S
O501   C505    1.302   .     A
O501   Zn513   2.049   .     S
O502   C506    1.300   .     A
O502   Zn514   2.049   .     S
O503   C506    1.299   .     A
O503   Zn513   2.016   .     S
O504   C505    1.298   .     A
O504   Zn514   2.016   .     S
C505   C536    1.450   .     S
C506   C535    1.449   .     S
O507   C511    1.308   .     A
O507   Zn513   2.024   .     S
O508   C512    1.298   .     A
O508   Zn514   2.024   .     S
O509   Zn513   2.004   .     S
O509   C512    1.293   .     A
O510   Zn514   2.004   .     S
O510   C511    1.287   .     A
C511   C518    1.447   .     S
C512   C517    1.435   .     S
Zn513  N541    2.037   .     S
Zn514  N542    2.037   .     S
C515   C517    1.400   .     A
C515   N543    1.442   .     S
C515   C525    1.405   .     A
C516   C526    1.405   .     A
C516   N546    1.438   .     S
C516   C518    1.398   .     A
C517   C519    1.402   .     A
C518   C520    1.412   .     A
C519   C521    1.407   .     A
C519   C549    1.489   .     S
C520   C522    1.418   .     A
C520   C553    1.486   .     S
C521   C527    1.419   .     A
C521   C523    1.419   .     A
C522   C528    1.426   .     A
C522   C524    1.418   .     A
C523   C525    1.412   .     A
C523   C1424   1.401   .     S
C524   C526    1.411   .     A
C524   C1423   1.401   1_554 S
C525   C530    1.414   .     A
C526   C529    1.412   .     A
C527   C557    1.488   .     S
C527   C1429   1.406   .     S
C528   C561    1.477   .     S
C528   C1430   1.407   1_554 S
C529   C565    1.481   .     S
C529   C1427   1.406   1_554 S
C530   C569    1.492   .     S
C530   C1428   1.407   .     S
C531   N573    1.440   .     S
C531   C536    1.414   .     A
C532   C535    1.411   .     A
C532   N576    1.439   .     S
C532   C334    1.387   1_655 S
C533   C535    1.411   .     A
C533   N579    1.435   .     S
C533   C331    1.387   1_655 S
C534   C536    1.411   .     A
C534   N582    1.434   .     S
C537   C585    1.463   .     S
C537   N542    1.374   .     A
C538   C589    1.457   .     S
C538   N541    1.374   .     A
C538   C839    1.425   .     S
C539   C593    1.478   .     S
C539   N542    1.371   .     A
C540   N541    1.372   .     A
C540   C597    1.474   .     S
C540   C837    1.426   .     S
N543   O544    1.298   .     A
N543   O545    1.302   .     A
N546   O548    1.302   .     A
N546   O547    1.301   .     A
C549   O551    1.398   .     S
C549   O550    1.220   .     D
O551   H552    1.014   .     S
C553   O554    1.223   .     D
C553   O555    1.394   .     S
O555   H556    1.013   .     S
C557   O559    1.398   .     S
C557   O558    1.222   .     D
O559   H560    1.014   .     S
C561   O563    1.398   .     S
C561   O562    1.220   .     D
O563   H564    1.013   .     S
C565   O567    1.399   .     S
C565   O566    1.221   .     D
O567   H568    1.011   .     S
C569   O571    1.397   .     S
C569   O570    1.222   .     D
O571   H572    1.014   .     S
N573   O574    1.301   .     A
N573   O575    1.301   .     A
N576   O577    1.301   .     A
N576   O578    1.301   .     A
N579   O581    1.302   .     A
N579   O580    1.301   .     A
N582   O583    1.301   .     A
N582   O584    1.302   .     A
C585   O587    1.398   .     S
C585   O586    1.216   .     D
O587   H588    1.013   .     S
C589   O591    1.398   .     S
C589   O590    1.216   .     D
O591   H592    1.013   .     S
C593   O594    1.221   .     D
C593   O595    1.398   .     S
O595   H596    1.014   .     S
C597   O598    1.223   .     D
C597   O599    1.396   .     S
O599   H600    1.013   .     S
O601   C605    1.302   .     A
O601   Zn613   2.049   .     S
O602   C606    1.300   .     A
O602   Zn614   2.049   .     S
O603   C606    1.299   .     A
O603   Zn613   2.016   .     S
O604   C605    1.298   .     A
O604   Zn614   2.016   .     S
C605   C636    1.450   .     S
C606   C635    1.449   .     S
O607   C611    1.308   .     A
O607   Zn613   2.024   .     S
O608   C612    1.298   .     A
O608   Zn614   2.024   .     S
O609   Zn613   2.004   .     S
O609   C612    1.293   .     A
O610   Zn614   2.004   .     S
O610   C611    1.287   .     A
C611   C618    1.447   .     S
C612   C617    1.435   .     S
Zn613  N641    2.037   .     S
Zn614  N642    2.037   .     S
C615   C617    1.400   .     A
C615   N643    1.442   .     S
C615   C625    1.405   .     A
C616   C626    1.405   .     A
C616   N646    1.438   .     S
C616   C618    1.398   .     A
C617   C619    1.402   .     A
C618   C620    1.412   .     A
C619   C621    1.407   .     A
C619   C649    1.489   .     S
C620   C622    1.418   .     A
C620   C653    1.486   .     S
C621   C627    1.419   .     A
C621   C623    1.419   .     A
C622   C628    1.426   .     A
C622   C624    1.418   .     A
C623   C625    1.412   .     A
C623   C1524   1.401   .     S
C624   C626    1.411   .     A
C624   C1523   1.401   1_554 S
C625   C630    1.414   .     A
C626   C629    1.412   .     A
C627   C657    1.488   .     S
C627   C1529   1.406   .     S
C628   C661    1.477   .     S
C628   C1530   1.407   1_554 S
C629   C665    1.481   .     S
C629   C1527   1.406   1_554 S
C630   C669    1.492   .     S
C630   C1528   1.407   .     S
C631   N673    1.440   .     S
C631   C636    1.414   .     A
C631   C833    1.387   1_455 S
C632   C635    1.411   .     A
C632   N676    1.439   .     S
C632   C734    1.387   .     S
C633   C635    1.411   .     A
C633   N679    1.435   .     S
C633   C731    1.387   .     S
C634   C636    1.411   .     A
C634   N682    1.434   .     S
C634   C832    1.387   1_455 S
C637   C685    1.463   .     S
C637   N642    1.374   .     A
C638   C689    1.457   .     S
C638   N641    1.374   .     A
C638   C39     1.425   1_565 S
C639   C693    1.478   .     S
C639   N642    1.371   .     A
C640   N641    1.372   .     A
C640   C697    1.474   .     S
C640   C37     1.426   1_565 S
N643   O644    1.298   .     A
N643   O645    1.302   .     A
N646   O648    1.302   .     A
N646   O647    1.301   .     A
C649   O651    1.398   .     S
C649   O650    1.220   .     D
O651   H652    1.014   .     S
C653   O654    1.223   .     D
C653   O655    1.394   .     S
O655   H656    1.013   .     S
C657   O659    1.398   .     S
C657   O658    1.222   .     D
O659   H660    1.014   .     S
C661   O663    1.398   .     S
C661   O662    1.220   .     D
O663   H664    1.013   .     S
C665   O667    1.399   .     S
C665   O666    1.221   .     D
O667   H668    1.011   .     S
C669   O671    1.397   .     S
C669   O670    1.222   .     D
O671   H672    1.014   .     S
N673   O674    1.301   .     A
N673   O675    1.301   .     A
N676   O677    1.301   .     A
N676   O678    1.301   .     A
N679   O681    1.302   .     A
N679   O680    1.301   .     A
N682   O683    1.301   .     A
N682   O684    1.302   .     A
C685   O687    1.398   .     S
C685   O686    1.216   .     D
O687   H688    1.013   .     S
C689   O691    1.398   .     S
C689   O690    1.216   .     D
O691   H692    1.013   .     S
C693   O694    1.221   .     D
C693   O695    1.398   .     S
O695   H696    1.014   .     S
C697   O698    1.223   .     D
C697   O699    1.396   .     S
O699   H700    1.013   .     S
O701   C705    1.302   .     A
O701   Zn713   2.049   .     S
O702   C706    1.300   .     A
O702   Zn714   2.049   .     S
O703   C706    1.299   .     A
O703   Zn713   2.016   .     S
O704   C705    1.298   .     A
O704   Zn714   2.016   .     S
C705   C736    1.450   .     S
C706   C735    1.449   .     S
O707   C711    1.308   .     A
O707   Zn713   2.024   .     S
O708   C712    1.298   .     A
O708   Zn714   2.024   .     S
O709   Zn713   2.004   .     S
O709   C712    1.293   .     A
O710   Zn714   2.004   .     S
O710   C711    1.287   .     A
C711   C718    1.447   .     S
C712   C717    1.435   .     S
Zn713  N741    2.037   .     S
Zn714  N742    2.037   .     S
C715   C717    1.400   .     A
C715   N743    1.442   .     S
C715   C725    1.405   .     A
C716   C726    1.405   .     A
C716   N746    1.438   .     S
C716   C718    1.398   .     A
C717   C719    1.402   .     A
C718   C720    1.412   .     A
C719   C721    1.407   .     A
C719   C749    1.489   .     S
C720   C722    1.418   .     A
C720   C753    1.486   .     S
C721   C727    1.419   .     A
C721   C723    1.419   .     A
C722   C728    1.426   .     A
C722   C724    1.418   .     A
C723   C725    1.412   .     A
C723   C1624   1.401   .     S
C724   C726    1.411   .     A
C724   C1623   1.401   1_554 S
C725   C730    1.414   .     A
C726   C729    1.412   .     A
C727   C757    1.488   .     S
C727   C1629   1.406   .     S
C728   C761    1.477   .     S
C728   C1630   1.407   1_554 S
C729   C765    1.481   .     S
C729   C1627   1.406   1_554 S
C730   C769    1.492   .     S
C730   C1628   1.407   .     S
C731   N773    1.440   .     S
C731   C736    1.414   .     A
C732   C735    1.411   .     A
C732   N776    1.439   .     S
C732   C834    1.387   .     S
C733   C735    1.411   .     A
C733   N779    1.435   .     S
C733   C831    1.387   .     S
C734   C736    1.411   .     A
C734   N782    1.434   .     S
C737   C785    1.463   .     S
C737   N742    1.374   .     A
C738   C789    1.457   .     S
C738   N741    1.374   .     A
C738   C139    1.425   1_565 S
C739   C793    1.478   .     S
C739   N742    1.371   .     A
C740   N741    1.372   .     A
C740   C797    1.474   .     S
C740   C137    1.426   1_565 S
N743   O744    1.298   .     A
N743   O745    1.302   .     A
N746   O748    1.302   .     A
N746   O747    1.301   .     A
C749   O751    1.398   .     S
C749   O750    1.220   .     D
O751   H752    1.014   .     S
C753   O754    1.223   .     D
C753   O755    1.394   .     S
O755   H756    1.013   .     S
C757   O759    1.398   .     S
C757   O758    1.222   .     D
O759   H760    1.014   .     S
C761   O763    1.398   .     S
C761   O762    1.220   .     D
O763   H764    1.013   .     S
C765   O767    1.399   .     S
C765   O766    1.221   .     D
O767   H768    1.011   .     S
C769   O771    1.397   .     S
C769   O770    1.222   .     D
O771   H772    1.014   .     S
N773   O774    1.301   .     A
N773   O775    1.301   .     A
N776   O777    1.301   .     A
N776   O778    1.301   .     A
N779   O781    1.302   .     A
N779   O780    1.301   .     A
N782   O783    1.301   .     A
N782   O784    1.302   .     A
C785   O787    1.398   .     S
C785   O786    1.216   .     D
O787   H788    1.013   .     S
C789   O791    1.398   .     S
C789   O790    1.216   .     D
O791   H792    1.013   .     S
C793   O794    1.221   .     D
C793   O795    1.398   .     S
O795   H796    1.014   .     S
C797   O798    1.223   .     D
C797   O799    1.396   .     S
O799   H800    1.013   .     S
O801   C805    1.302   .     A
O801   Zn813   2.049   .     S
O802   C806    1.300   .     A
O802   Zn814   2.049   .     S
O803   C806    1.299   .     A
O803   Zn813   2.016   .     S
O804   C805    1.298   .     A
O804   Zn814   2.016   .     S
C805   C836    1.450   .     S
C806   C835    1.449   .     S
O807   C811    1.308   .     A
O807   Zn813   2.024   .     S
O808   C812    1.298   .     A
O808   Zn814   2.024   .     S
O809   Zn813   2.004   .     S
O809   C812    1.293   .     A
O810   Zn814   2.004   .     S
O810   C811    1.287   .     A
C811   C818    1.447   .     S
C812   C817    1.435   .     S
Zn813  N841    2.037   .     S
Zn814  N842    2.037   .     S
C815   C817    1.400   .     A
C815   N843    1.442   .     S
C815   C825    1.405   .     A
C816   C826    1.405   .     A
C816   N846    1.438   .     S
C816   C818    1.398   .     A
C817   C819    1.402   .     A
C818   C820    1.412   .     A
C819   C821    1.407   .     A
C819   C849    1.489   .     S
C820   C822    1.418   .     A
C820   C853    1.486   .     S
C821   C827    1.419   .     A
C821   C823    1.419   .     A
C822   C828    1.426   .     A
C822   C824    1.418   .     A
C823   C825    1.412   .     A
C823   C1724   1.401   .     S
C824   C826    1.411   .     A
C824   C1723   1.401   1_554 S
C825   C830    1.414   .     A
C826   C829    1.412   .     A
C827   C857    1.488   .     S
C827   C1729   1.406   .     S
C828   C861    1.477   .     S
C828   C1730   1.407   1_554 S
C829   C865    1.481   .     S
C829   C1727   1.406   1_554 S
C830   C869    1.492   .     S
C830   C1728   1.407   .     S
C831   N873    1.440   .     S
C831   C836    1.414   .     A
C832   C835    1.411   .     A
C832   N876    1.439   .     S
C832   C634    1.387   1_655 S
C833   C835    1.411   .     A
C833   N879    1.435   .     S
C833   C631    1.387   1_655 S
C834   C836    1.411   .     A
C834   N882    1.434   .     S
C837   C885    1.463   .     S
C837   N842    1.374   .     A
C838   C889    1.457   .     S
C838   N841    1.374   .     A
C838   C239    1.425   1_565 S
C839   C893    1.478   .     S
C839   N842    1.371   .     A
C840   N841    1.372   .     A
C840   C897    1.474   .     S
C840   C237    1.426   1_565 S
N843   O844    1.298   .     A
N843   O845    1.302   .     A
N846   O848    1.302   .     A
N846   O847    1.301   .     A
C849   O851    1.398   .     S
C849   O850    1.220   .     D
O851   H852    1.014   .     S
C853   O854    1.223   .     D
C853   O855    1.394   .     S
O855   H856    1.013   .     S
C857   O859    1.398   .     S
C857   O858    1.222   .     D
O859   H860    1.014   .     S
C861   O863    1.398   .     S
C861   O862    1.220   .     D
O863   H864    1.013   .     S
C865   O867    1.399   .     S
C865   O866    1.221   .     D
O867   H868    1.011   .     S
C869   O871    1.397   .     S
C869   O870    1.222   .     D
O871   H872    1.014   .     S
N873   O874    1.301   .     A
N873   O875    1.301   .     A
N876   O877    1.301   .     A
N876   O878    1.301   .     A
N879   O881    1.302   .     A
N879   O880    1.301   .     A
N882   O883    1.301   .     A
N882   O884    1.302   .     A
C885   O887    1.398   .     S
C885   O886    1.216   .     D
O887   H888    1.013   .     S
C889   O891    1.398   .     S
C889   O890    1.216   .     D
O891   H892    1.013   .     S
C893   O894    1.221   .     D
C893   O895    1.398   .     S
O895   H896    1.014   .     S
C897   O898    1.223   .     D
C897   O899    1.396   .     S
O899   H900    1.013   .     S
O901   C905    1.302   .     A
O901   Zn913   2.049   .     S
O902   C906    1.300   .     A
O902   Zn914   2.049   .     S
O903   C906    1.299   .     A
O903   Zn913   2.016   .     S
O904   C905    1.298   .     A
O904   Zn914   2.016   .     S
C905   C936    1.450   .     S
C906   C935    1.449   .     S
O907   C911    1.308   .     A
O907   Zn913   2.024   .     S
O908   C912    1.298   .     A
O908   Zn914   2.024   .     S
O909   Zn913   2.004   .     S
O909   C912    1.293   .     A
O910   Zn914   2.004   .     S
O910   C911    1.287   .     A
C911   C918    1.447   .     S
C912   C917    1.435   .     S
Zn913  N941    2.037   .     S
Zn914  N942    2.037   .     S
C915   C917    1.400   .     A
C915   N943    1.442   .     S
C915   C925    1.405   .     A
C916   C926    1.405   .     A
C916   N946    1.438   .     S
C916   C918    1.398   .     A
C917   C919    1.402   .     A
C918   C920    1.412   .     A
C919   C921    1.407   .     A
C919   C949    1.489   .     S
C920   C922    1.418   .     A
C920   C953    1.486   .     S
C921   C927    1.419   .     A
C921   C923    1.419   .     A
C922   C928    1.426   .     A
C922   C924    1.418   .     A
C923   C925    1.412   .     A
C923   C24     1.401   1_556 S
C924   C926    1.411   .     A
C925   C930    1.414   .     A
C926   C929    1.412   .     A
C927   C957    1.488   .     S
C927   C29     1.406   1_556 S
C928   C961    1.477   .     S
C929   C965    1.481   .     S
C930   C969    1.492   .     S
C930   C28     1.407   1_556 S
C931   N973    1.440   .     S
C931   C936    1.414   .     A
C931   C1133   1.387   1_455 S
C932   C935    1.411   .     A
C932   N976    1.439   .     S
C932   C1034   1.387   .     S
C933   C935    1.411   .     A
C933   N979    1.435   .     S
C933   C1031   1.387   .     S
C934   C936    1.411   .     A
C934   N982    1.434   .     S
C934   C1132   1.387   1_455 S
C937   C985    1.463   .     S
C937   N942    1.374   .     A
C937   C1540   1.426   1_545 S
C938   C989    1.457   .     S
C938   N941    1.374   .     A
C938   C1239   1.425   .     S
C939   C993    1.478   .     S
C939   N942    1.371   .     A
C939   C1538   1.425   1_545 S
C940   N941    1.372   .     A
C940   C997    1.474   .     S
C940   C1237   1.426   .     S
N943   O944    1.298   .     A
N943   O945    1.302   .     A
N946   O948    1.302   .     A
N946   O947    1.301   .     A
C949   O951    1.398   .     S
C949   O950    1.220   .     D
O951   H952    1.014   .     S
C953   O954    1.223   .     D
C953   O955    1.394   .     S
O955   H956    1.013   .     S
C957   O959    1.398   .     S
C957   O958    1.222   .     D
O959   H960    1.014   .     S
C961   O963    1.398   .     S
C961   O962    1.220   .     D
O963   H964    1.013   .     S
C965   O967    1.399   .     S
C965   O966    1.221   .     D
O967   H968    1.011   .     S
C969   O971    1.397   .     S
C969   O970    1.222   .     D
O971   H972    1.014   .     S
N973   O974    1.301   .     A
N973   O975    1.301   .     A
N976   O977    1.301   .     A
N976   O978    1.301   .     A
N979   O981    1.302   .     A
N979   O980    1.301   .     A
N982   O983    1.301   .     A
N982   O984    1.302   .     A
C985   O987    1.398   .     S
C985   O986    1.216   .     D
O987   H988    1.013   .     S
C989   O991    1.398   .     S
C989   O990    1.216   .     D
O991   H992    1.013   .     S
C993   O994    1.221   .     D
C993   O995    1.398   .     S
O995   H996    1.014   .     S
C997   O998    1.223   .     D
C997   O999    1.396   .     S
O999   H1000   1.013   .     S
O1001  C1005   1.302   .     A
O1001  Zn1013  2.049   .     S
O1002  C1006   1.300   .     A
O1002  Zn1014  2.049   .     S
O1003  C1006   1.299   .     A
O1003  Zn1013  2.016   .     S
O1004  C1005   1.298   .     A
O1004  Zn1014  2.016   .     S
C1005  C1036   1.450   .     S
C1006  C1035   1.449   .     S
O1007  C1011   1.308   .     A
O1007  Zn1013  2.024   .     S
O1008  C1012   1.298   .     A
O1008  Zn1014  2.024   .     S
O1009  Zn1013  2.004   .     S
O1009  C1012   1.293   .     A
O1010  Zn1014  2.004   .     S
O1010  C1011   1.287   .     A
C1011  C1018   1.447   .     S
C1012  C1017   1.435   .     S
Zn1013 N1041   2.037   .     S
Zn1014 N1042   2.037   .     S
C1015  C1017   1.400   .     A
C1015  N1043   1.442   .     S
C1015  C1025   1.405   .     A
C1016  C1026   1.405   .     A
C1016  N1046   1.438   .     S
C1016  C1018   1.398   .     A
C1017  C1019   1.402   .     A
C1018  C1020   1.412   .     A
C1019  C1021   1.407   .     A
C1019  C1049   1.489   .     S
C1020  C1022   1.418   .     A
C1020  C1053   1.486   .     S
C1021  C1027   1.419   .     A
C1021  C1023   1.419   .     A
C1022  C1028   1.426   .     A
C1022  C1024   1.418   .     A
C1023  C1025   1.412   .     A
C1023  C124    1.401   1_556 S
C1024  C1026   1.411   .     A
C1025  C1030   1.414   .     A
C1026  C1029   1.412   .     A
C1027  C1057   1.488   .     S
C1027  C129    1.406   1_556 S
C1028  C1061   1.477   .     S
C1029  C1065   1.481   .     S
C1030  C1069   1.492   .     S
C1030  C128    1.407   1_556 S
C1031  N1073   1.440   .     S
C1031  C1036   1.414   .     A
C1032  C1035   1.411   .     A
C1032  N1076   1.439   .     S
C1032  C1134   1.387   .     S
C1033  C1035   1.411   .     A
C1033  N1079   1.435   .     S
C1033  C1131   1.387   .     S
C1034  C1036   1.411   .     A
C1034  N1082   1.434   .     S
C1037  C1085   1.463   .     S
C1037  N1042   1.374   .     A
C1037  C1640   1.426   1_545 S
C1038  C1089   1.457   .     S
C1038  N1041   1.374   .     A
C1038  C1339   1.425   .     S
C1039  C1093   1.478   .     S
C1039  N1042   1.371   .     A
C1039  C1638   1.425   1_545 S
C1040  N1041   1.372   .     A
C1040  C1097   1.474   .     S
C1040  C1337   1.426   .     S
N1043  O1044   1.298   .     A
N1043  O1045   1.302   .     A
N1046  O1048   1.302   .     A
N1046  O1047   1.301   .     A
C1049  O1051   1.398   .     S
C1049  O1050   1.220   .     D
O1051  H1052   1.014   .     S
C1053  O1054   1.223   .     D
C1053  O1055   1.394   .     S
O1055  H1056   1.013   .     S
C1057  O1059   1.398   .     S
C1057  O1058   1.222   .     D
O1059  H1060   1.014   .     S
C1061  O1063   1.398   .     S
C1061  O1062   1.220   .     D
O1063  H1064   1.013   .     S
C1065  O1067   1.399   .     S
C1065  O1066   1.221   .     D
O1067  H1068   1.011   .     S
C1069  O1071   1.397   .     S
C1069  O1070   1.222   .     D
O1071  H1072   1.014   .     S
N1073  O1074   1.301   .     A
N1073  O1075   1.301   .     A
N1076  O1077   1.301   .     A
N1076  O1078   1.301   .     A
N1079  O1081   1.302   .     A
N1079  O1080   1.301   .     A
N1082  O1083   1.301   .     A
N1082  O1084   1.302   .     A
C1085  O1087   1.398   .     S
C1085  O1086   1.216   .     D
O1087  H1088   1.013   .     S
C1089  O1091   1.398   .     S
C1089  O1090   1.216   .     D
O1091  H1092   1.013   .     S
C1093  O1094   1.221   .     D
C1093  O1095   1.398   .     S
O1095  H1096   1.014   .     S
C1097  O1098   1.223   .     D
C1097  O1099   1.396   .     S
O1099  H1100   1.013   .     S
O1101  C1105   1.302   .     A
O1101  Zn1113  2.049   .     S
O1102  C1106   1.300   .     A
O1102  Zn1114  2.049   .     S
O1103  C1106   1.299   .     A
O1103  Zn1113  2.016   .     S
O1104  C1105   1.298   .     A
O1104  Zn1114  2.016   .     S
C1105  C1136   1.450   .     S
C1106  C1135   1.449   .     S
O1107  C1111   1.308   .     A
O1107  Zn1113  2.024   .     S
O1108  C1112   1.298   .     A
O1108  Zn1114  2.024   .     S
O1109  Zn1113  2.004   .     S
O1109  C1112   1.293   .     A
O1110  Zn1114  2.004   .     S
O1110  C1111   1.287   .     A
C1111  C1118   1.447   .     S
C1112  C1117   1.435   .     S
Zn1113 N1141   2.037   .     S
Zn1114 N1142   2.037   .     S
C1115  C1117   1.400   .     A
C1115  N1143   1.442   .     S
C1115  C1125   1.405   .     A
C1116  C1126   1.405   .     A
C1116  N1146   1.438   .     S
C1116  C1118   1.398   .     A
C1117  C1119   1.402   .     A
C1118  C1120   1.412   .     A
C1119  C1121   1.407   .     A
C1119  C1149   1.489   .     S
C1120  C1122   1.418   .     A
C1120  C1153   1.486   .     S
C1121  C1127   1.419   .     A
C1121  C1123   1.419   .     A
C1122  C1128   1.426   .     A
C1122  C1124   1.418   .     A
C1123  C1125   1.412   .     A
C1123  C224    1.401   1_556 S
C1124  C1126   1.411   .     A
C1125  C1130   1.414   .     A
C1126  C1129   1.412   .     A
C1127  C1157   1.488   .     S
C1127  C229    1.406   1_556 S
C1128  C1161   1.477   .     S
C1129  C1165   1.481   .     S
C1130  C1169   1.492   .     S
C1130  C228    1.407   1_556 S
C1131  N1173   1.440   .     S
C1131  C1136   1.414   .     A
C1132  C1135   1.411   .     A
C1132  N1176   1.439   .     S
C1132  C934    1.387   1_655 S
C1133  C1135   1.411   .     A
C1133  N1179   1.435   .     S
C1133  C931    1.387   1_655 S
C1134  C1136   1.411   .     A
C1134  N1182   1.434   .     S
C1137  C1185   1.463   .     S
C1137  N1142   1.374   .     A
C1137  C1740   1.426   1_545 S
C1138  C1189   1.457   .     S
C1138  N1141   1.374   .     A
C1138  C1439   1.425   .     S
C1139  C1193   1.478   .     S
C1139  N1142   1.371   .     A
C1139  C1738   1.425   1_545 S
C1140  N1141   1.372   .     A
C1140  C1197   1.474   .     S
C1140  C1437   1.426   .     S
N1143  O1144   1.298   .     A
N1143  O1145   1.302   .     A
N1146  O1148   1.302   .     A
N1146  O1147   1.301   .     A
C1149  O1151   1.398   .     S
C1149  O1150   1.220   .     D
O1151  H1152   1.014   .     S
C1153  O1154   1.223   .     D
C1153  O1155   1.394   .     S
O1155  H1156   1.013   .     S
C1157  O1159   1.398   .     S
C1157  O1158   1.222   .     D
O1159  H1160   1.014   .     S
C1161  O1163   1.398   .     S
C1161  O1162   1.220   .     D
O1163  H1164   1.013   .     S
C1165  O1167   1.399   .     S
C1165  O1166   1.221   .     D
O1167  H1168   1.011   .     S
C1169  O1171   1.397   .     S
C1169  O1170   1.222   .     D
O1171  H1172   1.014   .     S
N1173  O1174   1.301   .     A
N1173  O1175   1.301   .     A
N1176  O1177   1.301   .     A
N1176  O1178   1.301   .     A
N1179  O1181   1.302   .     A
N1179  O1180   1.301   .     A
N1182  O1183   1.301   .     A
N1182  O1184   1.302   .     A
C1185  O1187   1.398   .     S
C1185  O1186   1.216   .     D
O1187  H1188   1.013   .     S
C1189  O1191   1.398   .     S
C1189  O1190   1.216   .     D
O1191  H1192   1.013   .     S
C1193  O1194   1.221   .     D
C1193  O1195   1.398   .     S
O1195  H1196   1.014   .     S
C1197  O1198   1.223   .     D
C1197  O1199   1.396   .     S
O1199  H1200   1.013   .     S
O1201  C1205   1.302   .     A
O1201  Zn1213  2.049   .     S
O1202  C1206   1.300   .     A
O1202  Zn1214  2.049   .     S
O1203  C1206   1.299   .     A
O1203  Zn1213  2.016   .     S
O1204  C1205   1.298   .     A
O1204  Zn1214  2.016   .     S
C1205  C1236   1.450   .     S
C1206  C1235   1.449   .     S
O1207  C1211   1.308   .     A
O1207  Zn1213  2.024   .     S
O1208  C1212   1.298   .     A
O1208  Zn1214  2.024   .     S
O1209  Zn1213  2.004   .     S
O1209  C1212   1.293   .     A
O1210  Zn1214  2.004   .     S
O1210  C1211   1.287   .     A
C1211  C1218   1.447   .     S
C1212  C1217   1.435   .     S
Zn1213 N1241   2.037   .     S
Zn1214 N1242   2.037   .     S
C1215  C1217   1.400   .     A
C1215  N1243   1.442   .     S
C1215  C1225   1.405   .     A
C1216  C1226   1.405   .     A
C1216  N1246   1.438   .     S
C1216  C1218   1.398   .     A
C1217  C1219   1.402   .     A
C1218  C1220   1.412   .     A
C1219  C1221   1.407   .     A
C1219  C1249   1.489   .     S
C1220  C1222   1.418   .     A
C1220  C1253   1.486   .     S
C1221  C1227   1.419   .     A
C1221  C1223   1.419   .     A
C1222  C1228   1.426   .     A
C1222  C1224   1.418   .     A
C1223  C1225   1.412   .     A
C1223  C324    1.401   1_556 S
C1224  C1226   1.411   .     A
C1225  C1230   1.414   .     A
C1226  C1229   1.412   .     A
C1227  C1257   1.488   .     S
C1227  C329    1.406   1_556 S
C1228  C1261   1.477   .     S
C1229  C1265   1.481   .     S
C1230  C1269   1.492   .     S
C1230  C328    1.407   1_556 S
C1231  N1273   1.440   .     S
C1231  C1236   1.414   .     A
C1231  C1433   1.387   1_455 S
C1232  C1235   1.411   .     A
C1232  N1276   1.439   .     S
C1232  C1334   1.387   .     S
C1233  C1235   1.411   .     A
C1233  N1279   1.435   .     S
C1233  C1331   1.387   .     S
C1234  C1236   1.411   .     A
C1234  N1282   1.434   .     S
C1234  C1432   1.387   1_455 S
C1237  C1285   1.463   .     S
C1237  N1242   1.374   .     A
C1238  C1289   1.457   .     S
C1238  N1241   1.374   .     A
C1238  C1539   1.425   .     S
C1239  C1293   1.478   .     S
C1239  N1242   1.371   .     A
C1240  N1241   1.372   .     A
C1240  C1297   1.474   .     S
C1240  C1537   1.426   .     S
N1243  O1244   1.298   .     A
N1243  O1245   1.302   .     A
N1246  O1248   1.302   .     A
N1246  O1247   1.301   .     A
C1249  O1251   1.398   .     S
C1249  O1250   1.220   .     D
O1251  H1252   1.014   .     S
C1253  O1254   1.223   .     D
C1253  O1255   1.394   .     S
O1255  H1256   1.013   .     S
C1257  O1259   1.398   .     S
C1257  O1258   1.222   .     D
O1259  H1260   1.014   .     S
C1261  O1263   1.398   .     S
C1261  O1262   1.220   .     D
O1263  H1264   1.013   .     S
C1265  O1267   1.399   .     S
C1265  O1266   1.221   .     D
O1267  H1268   1.011   .     S
C1269  O1271   1.397   .     S
C1269  O1270   1.222   .     D
O1271  H1272   1.014   .     S
N1273  O1274   1.301   .     A
N1273  O1275   1.301   .     A
N1276  O1277   1.301   .     A
N1276  O1278   1.301   .     A
N1279  O1281   1.302   .     A
N1279  O1280   1.301   .     A
N1282  O1283   1.301   .     A
N1282  O1284   1.302   .     A
C1285  O1287   1.398   .     S
C1285  O1286   1.216   .     D
O1287  H1288   1.013   .     S
C1289  O1291   1.398   .     S
C1289  O1290   1.216   .     D
O1291  H1292   1.013   .     S
C1293  O1294   1.221   .     D
C1293  O1295   1.398   .     S
O1295  H1296   1.014   .     S
C1297  O1298   1.223   .     D
C1297  O1299   1.396   .     S
O1299  H1300   1.013   .     S
O1301  C1305   1.302   .     A
O1301  Zn1313  2.049   .     S
O1302  C1306   1.300   .     A
O1302  Zn1314  2.049   .     S
O1303  C1306   1.299   .     A
O1303  Zn1313  2.016   .     S
O1304  C1305   1.298   .     A
O1304  Zn1314  2.016   .     S
C1305  C1336   1.450   .     S
C1306  C1335   1.449   .     S
O1307  C1311   1.308   .     A
O1307  Zn1313  2.024   .     S
O1308  C1312   1.298   .     A
O1308  Zn1314  2.024   .     S
O1309  Zn1313  2.004   .     S
O1309  C1312   1.293   .     A
O1310  Zn1314  2.004   .     S
O1310  C1311   1.287   .     A
C1311  C1318   1.447   .     S
C1312  C1317   1.435   .     S
Zn1313 N1341   2.037   .     S
Zn1314 N1342   2.037   .     S
C1315  C1317   1.400   .     A
C1315  N1343   1.442   .     S
C1315  C1325   1.405   .     A
C1316  C1326   1.405   .     A
C1316  N1346   1.438   .     S
C1316  C1318   1.398   .     A
C1317  C1319   1.402   .     A
C1318  C1320   1.412   .     A
C1319  C1321   1.407   .     A
C1319  C1349   1.489   .     S
C1320  C1322   1.418   .     A
C1320  C1353   1.486   .     S
C1321  C1327   1.419   .     A
C1321  C1323   1.419   .     A
C1322  C1328   1.426   .     A
C1322  C1324   1.418   .     A
C1323  C1325   1.412   .     A
C1323  C424    1.401   1_556 S
C1324  C1326   1.411   .     A
C1325  C1330   1.414   .     A
C1326  C1329   1.412   .     A
C1327  C1357   1.488   .     S
C1327  C429    1.406   1_556 S
C1328  C1361   1.477   .     S
C1329  C1365   1.481   .     S
C1330  C1369   1.492   .     S
C1330  C428    1.407   1_556 S
C1331  N1373   1.440   .     S
C1331  C1336   1.414   .     A
C1332  C1335   1.411   .     A
C1332  N1376   1.439   .     S
C1332  C1434   1.387   .     S
C1333  C1335   1.411   .     A
C1333  N1379   1.435   .     S
C1333  C1431   1.387   .     S
C1334  C1336   1.411   .     A
C1334  N1382   1.434   .     S
C1337  C1385   1.463   .     S
C1337  N1342   1.374   .     A
C1338  C1389   1.457   .     S
C1338  N1341   1.374   .     A
C1338  C1639   1.425   .     S
C1339  C1393   1.478   .     S
C1339  N1342   1.371   .     A
C1340  N1341   1.372   .     A
C1340  C1397   1.474   .     S
C1340  C1637   1.426   .     S
N1343  O1344   1.298   .     A
N1343  O1345   1.302   .     A
N1346  O1348   1.302   .     A
N1346  O1347   1.301   .     A
C1349  O1351   1.398   .     S
C1349  O1350   1.220   .     D
O1351  H1352   1.014   .     S
C1353  O1354   1.223   .     D
C1353  O1355   1.394   .     S
O1355  H1356   1.013   .     S
C1357  O1359   1.398   .     S
C1357  O1358   1.222   .     D
O1359  H1360   1.014   .     S
C1361  O1363   1.398   .     S
C1361  O1362   1.220   .     D
O1363  H1364   1.013   .     S
C1365  O1367   1.399   .     S
C1365  O1366   1.221   .     D
O1367  H1368   1.011   .     S
C1369  O1371   1.397   .     S
C1369  O1370   1.222   .     D
O1371  H1372   1.014   .     S
N1373  O1374   1.301   .     A
N1373  O1375   1.301   .     A
N1376  O1377   1.301   .     A
N1376  O1378   1.301   .     A
N1379  O1381   1.302   .     A
N1379  O1380   1.301   .     A
N1382  O1383   1.301   .     A
N1382  O1384   1.302   .     A
C1385  O1387   1.398   .     S
C1385  O1386   1.216   .     D
O1387  H1388   1.013   .     S
C1389  O1391   1.398   .     S
C1389  O1390   1.216   .     D
O1391  H1392   1.013   .     S
C1393  O1394   1.221   .     D
C1393  O1395   1.398   .     S
O1395  H1396   1.014   .     S
C1397  O1398   1.223   .     D
C1397  O1399   1.396   .     S
O1399  H1400   1.013   .     S
O1401  C1405   1.302   .     A
O1401  Zn1413  2.049   .     S
O1402  C1406   1.300   .     A
O1402  Zn1414  2.049   .     S
O1403  C1406   1.299   .     A
O1403  Zn1413  2.016   .     S
O1404  C1405   1.298   .     A
O1404  Zn1414  2.016   .     S
C1405  C1436   1.450   .     S
C1406  C1435   1.449   .     S
O1407  C1411   1.308   .     A
O1407  Zn1413  2.024   .     S
O1408  C1412   1.298   .     A
O1408  Zn1414  2.024   .     S
O1409  Zn1413  2.004   .     S
O1409  C1412   1.293   .     A
O1410  Zn1414  2.004   .     S
O1410  C1411   1.287   .     A
C1411  C1418   1.447   .     S
C1412  C1417   1.435   .     S
Zn1413 N1441   2.037   .     S
Zn1414 N1442   2.037   .     S
C1415  C1417   1.400   .     A
C1415  N1443   1.442   .     S
C1415  C1425   1.405   .     A
C1416  C1426   1.405   .     A
C1416  N1446   1.438   .     S
C1416  C1418   1.398   .     A
C1417  C1419   1.402   .     A
C1418  C1420   1.412   .     A
C1419  C1421   1.407   .     A
C1419  C1449   1.489   .     S
C1420  C1422   1.418   .     A
C1420  C1453   1.486   .     S
C1421  C1427   1.419   .     A
C1421  C1423   1.419   .     A
C1422  C1428   1.426   .     A
C1422  C1424   1.418   .     A
C1423  C1425   1.412   .     A
C1423  C524    1.401   1_556 S
C1424  C1426   1.411   .     A
C1425  C1430   1.414   .     A
C1426  C1429   1.412   .     A
C1427  C1457   1.488   .     S
C1427  C529    1.406   1_556 S
C1428  C1461   1.477   .     S
C1429  C1465   1.481   .     S
C1430  C1469   1.492   .     S
C1430  C528    1.407   1_556 S
C1431  N1473   1.440   .     S
C1431  C1436   1.414   .     A
C1432  C1435   1.411   .     A
C1432  N1476   1.439   .     S
C1432  C1234   1.387   1_655 S
C1433  C1435   1.411   .     A
C1433  N1479   1.435   .     S
C1433  C1231   1.387   1_655 S
C1434  C1436   1.411   .     A
C1434  N1482   1.434   .     S
C1437  C1485   1.463   .     S
C1437  N1442   1.374   .     A
C1438  C1489   1.457   .     S
C1438  N1441   1.374   .     A
C1438  C1739   1.425   .     S
C1439  C1493   1.478   .     S
C1439  N1442   1.371   .     A
C1440  N1441   1.372   .     A
C1440  C1497   1.474   .     S
C1440  C1737   1.426   .     S
N1443  O1444   1.298   .     A
N1443  O1445   1.302   .     A
N1446  O1448   1.302   .     A
N1446  O1447   1.301   .     A
C1449  O1451   1.398   .     S
C1449  O1450   1.220   .     D
O1451  H1452   1.014   .     S
C1453  O1454   1.223   .     D
C1453  O1455   1.394   .     S
O1455  H1456   1.013   .     S
C1457  O1459   1.398   .     S
C1457  O1458   1.222   .     D
O1459  H1460   1.014   .     S
C1461  O1463   1.398   .     S
C1461  O1462   1.220   .     D
O1463  H1464   1.013   .     S
C1465  O1467   1.399   .     S
C1465  O1466   1.221   .     D
O1467  H1468   1.011   .     S
C1469  O1471   1.397   .     S
C1469  O1470   1.222   .     D
O1471  H1472   1.014   .     S
N1473  O1474   1.301   .     A
N1473  O1475   1.301   .     A
N1476  O1477   1.301   .     A
N1476  O1478   1.301   .     A
N1479  O1481   1.302   .     A
N1479  O1480   1.301   .     A
N1482  O1483   1.301   .     A
N1482  O1484   1.302   .     A
C1485  O1487   1.398   .     S
C1485  O1486   1.216   .     D
O1487  H1488   1.013   .     S
C1489  O1491   1.398   .     S
C1489  O1490   1.216   .     D
O1491  H1492   1.013   .     S
C1493  O1494   1.221   .     D
C1493  O1495   1.398   .     S
O1495  H1496   1.014   .     S
C1497  O1498   1.223   .     D
C1497  O1499   1.396   .     S
O1499  H1500   1.013   .     S
O1501  C1505   1.302   .     A
O1501  Zn1513  2.049   .     S
O1502  C1506   1.300   .     A
O1502  Zn1514  2.049   .     S
O1503  C1506   1.299   .     A
O1503  Zn1513  2.016   .     S
O1504  C1505   1.298   .     A
O1504  Zn1514  2.016   .     S
C1505  C1536   1.450   .     S
C1506  C1535   1.449   .     S
O1507  C1511   1.308   .     A
O1507  Zn1513  2.024   .     S
O1508  C1512   1.298   .     A
O1508  Zn1514  2.024   .     S
O1509  Zn1513  2.004   .     S
O1509  C1512   1.293   .     A
O1510  Zn1514  2.004   .     S
O1510  C1511   1.287   .     A
C1511  C1518   1.447   .     S
C1512  C1517   1.435   .     S
Zn1513 N1541   2.037   .     S
Zn1514 N1542   2.037   .     S
C1515  C1517   1.400   .     A
C1515  N1543   1.442   .     S
C1515  C1525   1.405   .     A
C1516  C1526   1.405   .     A
C1516  N1546   1.438   .     S
C1516  C1518   1.398   .     A
C1517  C1519   1.402   .     A
C1518  C1520   1.412   .     A
C1519  C1521   1.407   .     A
C1519  C1549   1.489   .     S
C1520  C1522   1.418   .     A
C1520  C1553   1.486   .     S
C1521  C1527   1.419   .     A
C1521  C1523   1.419   .     A
C1522  C1528   1.426   .     A
C1522  C1524   1.418   .     A
C1523  C1525   1.412   .     A
C1523  C624    1.401   1_556 S
C1524  C1526   1.411   .     A
C1525  C1530   1.414   .     A
C1526  C1529   1.412   .     A
C1527  C1557   1.488   .     S
C1527  C629    1.406   1_556 S
C1528  C1561   1.477   .     S
C1529  C1565   1.481   .     S
C1530  C1569   1.492   .     S
C1530  C628    1.407   1_556 S
C1531  N1573   1.440   .     S
C1531  C1536   1.414   .     A
C1531  C1733   1.387   1_455 S
C1532  C1535   1.411   .     A
C1532  N1576   1.439   .     S
C1532  C1634   1.387   .     S
C1533  C1535   1.411   .     A
C1533  N1579   1.435   .     S
C1533  C1631   1.387   .     S
C1534  C1536   1.411   .     A
C1534  N1582   1.434   .     S
C1534  C1732   1.387   1_455 S
C1537  C1585   1.463   .     S
C1537  N1542   1.374   .     A
C1538  C1589   1.457   .     S
C1538  N1541   1.374   .     A
C1538  C939    1.425   1_565 S
C1539  C1593   1.478   .     S
C1539  N1542   1.371   .     A
C1540  N1541   1.372   .     A
C1540  C1597   1.474   .     S
C1540  C937    1.426   1_565 S
N1543  O1544   1.298   .     A
N1543  O1545   1.302   .     A
N1546  O1548   1.302   .     A
N1546  O1547   1.301   .     A
C1549  O1551   1.398   .     S
C1549  O1550   1.220   .     D
O1551  H1552   1.014   .     S
C1553  O1554   1.223   .     D
C1553  O1555   1.394   .     S
O1555  H1556   1.013   .     S
C1557  O1559   1.398   .     S
C1557  O1558   1.222   .     D
O1559  H1560   1.014   .     S
C1561  O1563   1.398   .     S
C1561  O1562   1.220   .     D
O1563  H1564   1.013   .     S
C1565  O1567   1.399   .     S
C1565  O1566   1.221   .     D
O1567  H1568   1.011   .     S
C1569  O1571   1.397   .     S
C1569  O1570   1.222   .     D
O1571  H1572   1.014   .     S
N1573  O1574   1.301   .     A
N1573  O1575   1.301   .     A
N1576  O1577   1.301   .     A
N1576  O1578   1.301   .     A
N1579  O1581   1.302   .     A
N1579  O1580   1.301   .     A
N1582  O1583   1.301   .     A
N1582  O1584   1.302   .     A
C1585  O1587   1.398   .     S
C1585  O1586   1.216   .     D
O1587  H1588   1.013   .     S
C1589  O1591   1.398   .     S
C1589  O1590   1.216   .     D
O1591  H1592   1.013   .     S
C1593  O1594   1.221   .     D
C1593  O1595   1.398   .     S
O1595  H1596   1.014   .     S
C1597  O1598   1.223   .     D
C1597  O1599   1.396   .     S
O1599  H1600   1.013   .     S
O1601  C1605   1.302   .     A
O1601  Zn1613  2.049   .     S
O1602  C1606   1.300   .     A
O1602  Zn1614  2.049   .     S
O1603  C1606   1.299   .     A
O1603  Zn1613  2.016   .     S
O1604  C1605   1.298   .     A
O1604  Zn1614  2.016   .     S
C1605  C1636   1.450   .     S
C1606  C1635   1.449   .     S
O1607  C1611   1.308   .     A
O1607  Zn1613  2.024   .     S
O1608  C1612   1.298   .     A
O1608  Zn1614  2.024   .     S
O1609  Zn1613  2.004   .     S
O1609  C1612   1.293   .     A
O1610  Zn1614  2.004   .     S
O1610  C1611   1.287   .     A
C1611  C1618   1.447   .     S
C1612  C1617   1.435   .     S
Zn1613 N1641   2.037   .     S
Zn1614 N1642   2.037   .     S
C1615  C1617   1.400   .     A
C1615  N1643   1.442   .     S
C1615  C1625   1.405   .     A
C1616  C1626   1.405   .     A
C1616  N1646   1.438   .     S
C1616  C1618   1.398   .     A
C1617  C1619   1.402   .     A
C1618  C1620   1.412   .     A
C1619  C1621   1.407   .     A
C1619  C1649   1.489   .     S
C1620  C1622   1.418   .     A
C1620  C1653   1.486   .     S
C1621  C1627   1.419   .     A
C1621  C1623   1.419   .     A
C1622  C1628   1.426   .     A
C1622  C1624   1.418   .     A
C1623  C1625   1.412   .     A
C1623  C724    1.401   1_556 S
C1624  C1626   1.411   .     A
C1625  C1630   1.414   .     A
C1626  C1629   1.412   .     A
C1627  C1657   1.488   .     S
C1627  C729    1.406   1_556 S
C1628  C1661   1.477   .     S
C1629  C1665   1.481   .     S
C1630  C1669   1.492   .     S
C1630  C728    1.407   1_556 S
C1631  N1673   1.440   .     S
C1631  C1636   1.414   .     A
C1632  C1635   1.411   .     A
C1632  N1676   1.439   .     S
C1632  C1734   1.387   .     S
C1633  C1635   1.411   .     A
C1633  N1679   1.435   .     S
C1633  C1731   1.387   .     S
C1634  C1636   1.411   .     A
C1634  N1682   1.434   .     S
C1637  C1685   1.463   .     S
C1637  N1642   1.374   .     A
C1638  C1689   1.457   .     S
C1638  N1641   1.374   .     A
C1638  C1039   1.425   1_565 S
C1639  C1693   1.478   .     S
C1639  N1642   1.371   .     A
C1640  N1641   1.372   .     A
C1640  C1697   1.474   .     S
C1640  C1037   1.426   1_565 S
N1643  O1644   1.298   .     A
N1643  O1645   1.302   .     A
N1646  O1648   1.302   .     A
N1646  O1647   1.301   .     A
C1649  O1651   1.398   .     S
C1649  O1650   1.220   .     D
O1651  H1652   1.014   .     S
C1653  O1654   1.223   .     D
C1653  O1655   1.394   .     S
O1655  H1656   1.013   .     S
C1657  O1659   1.398   .     S
C1657  O1658   1.222   .     D
O1659  H1660   1.014   .     S
C1661  O1663   1.398   .     S
C1661  O1662   1.220   .     D
O1663  H1664   1.013   .     S
C1665  O1667   1.399   .     S
C1665  O1666   1.221   .     D
O1667  H1668   1.011   .     S
C1669  O1671   1.397   .     S
C1669  O1670   1.222   .     D
O1671  H1672   1.014   .     S
N1673  O1674   1.301   .     A
N1673  O1675   1.301   .     A
N1676  O1677   1.301   .     A
N1676  O1678   1.301   .     A
N1679  O1681   1.302   .     A
N1679  O1680   1.301   .     A
N1682  O1683   1.301   .     A
N1682  O1684   1.302   .     A
C1685  O1687   1.398   .     S
C1685  O1686   1.216   .     D
O1687  H1688   1.013   .     S
C1689  O1691   1.398   .     S
C1689  O1690   1.216   .     D
O1691  H1692   1.013   .     S
C1693  O1694   1.221   .     D
C1693  O1695   1.398   .     S
O1695  H1696   1.014   .     S
C1697  O1698   1.223   .     D
C1697  O1699   1.396   .     S
O1699  H1700   1.013   .     S
O1701  C1705   1.302   .     A
O1701  Zn1713  2.049   .     S
O1702  C1706   1.300   .     A
O1702  Zn1714  2.049   .     S
O1703  C1706   1.299   .     A
O1703  Zn1713  2.016   .     S
O1704  C1705   1.298   .     A
O1704  Zn1714  2.016   .     S
C1705  C1736   1.450   .     S
C1706  C1735   1.449   .     S
O1707  C1711   1.308   .     A
O1707  Zn1713  2.024   .     S
O1708  C1712   1.298   .     A
O1708  Zn1714  2.024   .     S
O1709  Zn1713  2.004   .     S
O1709  C1712   1.293   .     A
O1710  Zn1714  2.004   .     S
O1710  C1711   1.287   .     A
C1711  C1718   1.447   .     S
C1712  C1717   1.435   .     S
Zn1713 N1741   2.037   .     S
Zn1714 N1742   2.037   .     S
C1715  C1717   1.400   .     A
C1715  N1743   1.442   .     S
C1715  C1725   1.405   .     A
C1716  C1726   1.405   .     A
C1716  N1746   1.438   .     S
C1716  C1718   1.398   .     A
C1717  C1719   1.402   .     A
C1718  C1720   1.412   .     A
C1719  C1721   1.407   .     A
C1719  C1749   1.489   .     S
C1720  C1722   1.418   .     A
C1720  C1753   1.486   .     S
C1721  C1727   1.419   .     A
C1721  C1723   1.419   .     A
C1722  C1728   1.426   .     A
C1722  C1724   1.418   .     A
C1723  C1725   1.412   .     A
C1723  C824    1.401   1_556 S
C1724  C1726   1.411   .     A
C1725  C1730   1.414   .     A
C1726  C1729   1.412   .     A
C1727  C1757   1.488   .     S
C1727  C829    1.406   1_556 S
C1728  C1761   1.477   .     S
C1729  C1765   1.481   .     S
C1730  C1769   1.492   .     S
C1730  C828    1.407   1_556 S
C1731  N1773   1.440   .     S
C1731  C1736   1.414   .     A
C1732  C1735   1.411   .     A
C1732  N1776   1.439   .     S
C1732  C1534   1.387   1_655 S
C1733  C1735   1.411   .     A
C1733  N1779   1.435   .     S
C1733  C1531   1.387   1_655 S
C1734  C1736   1.411   .     A
C1734  N1782   1.434   .     S
C1737  C1785   1.463   .     S
C1737  N1742   1.374   .     A
C1738  C1789   1.457   .     S
C1738  N1741   1.374   .     A
C1738  C1139   1.425   1_565 S
C1739  C1793   1.478   .     S
C1739  N1742   1.371   .     A
C1740  N1741   1.372   .     A
C1740  C1797   1.474   .     S
C1740  C1137   1.426   1_565 S
N1743  O1744   1.298   .     A
N1743  O1745   1.302   .     A
N1746  O1748   1.302   .     A
N1746  O1747   1.301   .     A
C1749  O1751   1.398   .     S
C1749  O1750   1.220   .     D
O1751  H1752   1.014   .     S
C1753  O1754   1.223   .     D
C1753  O1755   1.394   .     S
O1755  H1756   1.013   .     S
C1757  O1759   1.398   .     S
C1757  O1758   1.222   .     D
O1759  H1760   1.014   .     S
C1761  O1763   1.398   .     S
C1761  O1762   1.220   .     D
O1763  H1764   1.013   .     S
C1765  O1767   1.399   .     S
C1765  O1766   1.221   .     D
O1767  H1768   1.011   .     S
C1769  O1771   1.397   .     S
C1769  O1770   1.222   .     D
O1771  H1772   1.014   .     S
N1773  O1774   1.301   .     A
N1773  O1775   1.301   .     A
N1776  O1777   1.301   .     A
N1776  O1778   1.301   .     A
N1779  O1781   1.302   .     A
N1779  O1780   1.301   .     A
N1782  O1783   1.301   .     A
N1782  O1784   1.302   .     A
C1785  O1787   1.398   .     S
C1785  O1786   1.216   .     D
O1787  H1788   1.013   .     S
C1789  O1791   1.398   .     S
C1789  O1790   1.216   .     D
O1791  H1792   1.013   .     S
C1793  O1794   1.221   .     D
C1793  O1795   1.398   .     S
O1795  H1796   1.014   .     S
C1797  O1798   1.223   .     D
C1797  O1799   1.396   .     S
O1799  H1800   1.013   .     S
