data_str_m2_o1_o1_pcu_sym.40
_audit_creation_date              2020-01-03
_audit_creation_method            'Materials Studio'
_symmetry_space_group_name_H-M    'P1'
_symmetry_Int_Tables_number       1
_symmetry_cell_setting            triclinic
loop_
_symmetry_equiv_pos_as_xyz
  x,y,z
_cell_length_a                    31.7594
_cell_length_b                    30.0614
_cell_length_c                    28.5899
_cell_angle_alpha                 90.0000
_cell_angle_beta                  90.0004
_cell_angle_gamma                 90.0001
loop_
_atom_site_label
_atom_site_type_symbol
_atom_site_fract_x
_atom_site_fract_y
_atom_site_fract_z
_atom_site_U_iso_or_equiv
_atom_site_adp_type
_atom_site_occupancy
C1     C     0.06144   0.19274   0.16667   0.00000  Uiso   1.00
C2     C     0.00000   0.28921   0.30857   0.00000  Uiso   1.00
C3     C     0.00000   0.28921   0.02476   0.00000  Uiso   1.00
C4     C    -0.00000   0.21079   0.30857   0.00000  Uiso   1.00
C5     C     0.25000   0.46079   0.02476   0.00000  Uiso   1.00
C6     C     0.25000   0.03921   0.30857   0.00000  Uiso   1.00
C7     C     0.25000   0.03921   0.02476   0.00000  Uiso   1.00
C8     C     0.25000   0.46079   0.30857   0.00000  Uiso   1.00
C9     C     0.38772   0.14384   0.12394   0.00000  Uiso   1.00
C10    C     0.11228   0.35616   0.20940   0.00000  Uiso   1.00
C11    C     0.11228   0.35616   0.12394   0.00000  Uiso   1.00
C12    C     0.43856   0.30726   0.16667   0.00000  Uiso   1.00
C13    C     0.38772   0.14384   0.20940   0.00000  Uiso   1.00
C14    C     0.11228   0.14384   0.20940   0.00000  Uiso   1.00
C15    C     0.38772   0.35616   0.12394   0.00000  Uiso   1.00
C16    C     0.38772   0.35616   0.20940   0.00000  Uiso   1.00
C17    C     0.11228   0.14384   0.12394   0.00000  Uiso   1.00
C18    C     0.13772   0.39384   0.12394   0.00000  Uiso   1.00
C19    C     0.36228   0.10616   0.20940   0.00000  Uiso   1.00
C20    C     0.36228   0.10616   0.12394   0.00000  Uiso   1.00
C21    C     0.13772   0.39384   0.20940   0.00000  Uiso   1.00
C22    C     0.36228   0.39384   0.20940   0.00000  Uiso   1.00
C23    C     0.43856   0.19274   0.16667   0.00000  Uiso   1.00
C24    C     0.13772   0.10616   0.12394   0.00000  Uiso   1.00
C25    C     0.13772   0.10616   0.20940   0.00000  Uiso   1.00
C26    C     0.36228   0.39384   0.12394   0.00000  Uiso   1.00
C27    C     0.09665   0.33911   0.16667   0.00000  Uiso   1.00
C28    C     0.40335   0.16089   0.16667   0.00000  Uiso   1.00
C29    C     0.40335   0.33911   0.16667   0.00000  Uiso   1.00
C30    C     0.09665   0.16089   0.16667   0.00000  Uiso   1.00
C31    C     0.34665   0.08911   0.16667   0.00000  Uiso   1.00
C32    C     0.15335   0.41089   0.16667   0.00000  Uiso   1.00
C33    C     0.15335   0.08911   0.16667   0.00000  Uiso   1.00
C34    C     0.06144   0.30726   0.16667   0.00000  Uiso   1.00
C35    C     0.34665   0.41089   0.16667   0.00000  Uiso   1.00
C36    C     0.31144   0.44274   0.16667   0.00000  Uiso   1.00
C37    C     0.18856   0.05726   0.16667   0.00000  Uiso   1.00
C38    C     0.18856   0.44274   0.16667   0.00000  Uiso   1.00
C39    C     0.31144   0.05726   0.16667   0.00000  Uiso   1.00
C40    C     0.00000   0.21079   0.02476   0.00000  Uiso   1.00
Cl41   Cl    0.00000   0.15925   0.05421   0.00000  Uiso   1.00
Cl42   Cl    0.10502   0.32860   0.26378   0.00000  Uiso   1.00
Cl43   Cl    0.10503   0.32859   0.06955   0.00000  Uiso   1.00
Cl44   Cl    0.39498   0.17141   0.26378   0.00000  Uiso   1.00
Cl45   Cl    0.10502   0.17140   0.26378   0.00000  Uiso   1.00
Cl46   Cl    0.39498   0.32860   0.06955   0.00000  Uiso   1.00
Cl47   Cl    0.39498   0.32860   0.26378   0.00000  Uiso   1.00
Cl48   Cl    0.10502   0.17140   0.06955   0.00000  Uiso   1.00
Cl49   Cl    0.14498   0.42140   0.06955   0.00000  Uiso   1.00
Cl50   Cl    0.35502   0.07860   0.26378   0.00000  Uiso   1.00
Cl51   Cl    0.35503   0.07859   0.06955   0.00000  Uiso   1.00
Cl52   Cl   -0.00000   0.34075   0.27912   0.00000  Uiso   1.00
Cl53   Cl    0.14498   0.42141   0.26378   0.00000  Uiso   1.00
Cl54   Cl    0.35502   0.42140   0.26378   0.00000  Uiso   1.00
Cl55   Cl    0.14498   0.07860   0.06955   0.00000  Uiso   1.00
Cl56   Cl    0.14498   0.07860   0.26378   0.00000  Uiso   1.00
Cl57   Cl    0.35502   0.42140   0.06955   0.00000  Uiso   1.00
Cl58   Cl    0.00000   0.34075   0.05421   0.00000  Uiso   1.00
Cl59   Cl   -0.00000   0.15925   0.27912   0.00000  Uiso   1.00
Cl60   Cl    0.25000   0.40925   0.05421   0.00000  Uiso   1.00
Cl61   Cl    0.25000   0.09075   0.27912   0.00000  Uiso   1.00
Cl62   Cl    0.25000   0.09075   0.05421   0.00000  Uiso   1.00
Cl63   Cl    0.25000   0.40925   0.27912   0.00000  Uiso   1.00
Cl64   Cl    0.39498   0.17140   0.06955   0.00000  Uiso   1.00
Cu65   Cu    0.00000   0.25000   0.21355   0.00000  Uiso   1.00
Cu66   Cu    0.00000   0.25000   0.11978   0.00000  Uiso   1.00
Cu67   Cu    0.25000   0.00000   0.21355   0.00000  Uiso   1.00
Cu68   Cu    0.25000   0.00000   0.11978   0.00000  Uiso   1.00
N69    N     0.00000   0.25000   0.28402   0.00000  Uiso   1.00
N70    N     0.00000   0.25000   0.04931   0.00000  Uiso   1.00
N71    N     0.25000   0.00000   0.28402   0.00000  Uiso   1.00
N72    N     0.25000   0.00000   0.04931   0.00000  Uiso   1.00
O73    O     0.04509   0.20491   0.20625   0.00000  Uiso   1.00
O74    O     0.20492   0.04509   0.12709   0.00000  Uiso   1.00
O75    O     0.20492   0.04509   0.20625   0.00000  Uiso   1.00
O76    O     0.29509   0.45491   0.12709   0.00000  Uiso   1.00
O77    O     0.20492   0.45491   0.12709   0.00000  Uiso   1.00
O78    O     0.29509   0.04509   0.20625   0.00000  Uiso   1.00
O79    O     0.29509   0.04509   0.12709   0.00000  Uiso   1.00
O80    O     0.20492   0.45491   0.20625   0.00000  Uiso   1.00
O81    O     0.45492   0.29509   0.12709   0.00000  Uiso   1.00
O82    O     0.45492   0.29509   0.20625   0.00000  Uiso   1.00
O83    O     0.04509   0.20491   0.12709   0.00000  Uiso   1.00
O84    O     0.45492   0.20491   0.12709   0.00000  Uiso   1.00
O85    O     0.04509   0.29509   0.20625   0.00000  Uiso   1.00
O86    O     0.04509   0.29509   0.12709   0.00000  Uiso   1.00
O87    O     0.45492   0.20491   0.20625   0.00000  Uiso   1.00
O88    O     0.29509   0.45491   0.20625   0.00000  Uiso   1.00
C89    C     0.56144   0.19274   0.16667   0.00000  Uiso   1.00
C90    C     0.50000   0.28921   0.30857   0.00000  Uiso   1.00
C91    C     0.50000   0.28921   0.02476   0.00000  Uiso   1.00
C92    C     0.50000   0.21079   0.30857   0.00000  Uiso   1.00
C93    C     0.75000   0.46079   0.02476   0.00000  Uiso   1.00
C94    C     0.75000   0.03921   0.30857   0.00000  Uiso   1.00
C95    C     0.75000   0.03921   0.02476   0.00000  Uiso   1.00
C96    C     0.75000   0.46079   0.30857   0.00000  Uiso   1.00
C97    C     0.88772   0.14384   0.12394   0.00000  Uiso   1.00
C98    C     0.61228   0.35616   0.20940   0.00000  Uiso   1.00
C99    C     0.61228   0.35616   0.12394   0.00000  Uiso   1.00
C100   C     0.93856   0.30726   0.16667   0.00000  Uiso   1.00
C101   C     0.88772   0.14384   0.20940   0.00000  Uiso   1.00
C102   C     0.61228   0.14384   0.20940   0.00000  Uiso   1.00
C103   C     0.88772   0.35616   0.12394   0.00000  Uiso   1.00
C104   C     0.88772   0.35616   0.20940   0.00000  Uiso   1.00
C105   C     0.61228   0.14384   0.12394   0.00000  Uiso   1.00
C106   C     0.63772   0.39384   0.12394   0.00000  Uiso   1.00
C107   C     0.86228   0.10616   0.20940   0.00000  Uiso   1.00
C108   C     0.86228   0.10616   0.12394   0.00000  Uiso   1.00
C109   C     0.63772   0.39384   0.20940   0.00000  Uiso   1.00
C110   C     0.86228   0.39384   0.20940   0.00000  Uiso   1.00
C111   C     0.93856   0.19274   0.16667   0.00000  Uiso   1.00
C112   C     0.63772   0.10616   0.12394   0.00000  Uiso   1.00
C113   C     0.63772   0.10616   0.20940   0.00000  Uiso   1.00
C114   C     0.86228   0.39384   0.12394   0.00000  Uiso   1.00
C115   C     0.59665   0.33911   0.16667   0.00000  Uiso   1.00
C116   C     0.90335   0.16089   0.16667   0.00000  Uiso   1.00
C117   C     0.90335   0.33911   0.16667   0.00000  Uiso   1.00
C118   C     0.59665   0.16089   0.16667   0.00000  Uiso   1.00
C119   C     0.84665   0.08911   0.16667   0.00000  Uiso   1.00
C120   C     0.65335   0.41089   0.16667   0.00000  Uiso   1.00
C121   C     0.65335   0.08911   0.16667   0.00000  Uiso   1.00
C122   C     0.56144   0.30726   0.16667   0.00000  Uiso   1.00
C123   C     0.84665   0.41089   0.16667   0.00000  Uiso   1.00
C124   C     0.81144   0.44274   0.16667   0.00000  Uiso   1.00
C125   C     0.68856   0.05726   0.16667   0.00000  Uiso   1.00
C126   C     0.68856   0.44274   0.16667   0.00000  Uiso   1.00
C127   C     0.81144   0.05726   0.16667   0.00000  Uiso   1.00
C128   C     0.50000   0.21079   0.02476   0.00000  Uiso   1.00
Cl129  Cl    0.50000   0.15925   0.05421   0.00000  Uiso   1.00
Cl130  Cl    0.60502   0.32860   0.26378   0.00000  Uiso   1.00
Cl131  Cl    0.60503   0.32859   0.06955   0.00000  Uiso   1.00
Cl132  Cl    0.89498   0.17141   0.26378   0.00000  Uiso   1.00
Cl133  Cl    0.60502   0.17140   0.26378   0.00000  Uiso   1.00
Cl134  Cl    0.89498   0.32860   0.06955   0.00000  Uiso   1.00
Cl135  Cl    0.89498   0.32860   0.26378   0.00000  Uiso   1.00
Cl136  Cl    0.60502   0.17140   0.06955   0.00000  Uiso   1.00
Cl137  Cl    0.64498   0.42140   0.06955   0.00000  Uiso   1.00
Cl138  Cl    0.85502   0.07860   0.26378   0.00000  Uiso   1.00
Cl139  Cl    0.85503   0.07859   0.06955   0.00000  Uiso   1.00
Cl140  Cl    0.50000   0.34075   0.27912   0.00000  Uiso   1.00
Cl141  Cl    0.64498   0.42141   0.26378   0.00000  Uiso   1.00
Cl142  Cl    0.85502   0.42140   0.26378   0.00000  Uiso   1.00
Cl143  Cl    0.64498   0.07860   0.06955   0.00000  Uiso   1.00
Cl144  Cl    0.64498   0.07860   0.26378   0.00000  Uiso   1.00
Cl145  Cl    0.85502   0.42140   0.06955   0.00000  Uiso   1.00
Cl146  Cl    0.50000   0.34075   0.05421   0.00000  Uiso   1.00
Cl147  Cl    0.50000   0.15925   0.27912   0.00000  Uiso   1.00
Cl148  Cl    0.75000   0.40925   0.05421   0.00000  Uiso   1.00
Cl149  Cl    0.75000   0.09075   0.27912   0.00000  Uiso   1.00
Cl150  Cl    0.75000   0.09075   0.05421   0.00000  Uiso   1.00
Cl151  Cl    0.75000   0.40925   0.27912   0.00000  Uiso   1.00
Cl152  Cl    0.89498   0.17140   0.06955   0.00000  Uiso   1.00
Cu153  Cu    0.50000   0.25000   0.21355   0.00000  Uiso   1.00
Cu154  Cu    0.50000   0.25000   0.11978   0.00000  Uiso   1.00
Cu155  Cu    0.75000   0.00000   0.21355   0.00000  Uiso   1.00
Cu156  Cu    0.75000   0.00000   0.11978   0.00000  Uiso   1.00
N157   N     0.50000   0.25000   0.28402   0.00000  Uiso   1.00
N158   N     0.50000   0.25000   0.04931   0.00000  Uiso   1.00
N159   N     0.75000   0.00000   0.28402   0.00000  Uiso   1.00
N160   N     0.75000   0.00000   0.04931   0.00000  Uiso   1.00
O161   O     0.54509   0.20491   0.20625   0.00000  Uiso   1.00
O162   O     0.70492   0.04509   0.12709   0.00000  Uiso   1.00
O163   O     0.70492   0.04509   0.20625   0.00000  Uiso   1.00
O164   O     0.79509   0.45491   0.12709   0.00000  Uiso   1.00
O165   O     0.70492   0.45491   0.12709   0.00000  Uiso   1.00
O166   O     0.79509   0.04509   0.20625   0.00000  Uiso   1.00
O167   O     0.79509   0.04509   0.12709   0.00000  Uiso   1.00
O168   O     0.70492   0.45491   0.20625   0.00000  Uiso   1.00
O169   O     0.95492   0.29509   0.12709   0.00000  Uiso   1.00
O170   O     0.95492   0.29509   0.20625   0.00000  Uiso   1.00
O171   O     0.54509   0.20491   0.12709   0.00000  Uiso   1.00
O172   O     0.95492   0.20491   0.12709   0.00000  Uiso   1.00
O173   O     0.54509   0.29509   0.20625   0.00000  Uiso   1.00
O174   O     0.54509   0.29509   0.12709   0.00000  Uiso   1.00
O175   O     0.95492   0.20491   0.20625   0.00000  Uiso   1.00
O176   O     0.79509   0.45491   0.20625   0.00000  Uiso   1.00
C177   C     0.06144   0.69274   0.16667   0.00000  Uiso   1.00
C178   C     0.00000   0.78921   0.30857   0.00000  Uiso   1.00
C179   C     0.00000   0.78921   0.02476   0.00000  Uiso   1.00
C180   C    -0.00000   0.71079   0.30857   0.00000  Uiso   1.00
C181   C     0.25000   0.96079   0.02476   0.00000  Uiso   1.00
C182   C     0.25000   0.53921   0.30857   0.00000  Uiso   1.00
C183   C     0.25000   0.53921   0.02476   0.00000  Uiso   1.00
C184   C     0.25000   0.96079   0.30857   0.00000  Uiso   1.00
C185   C     0.38772   0.64384   0.12394   0.00000  Uiso   1.00
C186   C     0.11228   0.85616   0.20940   0.00000  Uiso   1.00
C187   C     0.11228   0.85616   0.12394   0.00000  Uiso   1.00
C188   C     0.43856   0.80726   0.16667   0.00000  Uiso   1.00
C189   C     0.38772   0.64384   0.20940   0.00000  Uiso   1.00
C190   C     0.11228   0.64384   0.20940   0.00000  Uiso   1.00
C191   C     0.38772   0.85616   0.12394   0.00000  Uiso   1.00
C192   C     0.38772   0.85616   0.20940   0.00000  Uiso   1.00
C193   C     0.11228   0.64384   0.12394   0.00000  Uiso   1.00
C194   C     0.13772   0.89384   0.12394   0.00000  Uiso   1.00
C195   C     0.36228   0.60616   0.20940   0.00000  Uiso   1.00
C196   C     0.36228   0.60616   0.12394   0.00000  Uiso   1.00
C197   C     0.13772   0.89384   0.20940   0.00000  Uiso   1.00
C198   C     0.36228   0.89384   0.20940   0.00000  Uiso   1.00
C199   C     0.43856   0.69274   0.16667   0.00000  Uiso   1.00
C200   C     0.13772   0.60616   0.12394   0.00000  Uiso   1.00
C201   C     0.13772   0.60616   0.20940   0.00000  Uiso   1.00
C202   C     0.36228   0.89384   0.12394   0.00000  Uiso   1.00
C203   C     0.09665   0.83911   0.16667   0.00000  Uiso   1.00
C204   C     0.40335   0.66089   0.16667   0.00000  Uiso   1.00
C205   C     0.40335   0.83911   0.16667   0.00000  Uiso   1.00
C206   C     0.09665   0.66089   0.16667   0.00000  Uiso   1.00
C207   C     0.34665   0.58911   0.16667   0.00000  Uiso   1.00
C208   C     0.15335   0.91089   0.16667   0.00000  Uiso   1.00
C209   C     0.15335   0.58911   0.16667   0.00000  Uiso   1.00
C210   C     0.06144   0.80726   0.16667   0.00000  Uiso   1.00
C211   C     0.34665   0.91089   0.16667   0.00000  Uiso   1.00
C212   C     0.31144   0.94274   0.16667   0.00000  Uiso   1.00
C213   C     0.18856   0.55726   0.16667   0.00000  Uiso   1.00
C214   C     0.18856   0.94274   0.16667   0.00000  Uiso   1.00
C215   C     0.31144   0.55726   0.16667   0.00000  Uiso   1.00
C216   C     0.00000   0.71079   0.02476   0.00000  Uiso   1.00
Cl217  Cl    0.00000   0.65925   0.05421   0.00000  Uiso   1.00
Cl218  Cl    0.10502   0.82860   0.26378   0.00000  Uiso   1.00
Cl219  Cl    0.10503   0.82859   0.06955   0.00000  Uiso   1.00
Cl220  Cl    0.39498   0.67141   0.26378   0.00000  Uiso   1.00
Cl221  Cl    0.10502   0.67140   0.26378   0.00000  Uiso   1.00
Cl222  Cl    0.39498   0.82860   0.06955   0.00000  Uiso   1.00
Cl223  Cl    0.39498   0.82860   0.26378   0.00000  Uiso   1.00
Cl224  Cl    0.10502   0.67140   0.06955   0.00000  Uiso   1.00
Cl225  Cl    0.14498   0.92140   0.06955   0.00000  Uiso   1.00
Cl226  Cl    0.35502   0.57860   0.26378   0.00000  Uiso   1.00
Cl227  Cl    0.35503   0.57859   0.06955   0.00000  Uiso   1.00
Cl228  Cl   -0.00000   0.84075   0.27912   0.00000  Uiso   1.00
Cl229  Cl    0.14498   0.92141   0.26378   0.00000  Uiso   1.00
Cl230  Cl    0.35502   0.92140   0.26378   0.00000  Uiso   1.00
Cl231  Cl    0.14498   0.57860   0.06955   0.00000  Uiso   1.00
Cl232  Cl    0.14498   0.57860   0.26378   0.00000  Uiso   1.00
Cl233  Cl    0.35502   0.92140   0.06955   0.00000  Uiso   1.00
Cl234  Cl    0.00000   0.84075   0.05421   0.00000  Uiso   1.00
Cl235  Cl   -0.00000   0.65925   0.27912   0.00000  Uiso   1.00
Cl236  Cl    0.25000   0.90925   0.05421   0.00000  Uiso   1.00
Cl237  Cl    0.25000   0.59075   0.27912   0.00000  Uiso   1.00
Cl238  Cl    0.25000   0.59075   0.05421   0.00000  Uiso   1.00
Cl239  Cl    0.25000   0.90925   0.27912   0.00000  Uiso   1.00
Cl240  Cl    0.39498   0.67140   0.06955   0.00000  Uiso   1.00
Cu241  Cu    0.00000   0.75000   0.21355   0.00000  Uiso   1.00
Cu242  Cu    0.00000   0.75000   0.11978   0.00000  Uiso   1.00
Cu243  Cu    0.25000   0.50000   0.21355   0.00000  Uiso   1.00
Cu244  Cu    0.25000   0.50000   0.11978   0.00000  Uiso   1.00
N245   N     0.00000   0.75000   0.28402   0.00000  Uiso   1.00
N246   N     0.00000   0.75000   0.04931   0.00000  Uiso   1.00
N247   N     0.25000   0.50000   0.28402   0.00000  Uiso   1.00
N248   N     0.25000   0.50000   0.04931   0.00000  Uiso   1.00
O249   O     0.04509   0.70491   0.20625   0.00000  Uiso   1.00
O250   O     0.20492   0.54509   0.12709   0.00000  Uiso   1.00
O251   O     0.20492   0.54509   0.20625   0.00000  Uiso   1.00
O252   O     0.29509   0.95491   0.12709   0.00000  Uiso   1.00
O253   O     0.20492   0.95491   0.12709   0.00000  Uiso   1.00
O254   O     0.29509   0.54509   0.20625   0.00000  Uiso   1.00
O255   O     0.29509   0.54509   0.12709   0.00000  Uiso   1.00
O256   O     0.20492   0.95491   0.20625   0.00000  Uiso   1.00
O257   O     0.45492   0.79509   0.12709   0.00000  Uiso   1.00
O258   O     0.45492   0.79509   0.20625   0.00000  Uiso   1.00
O259   O     0.04509   0.70491   0.12709   0.00000  Uiso   1.00
O260   O     0.45492   0.70491   0.12709   0.00000  Uiso   1.00
O261   O     0.04509   0.79509   0.20625   0.00000  Uiso   1.00
O262   O     0.04509   0.79509   0.12709   0.00000  Uiso   1.00
O263   O     0.45492   0.70491   0.20625   0.00000  Uiso   1.00
O264   O     0.29509   0.95491   0.20625   0.00000  Uiso   1.00
C265   C     0.56144   0.69274   0.16667   0.00000  Uiso   1.00
C266   C     0.50000   0.78921   0.30857   0.00000  Uiso   1.00
C267   C     0.50000   0.78921   0.02476   0.00000  Uiso   1.00
C268   C     0.50000   0.71079   0.30857   0.00000  Uiso   1.00
C269   C     0.75000   0.96079   0.02476   0.00000  Uiso   1.00
C270   C     0.75000   0.53921   0.30857   0.00000  Uiso   1.00
C271   C     0.75000   0.53921   0.02476   0.00000  Uiso   1.00
C272   C     0.75000   0.96079   0.30857   0.00000  Uiso   1.00
C273   C     0.88772   0.64384   0.12394   0.00000  Uiso   1.00
C274   C     0.61228   0.85616   0.20940   0.00000  Uiso   1.00
C275   C     0.61228   0.85616   0.12394   0.00000  Uiso   1.00
C276   C     0.93856   0.80726   0.16667   0.00000  Uiso   1.00
C277   C     0.88772   0.64384   0.20940   0.00000  Uiso   1.00
C278   C     0.61228   0.64384   0.20940   0.00000  Uiso   1.00
C279   C     0.88772   0.85616   0.12394   0.00000  Uiso   1.00
C280   C     0.88772   0.85616   0.20940   0.00000  Uiso   1.00
C281   C     0.61228   0.64384   0.12394   0.00000  Uiso   1.00
C282   C     0.63772   0.89384   0.12394   0.00000  Uiso   1.00
C283   C     0.86228   0.60616   0.20940   0.00000  Uiso   1.00
C284   C     0.86228   0.60616   0.12394   0.00000  Uiso   1.00
C285   C     0.63772   0.89384   0.20940   0.00000  Uiso   1.00
C286   C     0.86228   0.89384   0.20940   0.00000  Uiso   1.00
C287   C     0.93856   0.69274   0.16667   0.00000  Uiso   1.00
C288   C     0.63772   0.60616   0.12394   0.00000  Uiso   1.00
C289   C     0.63772   0.60616   0.20940   0.00000  Uiso   1.00
C290   C     0.86228   0.89384   0.12394   0.00000  Uiso   1.00
C291   C     0.59665   0.83911   0.16667   0.00000  Uiso   1.00
C292   C     0.90335   0.66089   0.16667   0.00000  Uiso   1.00
C293   C     0.90335   0.83911   0.16667   0.00000  Uiso   1.00
C294   C     0.59665   0.66089   0.16667   0.00000  Uiso   1.00
C295   C     0.84665   0.58911   0.16667   0.00000  Uiso   1.00
C296   C     0.65335   0.91089   0.16667   0.00000  Uiso   1.00
C297   C     0.65335   0.58911   0.16667   0.00000  Uiso   1.00
C298   C     0.56144   0.80726   0.16667   0.00000  Uiso   1.00
C299   C     0.84665   0.91089   0.16667   0.00000  Uiso   1.00
C300   C     0.81144   0.94274   0.16667   0.00000  Uiso   1.00
C301   C     0.68856   0.55726   0.16667   0.00000  Uiso   1.00
C302   C     0.68856   0.94274   0.16667   0.00000  Uiso   1.00
C303   C     0.81144   0.55726   0.16667   0.00000  Uiso   1.00
C304   C     0.50000   0.71079   0.02476   0.00000  Uiso   1.00
Cl305  Cl    0.50000   0.65925   0.05421   0.00000  Uiso   1.00
Cl306  Cl    0.60502   0.82860   0.26378   0.00000  Uiso   1.00
Cl307  Cl    0.60503   0.82859   0.06955   0.00000  Uiso   1.00
Cl308  Cl    0.89498   0.67141   0.26378   0.00000  Uiso   1.00
Cl309  Cl    0.60502   0.67140   0.26378   0.00000  Uiso   1.00
Cl310  Cl    0.89498   0.82860   0.06955   0.00000  Uiso   1.00
Cl311  Cl    0.89498   0.82860   0.26378   0.00000  Uiso   1.00
Cl312  Cl    0.60502   0.67140   0.06955   0.00000  Uiso   1.00
Cl313  Cl    0.64498   0.92140   0.06955   0.00000  Uiso   1.00
Cl314  Cl    0.85502   0.57860   0.26378   0.00000  Uiso   1.00
Cl315  Cl    0.85503   0.57859   0.06955   0.00000  Uiso   1.00
Cl316  Cl    0.50000   0.84075   0.27912   0.00000  Uiso   1.00
Cl317  Cl    0.64498   0.92141   0.26378   0.00000  Uiso   1.00
Cl318  Cl    0.85502   0.92140   0.26378   0.00000  Uiso   1.00
Cl319  Cl    0.64498   0.57860   0.06955   0.00000  Uiso   1.00
Cl320  Cl    0.64498   0.57860   0.26378   0.00000  Uiso   1.00
Cl321  Cl    0.85502   0.92140   0.06955   0.00000  Uiso   1.00
Cl322  Cl    0.50000   0.84075   0.05421   0.00000  Uiso   1.00
Cl323  Cl    0.50000   0.65925   0.27912   0.00000  Uiso   1.00
Cl324  Cl    0.75000   0.90925   0.05421   0.00000  Uiso   1.00
Cl325  Cl    0.75000   0.59075   0.27912   0.00000  Uiso   1.00
Cl326  Cl    0.75000   0.59075   0.05421   0.00000  Uiso   1.00
Cl327  Cl    0.75000   0.90925   0.27912   0.00000  Uiso   1.00
Cl328  Cl    0.89498   0.67140   0.06955   0.00000  Uiso   1.00
Cu329  Cu    0.50000   0.75000   0.21355   0.00000  Uiso   1.00
Cu330  Cu    0.50000   0.75000   0.11978   0.00000  Uiso   1.00
Cu331  Cu    0.75000   0.50000   0.21355   0.00000  Uiso   1.00
Cu332  Cu    0.75000   0.50000   0.11978   0.00000  Uiso   1.00
N333   N     0.50000   0.75000   0.28402   0.00000  Uiso   1.00
N334   N     0.50000   0.75000   0.04931   0.00000  Uiso   1.00
N335   N     0.75000   0.50000   0.28402   0.00000  Uiso   1.00
N336   N     0.75000   0.50000   0.04931   0.00000  Uiso   1.00
O337   O     0.54509   0.70491   0.20625   0.00000  Uiso   1.00
O338   O     0.70492   0.54509   0.12709   0.00000  Uiso   1.00
O339   O     0.70492   0.54509   0.20625   0.00000  Uiso   1.00
O340   O     0.79509   0.95491   0.12709   0.00000  Uiso   1.00
O341   O     0.70492   0.95491   0.12709   0.00000  Uiso   1.00
O342   O     0.79509   0.54509   0.20625   0.00000  Uiso   1.00
O343   O     0.79509   0.54509   0.12709   0.00000  Uiso   1.00
O344   O     0.70492   0.95491   0.20625   0.00000  Uiso   1.00
O345   O     0.95492   0.79509   0.12709   0.00000  Uiso   1.00
O346   O     0.95492   0.79509   0.20625   0.00000  Uiso   1.00
O347   O     0.54509   0.70491   0.12709   0.00000  Uiso   1.00
O348   O     0.95492   0.70491   0.12709   0.00000  Uiso   1.00
O349   O     0.54509   0.79509   0.20625   0.00000  Uiso   1.00
O350   O     0.54509   0.79509   0.12709   0.00000  Uiso   1.00
O351   O     0.95492   0.70491   0.20625   0.00000  Uiso   1.00
O352   O     0.79509   0.95491   0.20625   0.00000  Uiso   1.00
C353   C     0.06144   0.19274   0.50000   0.00000  Uiso   1.00
C354   C     0.00000   0.28921   0.64191   0.00000  Uiso   1.00
C355   C     0.00000   0.28921   0.35809   0.00000  Uiso   1.00
C356   C    -0.00000   0.21079   0.64191   0.00000  Uiso   1.00
C357   C     0.25000   0.46079   0.35809   0.00000  Uiso   1.00
C358   C     0.25000   0.03921   0.64191   0.00000  Uiso   1.00
C359   C     0.25000   0.03921   0.35809   0.00000  Uiso   1.00
C360   C     0.25000   0.46079   0.64191   0.00000  Uiso   1.00
C361   C     0.38772   0.14384   0.45727   0.00000  Uiso   1.00
C362   C     0.11228   0.35616   0.54273   0.00000  Uiso   1.00
C363   C     0.11228   0.35616   0.45727   0.00000  Uiso   1.00
C364   C     0.43856   0.30726   0.50000   0.00000  Uiso   1.00
C365   C     0.38772   0.14384   0.54273   0.00000  Uiso   1.00
C366   C     0.11228   0.14384   0.54273   0.00000  Uiso   1.00
C367   C     0.38772   0.35616   0.45727   0.00000  Uiso   1.00
C368   C     0.38772   0.35616   0.54273   0.00000  Uiso   1.00
C369   C     0.11228   0.14384   0.45727   0.00000  Uiso   1.00
C370   C     0.13772   0.39384   0.45727   0.00000  Uiso   1.00
C371   C     0.36228   0.10616   0.54273   0.00000  Uiso   1.00
C372   C     0.36228   0.10616   0.45727   0.00000  Uiso   1.00
C373   C     0.13772   0.39384   0.54273   0.00000  Uiso   1.00
C374   C     0.36228   0.39384   0.54273   0.00000  Uiso   1.00
C375   C     0.43856   0.19274   0.50000   0.00000  Uiso   1.00
C376   C     0.13772   0.10616   0.45727   0.00000  Uiso   1.00
C377   C     0.13772   0.10616   0.54273   0.00000  Uiso   1.00
C378   C     0.36228   0.39384   0.45727   0.00000  Uiso   1.00
C379   C     0.09665   0.33911   0.50000   0.00000  Uiso   1.00
C380   C     0.40335   0.16089   0.50000   0.00000  Uiso   1.00
C381   C     0.40335   0.33911   0.50000   0.00000  Uiso   1.00
C382   C     0.09665   0.16089   0.50000   0.00000  Uiso   1.00
C383   C     0.34665   0.08911   0.50000   0.00000  Uiso   1.00
C384   C     0.15335   0.41089   0.50000   0.00000  Uiso   1.00
C385   C     0.15335   0.08911   0.50000   0.00000  Uiso   1.00
C386   C     0.06144   0.30726   0.50000   0.00000  Uiso   1.00
C387   C     0.34665   0.41089   0.50000   0.00000  Uiso   1.00
C388   C     0.31144   0.44274   0.50000   0.00000  Uiso   1.00
C389   C     0.18856   0.05726   0.50000   0.00000  Uiso   1.00
C390   C     0.18856   0.44274   0.50000   0.00000  Uiso   1.00
C391   C     0.31144   0.05726   0.50000   0.00000  Uiso   1.00
C392   C     0.00000   0.21079   0.35809   0.00000  Uiso   1.00
Cl393  Cl    0.00000   0.15925   0.38754   0.00000  Uiso   1.00
Cl394  Cl    0.10502   0.32860   0.59711   0.00000  Uiso   1.00
Cl395  Cl    0.10503   0.32859   0.40289   0.00000  Uiso   1.00
Cl396  Cl    0.39498   0.17141   0.59711   0.00000  Uiso   1.00
Cl397  Cl    0.10502   0.17140   0.59711   0.00000  Uiso   1.00
Cl398  Cl    0.39498   0.32860   0.40289   0.00000  Uiso   1.00
Cl399  Cl    0.39498   0.32860   0.59711   0.00000  Uiso   1.00
Cl400  Cl    0.10502   0.17140   0.40289   0.00000  Uiso   1.00
Cl401  Cl    0.14498   0.42140   0.40288   0.00000  Uiso   1.00
Cl402  Cl    0.35502   0.07860   0.59711   0.00000  Uiso   1.00
Cl403  Cl    0.35503   0.07859   0.40289   0.00000  Uiso   1.00
Cl404  Cl   -0.00000   0.34075   0.61246   0.00000  Uiso   1.00
Cl405  Cl    0.14498   0.42141   0.59711   0.00000  Uiso   1.00
Cl406  Cl    0.35502   0.42140   0.59711   0.00000  Uiso   1.00
Cl407  Cl    0.14498   0.07860   0.40289   0.00000  Uiso   1.00
Cl408  Cl    0.14498   0.07860   0.59711   0.00000  Uiso   1.00
Cl409  Cl    0.35502   0.42140   0.40289   0.00000  Uiso   1.00
Cl410  Cl    0.00000   0.34075   0.38754   0.00000  Uiso   1.00
Cl411  Cl   -0.00000   0.15925   0.61246   0.00000  Uiso   1.00
Cl412  Cl    0.25000   0.40925   0.38754   0.00000  Uiso   1.00
Cl413  Cl    0.25000   0.09075   0.61246   0.00000  Uiso   1.00
Cl414  Cl    0.25000   0.09075   0.38754   0.00000  Uiso   1.00
Cl415  Cl    0.25000   0.40925   0.61246   0.00000  Uiso   1.00
Cl416  Cl    0.39498   0.17140   0.40289   0.00000  Uiso   1.00
Cu417  Cu    0.00000   0.25000   0.54689   0.00000  Uiso   1.00
Cu418  Cu    0.00000   0.25000   0.45311   0.00000  Uiso   1.00
Cu419  Cu    0.25000   0.00000   0.54689   0.00000  Uiso   1.00
Cu420  Cu    0.25000   0.00000   0.45311   0.00000  Uiso   1.00
N421   N     0.00000   0.25000   0.61736   0.00000  Uiso   1.00
N422   N     0.00000   0.25000   0.38264   0.00000  Uiso   1.00
N423   N     0.25000   0.00000   0.61736   0.00000  Uiso   1.00
N424   N     0.25000   0.00000   0.38264   0.00000  Uiso   1.00
O425   O     0.04509   0.20491   0.53958   0.00000  Uiso   1.00
O426   O     0.20492   0.04509   0.46042   0.00000  Uiso   1.00
O427   O     0.20492   0.04509   0.53958   0.00000  Uiso   1.00
O428   O     0.29509   0.45491   0.46042   0.00000  Uiso   1.00
O429   O     0.20492   0.45491   0.46042   0.00000  Uiso   1.00
O430   O     0.29509   0.04509   0.53958   0.00000  Uiso   1.00
O431   O     0.29509   0.04509   0.46042   0.00000  Uiso   1.00
O432   O     0.20492   0.45491   0.53958   0.00000  Uiso   1.00
O433   O     0.45492   0.29509   0.46042   0.00000  Uiso   1.00
O434   O     0.45492   0.29509   0.53958   0.00000  Uiso   1.00
O435   O     0.04509   0.20491   0.46042   0.00000  Uiso   1.00
O436   O     0.45492   0.20491   0.46042   0.00000  Uiso   1.00
O437   O     0.04509   0.29509   0.53958   0.00000  Uiso   1.00
O438   O     0.04509   0.29509   0.46042   0.00000  Uiso   1.00
O439   O     0.45492   0.20491   0.53958   0.00000  Uiso   1.00
O440   O     0.29509   0.45491   0.53958   0.00000  Uiso   1.00
C441   C     0.56144   0.19274   0.50000   0.00000  Uiso   1.00
C442   C     0.50000   0.28921   0.64191   0.00000  Uiso   1.00
C443   C     0.50000   0.28921   0.35809   0.00000  Uiso   1.00
C444   C     0.50000   0.21079   0.64191   0.00000  Uiso   1.00
C445   C     0.75000   0.46079   0.35809   0.00000  Uiso   1.00
C446   C     0.75000   0.03921   0.64191   0.00000  Uiso   1.00
C447   C     0.75000   0.03921   0.35809   0.00000  Uiso   1.00
C448   C     0.75000   0.46079   0.64191   0.00000  Uiso   1.00
C449   C     0.88772   0.14384   0.45727   0.00000  Uiso   1.00
C450   C     0.61228   0.35616   0.54273   0.00000  Uiso   1.00
C451   C     0.61228   0.35616   0.45727   0.00000  Uiso   1.00
C452   C     0.93856   0.30726   0.50000   0.00000  Uiso   1.00
C453   C     0.88772   0.14384   0.54273   0.00000  Uiso   1.00
C454   C     0.61228   0.14384   0.54273   0.00000  Uiso   1.00
C455   C     0.88772   0.35616   0.45727   0.00000  Uiso   1.00
C456   C     0.88772   0.35616   0.54273   0.00000  Uiso   1.00
C457   C     0.61228   0.14384   0.45727   0.00000  Uiso   1.00
C458   C     0.63772   0.39384   0.45727   0.00000  Uiso   1.00
C459   C     0.86228   0.10616   0.54273   0.00000  Uiso   1.00
C460   C     0.86228   0.10616   0.45727   0.00000  Uiso   1.00
C461   C     0.63772   0.39384   0.54273   0.00000  Uiso   1.00
C462   C     0.86228   0.39384   0.54273   0.00000  Uiso   1.00
C463   C     0.93856   0.19274   0.50000   0.00000  Uiso   1.00
C464   C     0.63772   0.10616   0.45727   0.00000  Uiso   1.00
C465   C     0.63772   0.10616   0.54273   0.00000  Uiso   1.00
C466   C     0.86228   0.39384   0.45727   0.00000  Uiso   1.00
C467   C     0.59665   0.33911   0.50000   0.00000  Uiso   1.00
C468   C     0.90335   0.16089   0.50000   0.00000  Uiso   1.00
C469   C     0.90335   0.33911   0.50000   0.00000  Uiso   1.00
C470   C     0.59665   0.16089   0.50000   0.00000  Uiso   1.00
C471   C     0.84665   0.08911   0.50000   0.00000  Uiso   1.00
C472   C     0.65335   0.41089   0.50000   0.00000  Uiso   1.00
C473   C     0.65335   0.08911   0.50000   0.00000  Uiso   1.00
C474   C     0.56144   0.30726   0.50000   0.00000  Uiso   1.00
C475   C     0.84665   0.41089   0.50000   0.00000  Uiso   1.00
C476   C     0.81144   0.44274   0.50000   0.00000  Uiso   1.00
C477   C     0.68856   0.05726   0.50000   0.00000  Uiso   1.00
C478   C     0.68856   0.44274   0.50000   0.00000  Uiso   1.00
C479   C     0.81144   0.05726   0.50000   0.00000  Uiso   1.00
C480   C     0.50000   0.21079   0.35809   0.00000  Uiso   1.00
Cl481  Cl    0.50000   0.15925   0.38754   0.00000  Uiso   1.00
Cl482  Cl    0.60502   0.32860   0.59711   0.00000  Uiso   1.00
Cl483  Cl    0.60503   0.32859   0.40289   0.00000  Uiso   1.00
Cl484  Cl    0.89498   0.17141   0.59711   0.00000  Uiso   1.00
Cl485  Cl    0.60502   0.17140   0.59711   0.00000  Uiso   1.00
Cl486  Cl    0.89498   0.32860   0.40289   0.00000  Uiso   1.00
Cl487  Cl    0.89498   0.32860   0.59711   0.00000  Uiso   1.00
Cl488  Cl    0.60502   0.17140   0.40289   0.00000  Uiso   1.00
Cl489  Cl    0.64498   0.42140   0.40288   0.00000  Uiso   1.00
Cl490  Cl    0.85502   0.07860   0.59711   0.00000  Uiso   1.00
Cl491  Cl    0.85503   0.07859   0.40289   0.00000  Uiso   1.00
Cl492  Cl    0.50000   0.34075   0.61246   0.00000  Uiso   1.00
Cl493  Cl    0.64498   0.42141   0.59711   0.00000  Uiso   1.00
Cl494  Cl    0.85502   0.42140   0.59711   0.00000  Uiso   1.00
Cl495  Cl    0.64498   0.07860   0.40289   0.00000  Uiso   1.00
Cl496  Cl    0.64498   0.07860   0.59711   0.00000  Uiso   1.00
Cl497  Cl    0.85502   0.42140   0.40289   0.00000  Uiso   1.00
Cl498  Cl    0.50000   0.34075   0.38754   0.00000  Uiso   1.00
Cl499  Cl    0.50000   0.15925   0.61246   0.00000  Uiso   1.00
Cl500  Cl    0.75000   0.40925   0.38754   0.00000  Uiso   1.00
Cl501  Cl    0.75000   0.09075   0.61246   0.00000  Uiso   1.00
Cl502  Cl    0.75000   0.09075   0.38754   0.00000  Uiso   1.00
Cl503  Cl    0.75000   0.40925   0.61246   0.00000  Uiso   1.00
Cl504  Cl    0.89498   0.17140   0.40289   0.00000  Uiso   1.00
Cu505  Cu    0.50000   0.25000   0.54689   0.00000  Uiso   1.00
Cu506  Cu    0.50000   0.25000   0.45311   0.00000  Uiso   1.00
Cu507  Cu    0.75000   0.00000   0.54689   0.00000  Uiso   1.00
Cu508  Cu    0.75000   0.00000   0.45311   0.00000  Uiso   1.00
N509   N     0.50000   0.25000   0.61736   0.00000  Uiso   1.00
N510   N     0.50000   0.25000   0.38264   0.00000  Uiso   1.00
N511   N     0.75000   0.00000   0.61736   0.00000  Uiso   1.00
N512   N     0.75000   0.00000   0.38264   0.00000  Uiso   1.00
O513   O     0.54509   0.20491   0.53958   0.00000  Uiso   1.00
O514   O     0.70492   0.04509   0.46042   0.00000  Uiso   1.00
O515   O     0.70492   0.04509   0.53958   0.00000  Uiso   1.00
O516   O     0.79509   0.45491   0.46042   0.00000  Uiso   1.00
O517   O     0.70492   0.45491   0.46042   0.00000  Uiso   1.00
O518   O     0.79509   0.04509   0.53958   0.00000  Uiso   1.00
O519   O     0.79509   0.04509   0.46042   0.00000  Uiso   1.00
O520   O     0.70492   0.45491   0.53958   0.00000  Uiso   1.00
O521   O     0.95492   0.29509   0.46042   0.00000  Uiso   1.00
O522   O     0.95492   0.29509   0.53958   0.00000  Uiso   1.00
O523   O     0.54509   0.20491   0.46042   0.00000  Uiso   1.00
O524   O     0.95492   0.20491   0.46042   0.00000  Uiso   1.00
O525   O     0.54509   0.29509   0.53958   0.00000  Uiso   1.00
O526   O     0.54509   0.29509   0.46042   0.00000  Uiso   1.00
O527   O     0.95492   0.20491   0.53958   0.00000  Uiso   1.00
O528   O     0.79509   0.45491   0.53958   0.00000  Uiso   1.00
C529   C     0.06144   0.69274   0.50000   0.00000  Uiso   1.00
C530   C     0.00000   0.78921   0.64191   0.00000  Uiso   1.00
C531   C     0.00000   0.78921   0.35809   0.00000  Uiso   1.00
C532   C    -0.00000   0.71079   0.64191   0.00000  Uiso   1.00
C533   C     0.25000   0.96079   0.35809   0.00000  Uiso   1.00
C534   C     0.25000   0.53921   0.64191   0.00000  Uiso   1.00
C535   C     0.25000   0.53921   0.35809   0.00000  Uiso   1.00
C536   C     0.25000   0.96079   0.64191   0.00000  Uiso   1.00
C537   C     0.38772   0.64384   0.45727   0.00000  Uiso   1.00
C538   C     0.11228   0.85616   0.54273   0.00000  Uiso   1.00
C539   C     0.11228   0.85616   0.45727   0.00000  Uiso   1.00
C540   C     0.43856   0.80726   0.50000   0.00000  Uiso   1.00
C541   C     0.38772   0.64384   0.54273   0.00000  Uiso   1.00
C542   C     0.11228   0.64384   0.54273   0.00000  Uiso   1.00
C543   C     0.38772   0.85616   0.45727   0.00000  Uiso   1.00
C544   C     0.38772   0.85616   0.54273   0.00000  Uiso   1.00
C545   C     0.11228   0.64384   0.45727   0.00000  Uiso   1.00
C546   C     0.13772   0.89384   0.45727   0.00000  Uiso   1.00
C547   C     0.36228   0.60616   0.54273   0.00000  Uiso   1.00
C548   C     0.36228   0.60616   0.45727   0.00000  Uiso   1.00
C549   C     0.13772   0.89384   0.54273   0.00000  Uiso   1.00
C550   C     0.36228   0.89384   0.54273   0.00000  Uiso   1.00
C551   C     0.43856   0.69274   0.50000   0.00000  Uiso   1.00
C552   C     0.13772   0.60616   0.45727   0.00000  Uiso   1.00
C553   C     0.13772   0.60616   0.54273   0.00000  Uiso   1.00
C554   C     0.36228   0.89384   0.45727   0.00000  Uiso   1.00
C555   C     0.09665   0.83911   0.50000   0.00000  Uiso   1.00
C556   C     0.40335   0.66089   0.50000   0.00000  Uiso   1.00
C557   C     0.40335   0.83911   0.50000   0.00000  Uiso   1.00
C558   C     0.09665   0.66089   0.50000   0.00000  Uiso   1.00
C559   C     0.34665   0.58911   0.50000   0.00000  Uiso   1.00
C560   C     0.15335   0.91089   0.50000   0.00000  Uiso   1.00
C561   C     0.15335   0.58911   0.50000   0.00000  Uiso   1.00
C562   C     0.06144   0.80726   0.50000   0.00000  Uiso   1.00
C563   C     0.34665   0.91089   0.50000   0.00000  Uiso   1.00
C564   C     0.31144   0.94274   0.50000   0.00000  Uiso   1.00
C565   C     0.18856   0.55726   0.50000   0.00000  Uiso   1.00
C566   C     0.18856   0.94274   0.50000   0.00000  Uiso   1.00
C567   C     0.31144   0.55726   0.50000   0.00000  Uiso   1.00
C568   C     0.00000   0.71079   0.35809   0.00000  Uiso   1.00
Cl569  Cl    0.00000   0.65925   0.38754   0.00000  Uiso   1.00
Cl570  Cl    0.10502   0.82860   0.59711   0.00000  Uiso   1.00
Cl571  Cl    0.10503   0.82859   0.40289   0.00000  Uiso   1.00
Cl572  Cl    0.39498   0.67141   0.59711   0.00000  Uiso   1.00
Cl573  Cl    0.10502   0.67140   0.59711   0.00000  Uiso   1.00
Cl574  Cl    0.39498   0.82860   0.40289   0.00000  Uiso   1.00
Cl575  Cl    0.39498   0.82860   0.59711   0.00000  Uiso   1.00
Cl576  Cl    0.10502   0.67140   0.40289   0.00000  Uiso   1.00
Cl577  Cl    0.14498   0.92140   0.40288   0.00000  Uiso   1.00
Cl578  Cl    0.35502   0.57860   0.59711   0.00000  Uiso   1.00
Cl579  Cl    0.35503   0.57859   0.40289   0.00000  Uiso   1.00
Cl580  Cl   -0.00000   0.84075   0.61246   0.00000  Uiso   1.00
Cl581  Cl    0.14498   0.92141   0.59711   0.00000  Uiso   1.00
Cl582  Cl    0.35502   0.92140   0.59711   0.00000  Uiso   1.00
Cl583  Cl    0.14498   0.57860   0.40289   0.00000  Uiso   1.00
Cl584  Cl    0.14498   0.57860   0.59711   0.00000  Uiso   1.00
Cl585  Cl    0.35502   0.92140   0.40289   0.00000  Uiso   1.00
Cl586  Cl    0.00000   0.84075   0.38754   0.00000  Uiso   1.00
Cl587  Cl   -0.00000   0.65925   0.61246   0.00000  Uiso   1.00
Cl588  Cl    0.25000   0.90925   0.38754   0.00000  Uiso   1.00
Cl589  Cl    0.25000   0.59075   0.61246   0.00000  Uiso   1.00
Cl590  Cl    0.25000   0.59075   0.38754   0.00000  Uiso   1.00
Cl591  Cl    0.25000   0.90925   0.61246   0.00000  Uiso   1.00
Cl592  Cl    0.39498   0.67140   0.40289   0.00000  Uiso   1.00
Cu593  Cu    0.00000   0.75000   0.54689   0.00000  Uiso   1.00
Cu594  Cu    0.00000   0.75000   0.45311   0.00000  Uiso   1.00
Cu595  Cu    0.25000   0.50000   0.54689   0.00000  Uiso   1.00
Cu596  Cu    0.25000   0.50000   0.45311   0.00000  Uiso   1.00
N597   N     0.00000   0.75000   0.61736   0.00000  Uiso   1.00
N598   N     0.00000   0.75000   0.38264   0.00000  Uiso   1.00
N599   N     0.25000   0.50000   0.61736   0.00000  Uiso   1.00
N600   N     0.25000   0.50000   0.38264   0.00000  Uiso   1.00
O601   O     0.04509   0.70491   0.53958   0.00000  Uiso   1.00
O602   O     0.20492   0.54509   0.46042   0.00000  Uiso   1.00
O603   O     0.20492   0.54509   0.53958   0.00000  Uiso   1.00
O604   O     0.29509   0.95491   0.46042   0.00000  Uiso   1.00
O605   O     0.20492   0.95491   0.46042   0.00000  Uiso   1.00
O606   O     0.29509   0.54509   0.53958   0.00000  Uiso   1.00
O607   O     0.29509   0.54509   0.46042   0.00000  Uiso   1.00
O608   O     0.20492   0.95491   0.53958   0.00000  Uiso   1.00
O609   O     0.45492   0.79509   0.46042   0.00000  Uiso   1.00
O610   O     0.45492   0.79509   0.53958   0.00000  Uiso   1.00
O611   O     0.04509   0.70491   0.46042   0.00000  Uiso   1.00
O612   O     0.45492   0.70491   0.46042   0.00000  Uiso   1.00
O613   O     0.04509   0.79509   0.53958   0.00000  Uiso   1.00
O614   O     0.04509   0.79509   0.46042   0.00000  Uiso   1.00
O615   O     0.45492   0.70491   0.53958   0.00000  Uiso   1.00
O616   O     0.29509   0.95491   0.53958   0.00000  Uiso   1.00
C617   C     0.56144   0.69274   0.50000   0.00000  Uiso   1.00
C618   C     0.50000   0.78921   0.64191   0.00000  Uiso   1.00
C619   C     0.50000   0.78921   0.35809   0.00000  Uiso   1.00
C620   C     0.50000   0.71079   0.64191   0.00000  Uiso   1.00
C621   C     0.75000   0.96079   0.35809   0.00000  Uiso   1.00
C622   C     0.75000   0.53921   0.64191   0.00000  Uiso   1.00
C623   C     0.75000   0.53921   0.35809   0.00000  Uiso   1.00
C624   C     0.75000   0.96079   0.64191   0.00000  Uiso   1.00
C625   C     0.88772   0.64384   0.45727   0.00000  Uiso   1.00
C626   C     0.61228   0.85616   0.54273   0.00000  Uiso   1.00
C627   C     0.61228   0.85616   0.45727   0.00000  Uiso   1.00
C628   C     0.93856   0.80726   0.50000   0.00000  Uiso   1.00
C629   C     0.88772   0.64384   0.54273   0.00000  Uiso   1.00
C630   C     0.61228   0.64384   0.54273   0.00000  Uiso   1.00
C631   C     0.88772   0.85616   0.45727   0.00000  Uiso   1.00
C632   C     0.88772   0.85616   0.54273   0.00000  Uiso   1.00
C633   C     0.61228   0.64384   0.45727   0.00000  Uiso   1.00
C634   C     0.63772   0.89384   0.45727   0.00000  Uiso   1.00
C635   C     0.86228   0.60616   0.54273   0.00000  Uiso   1.00
C636   C     0.86228   0.60616   0.45727   0.00000  Uiso   1.00
C637   C     0.63772   0.89384   0.54273   0.00000  Uiso   1.00
C638   C     0.86228   0.89384   0.54273   0.00000  Uiso   1.00
C639   C     0.93856   0.69274   0.50000   0.00000  Uiso   1.00
C640   C     0.63772   0.60616   0.45727   0.00000  Uiso   1.00
C641   C     0.63772   0.60616   0.54273   0.00000  Uiso   1.00
C642   C     0.86228   0.89384   0.45727   0.00000  Uiso   1.00
C643   C     0.59665   0.83911   0.50000   0.00000  Uiso   1.00
C644   C     0.90335   0.66089   0.50000   0.00000  Uiso   1.00
C645   C     0.90335   0.83911   0.50000   0.00000  Uiso   1.00
C646   C     0.59665   0.66089   0.50000   0.00000  Uiso   1.00
C647   C     0.84665   0.58911   0.50000   0.00000  Uiso   1.00
C648   C     0.65335   0.91089   0.50000   0.00000  Uiso   1.00
C649   C     0.65335   0.58911   0.50000   0.00000  Uiso   1.00
C650   C     0.56144   0.80726   0.50000   0.00000  Uiso   1.00
C651   C     0.84665   0.91089   0.50000   0.00000  Uiso   1.00
C652   C     0.81144   0.94274   0.50000   0.00000  Uiso   1.00
C653   C     0.68856   0.55726   0.50000   0.00000  Uiso   1.00
C654   C     0.68856   0.94274   0.50000   0.00000  Uiso   1.00
C655   C     0.81144   0.55726   0.50000   0.00000  Uiso   1.00
C656   C     0.50000   0.71079   0.35809   0.00000  Uiso   1.00
Cl657  Cl    0.50000   0.65925   0.38754   0.00000  Uiso   1.00
Cl658  Cl    0.60502   0.82860   0.59711   0.00000  Uiso   1.00
Cl659  Cl    0.60503   0.82859   0.40289   0.00000  Uiso   1.00
Cl660  Cl    0.89498   0.67141   0.59711   0.00000  Uiso   1.00
Cl661  Cl    0.60502   0.67140   0.59711   0.00000  Uiso   1.00
Cl662  Cl    0.89498   0.82860   0.40289   0.00000  Uiso   1.00
Cl663  Cl    0.89498   0.82860   0.59711   0.00000  Uiso   1.00
Cl664  Cl    0.60502   0.67140   0.40289   0.00000  Uiso   1.00
Cl665  Cl    0.64498   0.92140   0.40288   0.00000  Uiso   1.00
Cl666  Cl    0.85502   0.57860   0.59711   0.00000  Uiso   1.00
Cl667  Cl    0.85503   0.57859   0.40289   0.00000  Uiso   1.00
Cl668  Cl    0.50000   0.84075   0.61246   0.00000  Uiso   1.00
Cl669  Cl    0.64498   0.92141   0.59711   0.00000  Uiso   1.00
Cl670  Cl    0.85502   0.92140   0.59711   0.00000  Uiso   1.00
Cl671  Cl    0.64498   0.57860   0.40289   0.00000  Uiso   1.00
Cl672  Cl    0.64498   0.57860   0.59711   0.00000  Uiso   1.00
Cl673  Cl    0.85502   0.92140   0.40289   0.00000  Uiso   1.00
Cl674  Cl    0.50000   0.84075   0.38754   0.00000  Uiso   1.00
Cl675  Cl    0.50000   0.65925   0.61246   0.00000  Uiso   1.00
Cl676  Cl    0.75000   0.90925   0.38754   0.00000  Uiso   1.00
Cl677  Cl    0.75000   0.59075   0.61246   0.00000  Uiso   1.00
Cl678  Cl    0.75000   0.59075   0.38754   0.00000  Uiso   1.00
Cl679  Cl    0.75000   0.90925   0.61246   0.00000  Uiso   1.00
Cl680  Cl    0.89498   0.67140   0.40289   0.00000  Uiso   1.00
Cu681  Cu    0.50000   0.75000   0.54689   0.00000  Uiso   1.00
Cu682  Cu    0.50000   0.75000   0.45311   0.00000  Uiso   1.00
Cu683  Cu    0.75000   0.50000   0.54689   0.00000  Uiso   1.00
Cu684  Cu    0.75000   0.50000   0.45311   0.00000  Uiso   1.00
N685   N     0.50000   0.75000   0.61736   0.00000  Uiso   1.00
N686   N     0.50000   0.75000   0.38264   0.00000  Uiso   1.00
N687   N     0.75000   0.50000   0.61736   0.00000  Uiso   1.00
N688   N     0.75000   0.50000   0.38264   0.00000  Uiso   1.00
O689   O     0.54509   0.70491   0.53958   0.00000  Uiso   1.00
O690   O     0.70492   0.54509   0.46042   0.00000  Uiso   1.00
O691   O     0.70492   0.54509   0.53958   0.00000  Uiso   1.00
O692   O     0.79509   0.95491   0.46042   0.00000  Uiso   1.00
O693   O     0.70492   0.95491   0.46042   0.00000  Uiso   1.00
O694   O     0.79509   0.54509   0.53958   0.00000  Uiso   1.00
O695   O     0.79509   0.54509   0.46042   0.00000  Uiso   1.00
O696   O     0.70492   0.95491   0.53958   0.00000  Uiso   1.00
O697   O     0.95492   0.79509   0.46042   0.00000  Uiso   1.00
O698   O     0.95492   0.79509   0.53958   0.00000  Uiso   1.00
O699   O     0.54509   0.70491   0.46042   0.00000  Uiso   1.00
O700   O     0.95492   0.70491   0.46042   0.00000  Uiso   1.00
O701   O     0.54509   0.79509   0.53958   0.00000  Uiso   1.00
O702   O     0.54509   0.79509   0.46042   0.00000  Uiso   1.00
O703   O     0.95492   0.70491   0.53958   0.00000  Uiso   1.00
O704   O     0.79509   0.95491   0.53958   0.00000  Uiso   1.00
C705   C     0.06144   0.19274   0.83333   0.00000  Uiso   1.00
C706   C     0.00000   0.28921   0.97524   0.00000  Uiso   1.00
C707   C     0.00000   0.28921   0.69143   0.00000  Uiso   1.00
C708   C    -0.00000   0.21079   0.97524   0.00000  Uiso   1.00
C709   C     0.25000   0.46079   0.69143   0.00000  Uiso   1.00
C710   C     0.25000   0.03921   0.97524   0.00000  Uiso   1.00
C711   C     0.25000   0.03921   0.69143   0.00000  Uiso   1.00
C712   C     0.25000   0.46079   0.97524   0.00000  Uiso   1.00
C713   C     0.38772   0.14384   0.79060   0.00000  Uiso   1.00
C714   C     0.11228   0.35616   0.87606   0.00000  Uiso   1.00
C715   C     0.11228   0.35616   0.79060   0.00000  Uiso   1.00
C716   C     0.43856   0.30726   0.83333   0.00000  Uiso   1.00
C717   C     0.38772   0.14384   0.87606   0.00000  Uiso   1.00
C718   C     0.11228   0.14384   0.87606   0.00000  Uiso   1.00
C719   C     0.38772   0.35616   0.79060   0.00000  Uiso   1.00
C720   C     0.38772   0.35616   0.87606   0.00000  Uiso   1.00
C721   C     0.11228   0.14384   0.79060   0.00000  Uiso   1.00
C722   C     0.13772   0.39384   0.79060   0.00000  Uiso   1.00
C723   C     0.36228   0.10616   0.87606   0.00000  Uiso   1.00
C724   C     0.36228   0.10616   0.79060   0.00000  Uiso   1.00
C725   C     0.13772   0.39384   0.87606   0.00000  Uiso   1.00
C726   C     0.36228   0.39384   0.87606   0.00000  Uiso   1.00
C727   C     0.43856   0.19274   0.83333   0.00000  Uiso   1.00
C728   C     0.13772   0.10616   0.79060   0.00000  Uiso   1.00
C729   C     0.13772   0.10616   0.87606   0.00000  Uiso   1.00
C730   C     0.36228   0.39384   0.79060   0.00000  Uiso   1.00
C731   C     0.09665   0.33911   0.83333   0.00000  Uiso   1.00
C732   C     0.40335   0.16089   0.83333   0.00000  Uiso   1.00
C733   C     0.40335   0.33911   0.83333   0.00000  Uiso   1.00
C734   C     0.09665   0.16089   0.83333   0.00000  Uiso   1.00
C735   C     0.34665   0.08911   0.83333   0.00000  Uiso   1.00
C736   C     0.15335   0.41089   0.83333   0.00000  Uiso   1.00
C737   C     0.15335   0.08911   0.83333   0.00000  Uiso   1.00
C738   C     0.06144   0.30726   0.83333   0.00000  Uiso   1.00
C739   C     0.34665   0.41089   0.83333   0.00000  Uiso   1.00
C740   C     0.31144   0.44274   0.83333   0.00000  Uiso   1.00
C741   C     0.18856   0.05726   0.83333   0.00000  Uiso   1.00
C742   C     0.18856   0.44274   0.83333   0.00000  Uiso   1.00
C743   C     0.31144   0.05726   0.83333   0.00000  Uiso   1.00
C744   C     0.00000   0.21079   0.69143   0.00000  Uiso   1.00
Cl745  Cl    0.00000   0.15925   0.72088   0.00000  Uiso   1.00
Cl746  Cl    0.10502   0.32860   0.93045   0.00000  Uiso   1.00
Cl747  Cl    0.10503   0.32859   0.73622   0.00000  Uiso   1.00
Cl748  Cl    0.39498   0.17141   0.93045   0.00000  Uiso   1.00
Cl749  Cl    0.10502   0.17140   0.93045   0.00000  Uiso   1.00
Cl750  Cl    0.39498   0.32860   0.73622   0.00000  Uiso   1.00
Cl751  Cl    0.39498   0.32860   0.93045   0.00000  Uiso   1.00
Cl752  Cl    0.10502   0.17140   0.73622   0.00000  Uiso   1.00
Cl753  Cl    0.14498   0.42140   0.73622   0.00000  Uiso   1.00
Cl754  Cl    0.35502   0.07860   0.93045   0.00000  Uiso   1.00
Cl755  Cl    0.35503   0.07859   0.73622   0.00000  Uiso   1.00
Cl756  Cl   -0.00000   0.34075   0.94579   0.00000  Uiso   1.00
Cl757  Cl    0.14498   0.42141   0.93045   0.00000  Uiso   1.00
Cl758  Cl    0.35502   0.42140   0.93045   0.00000  Uiso   1.00
Cl759  Cl    0.14498   0.07860   0.73622   0.00000  Uiso   1.00
Cl760  Cl    0.14498   0.07860   0.93045   0.00000  Uiso   1.00
Cl761  Cl    0.35502   0.42140   0.73622   0.00000  Uiso   1.00
Cl762  Cl    0.00000   0.34075   0.72088   0.00000  Uiso   1.00
Cl763  Cl   -0.00000   0.15925   0.94579   0.00000  Uiso   1.00
Cl764  Cl    0.25000   0.40925   0.72088   0.00000  Uiso   1.00
Cl765  Cl    0.25000   0.09075   0.94579   0.00000  Uiso   1.00
Cl766  Cl    0.25000   0.09075   0.72088   0.00000  Uiso   1.00
Cl767  Cl    0.25000   0.40925   0.94579   0.00000  Uiso   1.00
Cl768  Cl    0.39498   0.17140   0.73622   0.00000  Uiso   1.00
Cu769  Cu    0.00000   0.25000   0.88022   0.00000  Uiso   1.00
Cu770  Cu    0.00000   0.25000   0.78645   0.00000  Uiso   1.00
Cu771  Cu    0.25000   0.00000   0.88022   0.00000  Uiso   1.00
Cu772  Cu    0.25000   0.00000   0.78645   0.00000  Uiso   1.00
N773   N     0.00000   0.25000   0.95069   0.00000  Uiso   1.00
N774   N     0.00000   0.25000   0.71598   0.00000  Uiso   1.00
N775   N     0.25000   0.00000   0.95069   0.00000  Uiso   1.00
N776   N     0.25000   0.00000   0.71598   0.00000  Uiso   1.00
O777   O     0.04509   0.20491   0.87291   0.00000  Uiso   1.00
O778   O     0.20492   0.04509   0.79375   0.00000  Uiso   1.00
O779   O     0.20492   0.04509   0.87291   0.00000  Uiso   1.00
O780   O     0.29509   0.45491   0.79375   0.00000  Uiso   1.00
O781   O     0.20492   0.45491   0.79375   0.00000  Uiso   1.00
O782   O     0.29509   0.04509   0.87291   0.00000  Uiso   1.00
O783   O     0.29509   0.04509   0.79375   0.00000  Uiso   1.00
O784   O     0.20492   0.45491   0.87291   0.00000  Uiso   1.00
O785   O     0.45492   0.29509   0.79375   0.00000  Uiso   1.00
O786   O     0.45492   0.29509   0.87291   0.00000  Uiso   1.00
O787   O     0.04509   0.20491   0.79375   0.00000  Uiso   1.00
O788   O     0.45492   0.20491   0.79375   0.00000  Uiso   1.00
O789   O     0.04509   0.29509   0.87291   0.00000  Uiso   1.00
O790   O     0.04509   0.29509   0.79375   0.00000  Uiso   1.00
O791   O     0.45492   0.20491   0.87291   0.00000  Uiso   1.00
O792   O     0.29509   0.45491   0.87291   0.00000  Uiso   1.00
C793   C     0.56144   0.19274   0.83333   0.00000  Uiso   1.00
C794   C     0.50000   0.28921   0.97524   0.00000  Uiso   1.00
C795   C     0.50000   0.28921   0.69143   0.00000  Uiso   1.00
C796   C     0.50000   0.21079   0.97524   0.00000  Uiso   1.00
C797   C     0.75000   0.46079   0.69143   0.00000  Uiso   1.00
C798   C     0.75000   0.03921   0.97524   0.00000  Uiso   1.00
C799   C     0.75000   0.03921   0.69143   0.00000  Uiso   1.00
C800   C     0.75000   0.46079   0.97524   0.00000  Uiso   1.00
C801   C     0.88772   0.14384   0.79060   0.00000  Uiso   1.00
C802   C     0.61228   0.35616   0.87606   0.00000  Uiso   1.00
C803   C     0.61228   0.35616   0.79060   0.00000  Uiso   1.00
C804   C     0.93856   0.30726   0.83333   0.00000  Uiso   1.00
C805   C     0.88772   0.14384   0.87606   0.00000  Uiso   1.00
C806   C     0.61228   0.14384   0.87606   0.00000  Uiso   1.00
C807   C     0.88772   0.35616   0.79060   0.00000  Uiso   1.00
C808   C     0.88772   0.35616   0.87606   0.00000  Uiso   1.00
C809   C     0.61228   0.14384   0.79060   0.00000  Uiso   1.00
C810   C     0.63772   0.39384   0.79060   0.00000  Uiso   1.00
C811   C     0.86228   0.10616   0.87606   0.00000  Uiso   1.00
C812   C     0.86228   0.10616   0.79060   0.00000  Uiso   1.00
C813   C     0.63772   0.39384   0.87606   0.00000  Uiso   1.00
C814   C     0.86228   0.39384   0.87606   0.00000  Uiso   1.00
C815   C     0.93856   0.19274   0.83333   0.00000  Uiso   1.00
C816   C     0.63772   0.10616   0.79060   0.00000  Uiso   1.00
C817   C     0.63772   0.10616   0.87606   0.00000  Uiso   1.00
C818   C     0.86228   0.39384   0.79060   0.00000  Uiso   1.00
C819   C     0.59665   0.33911   0.83333   0.00000  Uiso   1.00
C820   C     0.90335   0.16089   0.83333   0.00000  Uiso   1.00
C821   C     0.90335   0.33911   0.83333   0.00000  Uiso   1.00
C822   C     0.59665   0.16089   0.83333   0.00000  Uiso   1.00
C823   C     0.84665   0.08911   0.83333   0.00000  Uiso   1.00
C824   C     0.65335   0.41089   0.83333   0.00000  Uiso   1.00
C825   C     0.65335   0.08911   0.83333   0.00000  Uiso   1.00
C826   C     0.56144   0.30726   0.83333   0.00000  Uiso   1.00
C827   C     0.84665   0.41089   0.83333   0.00000  Uiso   1.00
C828   C     0.81144   0.44274   0.83333   0.00000  Uiso   1.00
C829   C     0.68856   0.05726   0.83333   0.00000  Uiso   1.00
C830   C     0.68856   0.44274   0.83333   0.00000  Uiso   1.00
C831   C     0.81144   0.05726   0.83333   0.00000  Uiso   1.00
C832   C     0.50000   0.21079   0.69143   0.00000  Uiso   1.00
Cl833  Cl    0.50000   0.15925   0.72088   0.00000  Uiso   1.00
Cl834  Cl    0.60502   0.32860   0.93045   0.00000  Uiso   1.00
Cl835  Cl    0.60503   0.32859   0.73622   0.00000  Uiso   1.00
Cl836  Cl    0.89498   0.17141   0.93045   0.00000  Uiso   1.00
Cl837  Cl    0.60502   0.17140   0.93045   0.00000  Uiso   1.00
Cl838  Cl    0.89498   0.32860   0.73622   0.00000  Uiso   1.00
Cl839  Cl    0.89498   0.32860   0.93045   0.00000  Uiso   1.00
Cl840  Cl    0.60502   0.17140   0.73622   0.00000  Uiso   1.00
Cl841  Cl    0.64498   0.42140   0.73622   0.00000  Uiso   1.00
Cl842  Cl    0.85502   0.07860   0.93045   0.00000  Uiso   1.00
Cl843  Cl    0.85503   0.07859   0.73622   0.00000  Uiso   1.00
Cl844  Cl    0.50000   0.34075   0.94579   0.00000  Uiso   1.00
Cl845  Cl    0.64498   0.42141   0.93045   0.00000  Uiso   1.00
Cl846  Cl    0.85502   0.42140   0.93045   0.00000  Uiso   1.00
Cl847  Cl    0.64498   0.07860   0.73622   0.00000  Uiso   1.00
Cl848  Cl    0.64498   0.07860   0.93045   0.00000  Uiso   1.00
Cl849  Cl    0.85502   0.42140   0.73622   0.00000  Uiso   1.00
Cl850  Cl    0.50000   0.34075   0.72088   0.00000  Uiso   1.00
Cl851  Cl    0.50000   0.15925   0.94579   0.00000  Uiso   1.00
Cl852  Cl    0.75000   0.40925   0.72088   0.00000  Uiso   1.00
Cl853  Cl    0.75000   0.09075   0.94579   0.00000  Uiso   1.00
Cl854  Cl    0.75000   0.09075   0.72088   0.00000  Uiso   1.00
Cl855  Cl    0.75000   0.40925   0.94579   0.00000  Uiso   1.00
Cl856  Cl    0.89498   0.17140   0.73622   0.00000  Uiso   1.00
Cu857  Cu    0.50000   0.25000   0.88022   0.00000  Uiso   1.00
Cu858  Cu    0.50000   0.25000   0.78645   0.00000  Uiso   1.00
Cu859  Cu    0.75000   0.00000   0.88022   0.00000  Uiso   1.00
Cu860  Cu    0.75000   0.00000   0.78645   0.00000  Uiso   1.00
N861   N     0.50000   0.25000   0.95069   0.00000  Uiso   1.00
N862   N     0.50000   0.25000   0.71598   0.00000  Uiso   1.00
N863   N     0.75000   0.00000   0.95069   0.00000  Uiso   1.00
N864   N     0.75000   0.00000   0.71598   0.00000  Uiso   1.00
O865   O     0.54509   0.20491   0.87291   0.00000  Uiso   1.00
O866   O     0.70492   0.04509   0.79375   0.00000  Uiso   1.00
O867   O     0.70492   0.04509   0.87291   0.00000  Uiso   1.00
O868   O     0.79509   0.45491   0.79375   0.00000  Uiso   1.00
O869   O     0.70492   0.45491   0.79375   0.00000  Uiso   1.00
O870   O     0.79509   0.04509   0.87291   0.00000  Uiso   1.00
O871   O     0.79509   0.04509   0.79375   0.00000  Uiso   1.00
O872   O     0.70492   0.45491   0.87291   0.00000  Uiso   1.00
O873   O     0.95492   0.29509   0.79375   0.00000  Uiso   1.00
O874   O     0.95492   0.29509   0.87291   0.00000  Uiso   1.00
O875   O     0.54509   0.20491   0.79375   0.00000  Uiso   1.00
O876   O     0.95492   0.20491   0.79375   0.00000  Uiso   1.00
O877   O     0.54509   0.29509   0.87291   0.00000  Uiso   1.00
O878   O     0.54509   0.29509   0.79375   0.00000  Uiso   1.00
O879   O     0.95492   0.20491   0.87291   0.00000  Uiso   1.00
O880   O     0.79509   0.45491   0.87291   0.00000  Uiso   1.00
C881   C     0.06144   0.69274   0.83333   0.00000  Uiso   1.00
C882   C     0.00000   0.78921   0.97524   0.00000  Uiso   1.00
C883   C     0.00000   0.78921   0.69143   0.00000  Uiso   1.00
C884   C    -0.00000   0.71079   0.97524   0.00000  Uiso   1.00
C885   C     0.25000   0.96079   0.69143   0.00000  Uiso   1.00
C886   C     0.25000   0.53921   0.97524   0.00000  Uiso   1.00
C887   C     0.25000   0.53921   0.69143   0.00000  Uiso   1.00
C888   C     0.25000   0.96079   0.97524   0.00000  Uiso   1.00
C889   C     0.38772   0.64384   0.79060   0.00000  Uiso   1.00
C890   C     0.11228   0.85616   0.87606   0.00000  Uiso   1.00
C891   C     0.11228   0.85616   0.79060   0.00000  Uiso   1.00
C892   C     0.43856   0.80726   0.83333   0.00000  Uiso   1.00
C893   C     0.38772   0.64384   0.87606   0.00000  Uiso   1.00
C894   C     0.11228   0.64384   0.87606   0.00000  Uiso   1.00
C895   C     0.38772   0.85616   0.79060   0.00000  Uiso   1.00
C896   C     0.38772   0.85616   0.87606   0.00000  Uiso   1.00
C897   C     0.11228   0.64384   0.79060   0.00000  Uiso   1.00
C898   C     0.13772   0.89384   0.79060   0.00000  Uiso   1.00
C899   C     0.36228   0.60616   0.87606   0.00000  Uiso   1.00
C900   C     0.36228   0.60616   0.79060   0.00000  Uiso   1.00
C901   C     0.13772   0.89384   0.87606   0.00000  Uiso   1.00
C902   C     0.36228   0.89384   0.87606   0.00000  Uiso   1.00
C903   C     0.43856   0.69274   0.83333   0.00000  Uiso   1.00
C904   C     0.13772   0.60616   0.79060   0.00000  Uiso   1.00
C905   C     0.13772   0.60616   0.87606   0.00000  Uiso   1.00
C906   C     0.36228   0.89384   0.79060   0.00000  Uiso   1.00
C907   C     0.09665   0.83911   0.83333   0.00000  Uiso   1.00
C908   C     0.40335   0.66089   0.83333   0.00000  Uiso   1.00
C909   C     0.40335   0.83911   0.83333   0.00000  Uiso   1.00
C910   C     0.09665   0.66089   0.83333   0.00000  Uiso   1.00
C911   C     0.34665   0.58911   0.83333   0.00000  Uiso   1.00
C912   C     0.15335   0.91089   0.83333   0.00000  Uiso   1.00
C913   C     0.15335   0.58911   0.83333   0.00000  Uiso   1.00
C914   C     0.06144   0.80726   0.83333   0.00000  Uiso   1.00
C915   C     0.34665   0.91089   0.83333   0.00000  Uiso   1.00
C916   C     0.31144   0.94274   0.83333   0.00000  Uiso   1.00
C917   C     0.18856   0.55726   0.83333   0.00000  Uiso   1.00
C918   C     0.18856   0.94274   0.83333   0.00000  Uiso   1.00
C919   C     0.31144   0.55726   0.83333   0.00000  Uiso   1.00
C920   C     0.00000   0.71079   0.69143   0.00000  Uiso   1.00
Cl921  Cl    0.00000   0.65925   0.72088   0.00000  Uiso   1.00
Cl922  Cl    0.10502   0.82860   0.93045   0.00000  Uiso   1.00
Cl923  Cl    0.10503   0.82859   0.73622   0.00000  Uiso   1.00
Cl924  Cl    0.39498   0.67141   0.93045   0.00000  Uiso   1.00
Cl925  Cl    0.10502   0.67140   0.93045   0.00000  Uiso   1.00
Cl926  Cl    0.39498   0.82860   0.73622   0.00000  Uiso   1.00
Cl927  Cl    0.39498   0.82860   0.93045   0.00000  Uiso   1.00
Cl928  Cl    0.10502   0.67140   0.73622   0.00000  Uiso   1.00
Cl929  Cl    0.14498   0.92140   0.73622   0.00000  Uiso   1.00
Cl930  Cl    0.35502   0.57860   0.93045   0.00000  Uiso   1.00
Cl931  Cl    0.35503   0.57859   0.73622   0.00000  Uiso   1.00
Cl932  Cl   -0.00000   0.84075   0.94579   0.00000  Uiso   1.00
Cl933  Cl    0.14498   0.92141   0.93045   0.00000  Uiso   1.00
Cl934  Cl    0.35502   0.92140   0.93045   0.00000  Uiso   1.00
Cl935  Cl    0.14498   0.57860   0.73622   0.00000  Uiso   1.00
Cl936  Cl    0.14498   0.57860   0.93045   0.00000  Uiso   1.00
Cl937  Cl    0.35502   0.92140   0.73622   0.00000  Uiso   1.00
Cl938  Cl    0.00000   0.84075   0.72088   0.00000  Uiso   1.00
Cl939  Cl   -0.00000   0.65925   0.94579   0.00000  Uiso   1.00
Cl940  Cl    0.25000   0.90925   0.72088   0.00000  Uiso   1.00
Cl941  Cl    0.25000   0.59075   0.94579   0.00000  Uiso   1.00
Cl942  Cl    0.25000   0.59075   0.72088   0.00000  Uiso   1.00
Cl943  Cl    0.25000   0.90925   0.94579   0.00000  Uiso   1.00
Cl944  Cl    0.39498   0.67140   0.73622   0.00000  Uiso   1.00
Cu945  Cu    0.00000   0.75000   0.88022   0.00000  Uiso   1.00
Cu946  Cu    0.00000   0.75000   0.78645   0.00000  Uiso   1.00
Cu947  Cu    0.25000   0.50000   0.88022   0.00000  Uiso   1.00
Cu948  Cu    0.25000   0.50000   0.78645   0.00000  Uiso   1.00
N949   N     0.00000   0.75000   0.95069   0.00000  Uiso   1.00
N950   N     0.00000   0.75000   0.71598   0.00000  Uiso   1.00
N951   N     0.25000   0.50000   0.95069   0.00000  Uiso   1.00
N952   N     0.25000   0.50000   0.71598   0.00000  Uiso   1.00
O953   O     0.04509   0.70491   0.87291   0.00000  Uiso   1.00
O954   O     0.20492   0.54509   0.79375   0.00000  Uiso   1.00
O955   O     0.20492   0.54509   0.87291   0.00000  Uiso   1.00
O956   O     0.29509   0.95491   0.79375   0.00000  Uiso   1.00
O957   O     0.20492   0.95491   0.79375   0.00000  Uiso   1.00
O958   O     0.29509   0.54509   0.87291   0.00000  Uiso   1.00
O959   O     0.29509   0.54509   0.79375   0.00000  Uiso   1.00
O960   O     0.20492   0.95491   0.87291   0.00000  Uiso   1.00
O961   O     0.45492   0.79509   0.79375   0.00000  Uiso   1.00
O962   O     0.45492   0.79509   0.87291   0.00000  Uiso   1.00
O963   O     0.04509   0.70491   0.79375   0.00000  Uiso   1.00
O964   O     0.45492   0.70491   0.79375   0.00000  Uiso   1.00
O965   O     0.04509   0.79509   0.87291   0.00000  Uiso   1.00
O966   O     0.04509   0.79509   0.79375   0.00000  Uiso   1.00
O967   O     0.45492   0.70491   0.87291   0.00000  Uiso   1.00
O968   O     0.29509   0.95491   0.87291   0.00000  Uiso   1.00
C969   C     0.56144   0.69274   0.83333   0.00000  Uiso   1.00
C970   C     0.50000   0.78921   0.97524   0.00000  Uiso   1.00
C971   C     0.50000   0.78921   0.69143   0.00000  Uiso   1.00
C972   C     0.50000   0.71079   0.97524   0.00000  Uiso   1.00
C973   C     0.75000   0.96079   0.69143   0.00000  Uiso   1.00
C974   C     0.75000   0.53921   0.97524   0.00000  Uiso   1.00
C975   C     0.75000   0.53921   0.69143   0.00000  Uiso   1.00
C976   C     0.75000   0.96079   0.97524   0.00000  Uiso   1.00
C977   C     0.88772   0.64384   0.79060   0.00000  Uiso   1.00
C978   C     0.61228   0.85616   0.87606   0.00000  Uiso   1.00
C979   C     0.61228   0.85616   0.79060   0.00000  Uiso   1.00
C980   C     0.93856   0.80726   0.83333   0.00000  Uiso   1.00
C981   C     0.88772   0.64384   0.87606   0.00000  Uiso   1.00
C982   C     0.61228   0.64384   0.87606   0.00000  Uiso   1.00
C983   C     0.88772   0.85616   0.79060   0.00000  Uiso   1.00
C984   C     0.88772   0.85616   0.87606   0.00000  Uiso   1.00
C985   C     0.61228   0.64384   0.79060   0.00000  Uiso   1.00
C986   C     0.63772   0.89384   0.79060   0.00000  Uiso   1.00
C987   C     0.86228   0.60616   0.87606   0.00000  Uiso   1.00
C988   C     0.86228   0.60616   0.79060   0.00000  Uiso   1.00
C989   C     0.63772   0.89384   0.87606   0.00000  Uiso   1.00
C990   C     0.86228   0.89384   0.87606   0.00000  Uiso   1.00
C991   C     0.93856   0.69274   0.83333   0.00000  Uiso   1.00
C992   C     0.63772   0.60616   0.79060   0.00000  Uiso   1.00
C993   C     0.63772   0.60616   0.87606   0.00000  Uiso   1.00
C994   C     0.86228   0.89384   0.79060   0.00000  Uiso   1.00
C995   C     0.59665   0.83911   0.83333   0.00000  Uiso   1.00
C996   C     0.90335   0.66089   0.83333   0.00000  Uiso   1.00
C997   C     0.90335   0.83911   0.83333   0.00000  Uiso   1.00
C998   C     0.59665   0.66089   0.83333   0.00000  Uiso   1.00
C999   C     0.84665   0.58911   0.83333   0.00000  Uiso   1.00
C1000  C     0.65335   0.91089   0.83333   0.00000  Uiso   1.00
C1001  C     0.65335   0.58911   0.83333   0.00000  Uiso   1.00
C1002  C     0.56144   0.80726   0.83333   0.00000  Uiso   1.00
C1003  C     0.84665   0.91089   0.83333   0.00000  Uiso   1.00
C1004  C     0.81144   0.94274   0.83333   0.00000  Uiso   1.00
C1005  C     0.68856   0.55726   0.83333   0.00000  Uiso   1.00
C1006  C     0.68856   0.94274   0.83333   0.00000  Uiso   1.00
C1007  C     0.81144   0.55726   0.83333   0.00000  Uiso   1.00
C1008  C     0.50000   0.71079   0.69143   0.00000  Uiso   1.00
Cl1009 Cl    0.50000   0.65925   0.72088   0.00000  Uiso   1.00
Cl1010 Cl    0.60502   0.82860   0.93045   0.00000  Uiso   1.00
Cl1011 Cl    0.60503   0.82859   0.73622   0.00000  Uiso   1.00
Cl1012 Cl    0.89498   0.67141   0.93045   0.00000  Uiso   1.00
Cl1013 Cl    0.60502   0.67140   0.93045   0.00000  Uiso   1.00
Cl1014 Cl    0.89498   0.82860   0.73622   0.00000  Uiso   1.00
Cl1015 Cl    0.89498   0.82860   0.93045   0.00000  Uiso   1.00
Cl1016 Cl    0.60502   0.67140   0.73622   0.00000  Uiso   1.00
Cl1017 Cl    0.64498   0.92140   0.73622   0.00000  Uiso   1.00
Cl1018 Cl    0.85502   0.57860   0.93045   0.00000  Uiso   1.00
Cl1019 Cl    0.85503   0.57859   0.73622   0.00000  Uiso   1.00
Cl1020 Cl    0.50000   0.84075   0.94579   0.00000  Uiso   1.00
Cl1021 Cl    0.64498   0.92141   0.93045   0.00000  Uiso   1.00
Cl1022 Cl    0.85502   0.92140   0.93045   0.00000  Uiso   1.00
Cl1023 Cl    0.64498   0.57860   0.73622   0.00000  Uiso   1.00
Cl1024 Cl    0.64498   0.57860   0.93045   0.00000  Uiso   1.00
Cl1025 Cl    0.85502   0.92140   0.73622   0.00000  Uiso   1.00
Cl1026 Cl    0.50000   0.84075   0.72088   0.00000  Uiso   1.00
Cl1027 Cl    0.50000   0.65925   0.94579   0.00000  Uiso   1.00
Cl1028 Cl    0.75000   0.90925   0.72088   0.00000  Uiso   1.00
Cl1029 Cl    0.75000   0.59075   0.94579   0.00000  Uiso   1.00
Cl1030 Cl    0.75000   0.59075   0.72088   0.00000  Uiso   1.00
Cl1031 Cl    0.75000   0.90925   0.94579   0.00000  Uiso   1.00
Cl1032 Cl    0.89498   0.67140   0.73622   0.00000  Uiso   1.00
Cu1033 Cu    0.50000   0.75000   0.88022   0.00000  Uiso   1.00
Cu1034 Cu    0.50000   0.75000   0.78645   0.00000  Uiso   1.00
Cu1035 Cu    0.75000   0.50000   0.88022   0.00000  Uiso   1.00
Cu1036 Cu    0.75000   0.50000   0.78645   0.00000  Uiso   1.00
N1037  N     0.50000   0.75000   0.95069   0.00000  Uiso   1.00
N1038  N     0.50000   0.75000   0.71598   0.00000  Uiso   1.00
N1039  N     0.75000   0.50000   0.95069   0.00000  Uiso   1.00
N1040  N     0.75000   0.50000   0.71598   0.00000  Uiso   1.00
O1041  O     0.54509   0.70491   0.87291   0.00000  Uiso   1.00
O1042  O     0.70492   0.54509   0.79375   0.00000  Uiso   1.00
O1043  O     0.70492   0.54509   0.87291   0.00000  Uiso   1.00
O1044  O     0.79509   0.95491   0.79375   0.00000  Uiso   1.00
O1045  O     0.70492   0.95491   0.79375   0.00000  Uiso   1.00
O1046  O     0.79509   0.54509   0.87291   0.00000  Uiso   1.00
O1047  O     0.79509   0.54509   0.79375   0.00000  Uiso   1.00
O1048  O     0.70492   0.95491   0.87291   0.00000  Uiso   1.00
O1049  O     0.95492   0.79509   0.79375   0.00000  Uiso   1.00
O1050  O     0.95492   0.79509   0.87291   0.00000  Uiso   1.00
O1051  O     0.54509   0.70491   0.79375   0.00000  Uiso   1.00
O1052  O     0.95492   0.70491   0.79375   0.00000  Uiso   1.00
O1053  O     0.54509   0.79509   0.87291   0.00000  Uiso   1.00
O1054  O     0.54509   0.79509   0.79375   0.00000  Uiso   1.00
O1055  O     0.95492   0.70491   0.87291   0.00000  Uiso   1.00
O1056  O     0.79509   0.95491   0.87291   0.00000  Uiso   1.00
loop_
_geom_bond_atom_site_label_1
_geom_bond_atom_site_label_2
_geom_bond_distance
_geom_bond_site_symmetry_2
_ccdc_geom_bond_type
C1     O83     1.298   .     A
C1     O73     1.298   .     A
C1     C30     1.472   .     S
C2     C355    1.416   .     S
C2     Cl52    1.763   .     S
C2     N69     1.372   .     S
C3     Cl58    1.763   .     S
C3     C706    1.416   1_554 S
C3     N70     1.372   .     S
C4     N69     1.372   .     A
C4     Cl59    1.763   .     S
C4     C392    1.416   .     S
C5     Cl60    1.763   .     S
C5     C712    1.416   1_554 S
C5     N248    1.372   .     S
C6     Cl61    1.763   .     S
C6     C359    1.416   .     S
C6     N71     1.372   .     S
C7     N72     1.372   .     A
C7     Cl62    1.763   .     S
C7     C710    1.416   1_554 S
C8     N247    1.372   .     A
C8     Cl63    1.763   .     S
C8     C357    1.416   .     S
C9     Cl64    1.777   .     S
C9     C20     1.391   .     A
C9     C28     1.415   .     A
C10    C27     1.415   .     A
C10    Cl42    1.777   .     S
C10    C21     1.391   .     A
C11    C18     1.391   .     A
C11    Cl43    1.777   .     S
C11    C27     1.415   .     A
C12    C29     1.472   .     S
C12    O82     1.298   .     A
C12    O81     1.298   .     A
C13    C28     1.415   .     A
C13    C19     1.391   .     A
C13    Cl44    1.777   .     S
C14    C30     1.415   .     A
C14    Cl45    1.777   .     S
C14    C25     1.391   .     A
C15    C29     1.415   .     A
C15    C26     1.391   .     A
C15    Cl46    1.777   .     S
C16    Cl47    1.777   .     S
C16    C29     1.415   .     A
C16    C22     1.391   .     A
C17    Cl48    1.777   .     S
C17    C30     1.415   .     A
C17    C24     1.391   .     A
C18    C32     1.415   .     A
C18    Cl49    1.777   .     S
C19    C31     1.415   .     A
C19    Cl50    1.777   .     S
C20    Cl51    1.777   .     S
C20    C31     1.415   .     A
C21    C32     1.415   .     A
C21    Cl53    1.777   .     S
C22    Cl54    1.777   .     S
C22    C35     1.415   .     A
C23    O87     1.298   .     A
C23    O84     1.298   .     A
C23    C28     1.472   .     S
C24    Cl55    1.777   .     S
C24    C33     1.415   .     A
C25    Cl56    1.777   .     S
C25    C33     1.415   .     A
C26    Cl57    1.777   .     S
C26    C35     1.415   .     A
C27    C34     1.472   .     S
C31    C39     1.472   .     S
C32    C38     1.472   .     S
C33    C37     1.472   .     S
C34    O86     1.298   .     A
C34    O85     1.298   .     A
C35    C36     1.472   .     S
C36    O88     1.298   .     A
C36    O76     1.298   .     A
C37    O74     1.298   .     A
C37    O75     1.298   .     A
C38    O77     1.298   .     A
C38    O80     1.298   .     A
C39    O78     1.298   .     A
C39    O79     1.298   .     A
C40    N70     1.372   .     A
C40    C708    1.416   1_554 S
C40    Cl41    1.763   .     S
Cu65   O175    1.983   1_455 S
Cu65   O170    1.983   1_455 S
Cu65   N69     2.015   .     S
Cu65   Cu66    2.681   .     S
Cu65   O73     1.983   .     S
Cu65   O85     1.983   .     S
Cu66   O169    1.983   1_455 S
Cu66   N70     2.015   .     S
Cu66   O172    1.983   1_455 S
Cu66   O83     1.983   .     S
Cu66   O86     1.983   .     S
Cu67   O78     1.983   .     S
Cu67   O75     1.983   .     S
Cu67   Cu68    2.681   .     S
Cu67   N71     2.015   .     S
Cu67   O256    1.983   1_545 S
Cu67   O264    1.983   1_545 S
Cu68   O253    1.983   1_545 S
Cu68   O252    1.983   1_545 S
Cu68   N72     2.015   .     S
Cu68   O74     1.983   .     S
Cu68   O79     1.983   .     S
N71    C184    1.372   1_545 A
N72    C181    1.372   1_545 S
O76    Cu244   1.983   .     S
O77    Cu244   1.983   .     S
O80    Cu243   1.983   .     S
O81    Cu154   1.983   .     S
O82    Cu153   1.983   .     S
O84    Cu154   1.983   .     S
O87    Cu153   1.983   .     S
O88    Cu243   1.983   .     S
C89    O171    1.298   .     A
C89    O161    1.298   .     A
C89    C118    1.472   .     S
C90    C443    1.416   .     S
C90    Cl140   1.763   .     S
C90    N157    1.372   .     S
C91    Cl146   1.763   .     S
C91    C794    1.416   1_554 S
C91    N158    1.372   .     S
C92    N157    1.372   .     A
C92    Cl147   1.763   .     S
C92    C480    1.416   .     S
C93    Cl148   1.763   .     S
C93    C800    1.416   1_554 S
C93    N336    1.372   .     S
C94    Cl149   1.763   .     S
C94    C447    1.416   .     S
C94    N159    1.372   .     S
C95    N160    1.372   .     A
C95    Cl150   1.763   .     S
C95    C798    1.416   1_554 S
C96    N335    1.372   .     A
C96    Cl151   1.763   .     S
C96    C445    1.416   .     S
C97    Cl152   1.777   .     S
C97    C108    1.391   .     A
C97    C116    1.415   .     A
C98    C115    1.415   .     A
C98    Cl130   1.777   .     S
C98    C109    1.391   .     A
C99    C106    1.391   .     A
C99    Cl131   1.777   .     S
C99    C115    1.415   .     A
C100   C117    1.472   .     S
C100   O170    1.298   .     A
C100   O169    1.298   .     A
C101   C116    1.415   .     A
C101   C107    1.391   .     A
C101   Cl132   1.777   .     S
C102   C118    1.415   .     A
C102   Cl133   1.777   .     S
C102   C113    1.391   .     A
C103   C117    1.415   .     A
C103   C114    1.391   .     A
C103   Cl134   1.777   .     S
C104   Cl135   1.777   .     S
C104   C117    1.415   .     A
C104   C110    1.391   .     A
C105   Cl136   1.777   .     S
C105   C118    1.415   .     A
C105   C112    1.391   .     A
C106   C120    1.415   .     A
C106   Cl137   1.777   .     S
C107   C119    1.415   .     A
C107   Cl138   1.777   .     S
C108   Cl139   1.777   .     S
C108   C119    1.415   .     A
C109   C120    1.415   .     A
C109   Cl141   1.777   .     S
C110   Cl142   1.777   .     S
C110   C123    1.415   .     A
C111   O175    1.298   .     A
C111   O172    1.298   .     A
C111   C116    1.472   .     S
C112   Cl143   1.777   .     S
C112   C121    1.415   .     A
C113   Cl144   1.777   .     S
C113   C121    1.415   .     A
C114   Cl145   1.777   .     S
C114   C123    1.415   .     A
C115   C122    1.472   .     S
C119   C127    1.472   .     S
C120   C126    1.472   .     S
C121   C125    1.472   .     S
C122   O174    1.298   .     A
C122   O173    1.298   .     A
C123   C124    1.472   .     S
C124   O176    1.298   .     A
C124   O164    1.298   .     A
C125   O162    1.298   .     A
C125   O163    1.298   .     A
C126   O165    1.298   .     A
C126   O168    1.298   .     A
C127   O166    1.298   .     A
C127   O167    1.298   .     A
C128   N158    1.372   .     A
C128   C796    1.416   1_554 S
C128   Cl129   1.763   .     S
Cu153  N157    2.015   .     S
Cu153  Cu154   2.681   .     S
Cu153  O161    1.983   .     S
Cu153  O173    1.983   .     S
Cu154  N158    2.015   .     S
Cu154  O171    1.983   .     S
Cu154  O174    1.983   .     S
Cu155  O166    1.983   .     S
Cu155  O163    1.983   .     S
Cu155  Cu156   2.681   .     S
Cu155  N159    2.015   .     S
Cu155  O344    1.983   1_545 S
Cu155  O352    1.983   1_545 S
Cu156  O341    1.983   1_545 S
Cu156  O340    1.983   1_545 S
Cu156  N160    2.015   .     S
Cu156  O162    1.983   .     S
Cu156  O167    1.983   .     S
N159   C272    1.372   1_545 A
N160   C269    1.372   1_545 S
O164   Cu332   1.983   .     S
O165   Cu332   1.983   .     S
O168   Cu331   1.983   .     S
O169   Cu66    1.983   1_655 S
O170   Cu65    1.983   1_655 S
O172   Cu66    1.983   1_655 S
O175   Cu65    1.983   1_655 S
O176   Cu331   1.983   .     S
C177   O259    1.298   .     A
C177   O249    1.298   .     A
C177   C206    1.472   .     S
C178   C531    1.416   .     S
C178   Cl228   1.763   .     S
C178   N245    1.372   .     S
C179   Cl234   1.763   .     S
C179   C882    1.416   1_554 S
C179   N246    1.372   .     S
C180   N245    1.372   .     A
C180   Cl235   1.763   .     S
C180   C568    1.416   .     S
C181   Cl236   1.763   .     S
C181   C888    1.416   1_554 S
C181   N72     1.372   1_565 S
C182   Cl237   1.763   .     S
C182   C535    1.416   .     S
C182   N247    1.372   .     S
C183   N248    1.372   .     A
C183   Cl238   1.763   .     S
C183   C886    1.416   1_554 S
C184   N71     1.372   1_565 A
C184   Cl239   1.763   .     S
C184   C533    1.416   .     S
C185   Cl240   1.777   .     S
C185   C196    1.391   .     A
C185   C204    1.415   .     A
C186   C203    1.415   .     A
C186   Cl218   1.777   .     S
C186   C197    1.391   .     A
C187   C194    1.391   .     A
C187   Cl219   1.777   .     S
C187   C203    1.415   .     A
C188   C205    1.472   .     S
C188   O258    1.298   .     A
C188   O257    1.298   .     A
C189   C204    1.415   .     A
C189   C195    1.391   .     A
C189   Cl220   1.777   .     S
C190   C206    1.415   .     A
C190   Cl221   1.777   .     S
C190   C201    1.391   .     A
C191   C205    1.415   .     A
C191   C202    1.391   .     A
C191   Cl222   1.777   .     S
C192   Cl223   1.777   .     S
C192   C205    1.415   .     A
C192   C198    1.391   .     A
C193   Cl224   1.777   .     S
C193   C206    1.415   .     A
C193   C200    1.391   .     A
C194   C208    1.415   .     A
C194   Cl225   1.777   .     S
C195   C207    1.415   .     A
C195   Cl226   1.777   .     S
C196   Cl227   1.777   .     S
C196   C207    1.415   .     A
C197   C208    1.415   .     A
C197   Cl229   1.777   .     S
C198   Cl230   1.777   .     S
C198   C211    1.415   .     A
C199   O263    1.298   .     A
C199   O260    1.298   .     A
C199   C204    1.472   .     S
C200   Cl231   1.777   .     S
C200   C209    1.415   .     A
C201   Cl232   1.777   .     S
C201   C209    1.415   .     A
C202   Cl233   1.777   .     S
C202   C211    1.415   .     A
C203   C210    1.472   .     S
C207   C215    1.472   .     S
C208   C214    1.472   .     S
C209   C213    1.472   .     S
C210   O262    1.298   .     A
C210   O261    1.298   .     A
C211   C212    1.472   .     S
C212   O264    1.298   .     A
C212   O252    1.298   .     A
C213   O250    1.298   .     A
C213   O251    1.298   .     A
C214   O253    1.298   .     A
C214   O256    1.298   .     A
C215   O254    1.298   .     A
C215   O255    1.298   .     A
C216   N246    1.372   .     A
C216   C884    1.416   1_554 S
C216   Cl217   1.763   .     S
Cu241  O351    1.983   1_455 S
Cu241  O346    1.983   1_455 S
Cu241  N245    2.015   .     S
Cu241  Cu242   2.681   .     S
Cu241  O249    1.983   .     S
Cu241  O261    1.983   .     S
Cu242  O345    1.983   1_455 S
Cu242  N246    2.015   .     S
Cu242  O348    1.983   1_455 S
Cu242  O259    1.983   .     S
Cu242  O262    1.983   .     S
Cu243  O254    1.983   .     S
Cu243  O251    1.983   .     S
Cu243  Cu244   2.681   .     S
Cu243  N247    2.015   .     S
Cu244  N248    2.015   .     S
Cu244  O250    1.983   .     S
Cu244  O255    1.983   .     S
O252   Cu68    1.983   1_565 S
O253   Cu68    1.983   1_565 S
O256   Cu67    1.983   1_565 S
O257   Cu330   1.983   .     S
O258   Cu329   1.983   .     S
O260   Cu330   1.983   .     S
O263   Cu329   1.983   .     S
O264   Cu67    1.983   1_565 S
C265   O347    1.298   .     A
C265   O337    1.298   .     A
C265   C294    1.472   .     S
C266   C619    1.416   .     S
C266   Cl316   1.763   .     S
C266   N333    1.372   .     S
C267   Cl322   1.763   .     S
C267   C970    1.416   1_554 S
C267   N334    1.372   .     S
C268   N333    1.372   .     A
C268   Cl323   1.763   .     S
C268   C656    1.416   .     S
C269   Cl324   1.763   .     S
C269   C976    1.416   1_554 S
C269   N160    1.372   1_565 S
C270   Cl325   1.763   .     S
C270   C623    1.416   .     S
C270   N335    1.372   .     S
C271   N336    1.372   .     A
C271   Cl326   1.763   .     S
C271   C974    1.416   1_554 S
C272   N159    1.372   1_565 A
C272   Cl327   1.763   .     S
C272   C621    1.416   .     S
C273   Cl328   1.777   .     S
C273   C284    1.391   .     A
C273   C292    1.415   .     A
C274   C291    1.415   .     A
C274   Cl306   1.777   .     S
C274   C285    1.391   .     A
C275   C282    1.391   .     A
C275   Cl307   1.777   .     S
C275   C291    1.415   .     A
C276   C293    1.472   .     S
C276   O346    1.298   .     A
C276   O345    1.298   .     A
C277   C292    1.415   .     A
C277   C283    1.391   .     A
C277   Cl308   1.777   .     S
C278   C294    1.415   .     A
C278   Cl309   1.777   .     S
C278   C289    1.391   .     A
C279   C293    1.415   .     A
C279   C290    1.391   .     A
C279   Cl310   1.777   .     S
C280   Cl311   1.777   .     S
C280   C293    1.415   .     A
C280   C286    1.391   .     A
C281   Cl312   1.777   .     S
C281   C294    1.415   .     A
C281   C288    1.391   .     A
C282   C296    1.415   .     A
C282   Cl313   1.777   .     S
C283   C295    1.415   .     A
C283   Cl314   1.777   .     S
C284   Cl315   1.777   .     S
C284   C295    1.415   .     A
C285   C296    1.415   .     A
C285   Cl317   1.777   .     S
C286   Cl318   1.777   .     S
C286   C299    1.415   .     A
C287   O351    1.298   .     A
C287   O348    1.298   .     A
C287   C292    1.472   .     S
C288   Cl319   1.777   .     S
C288   C297    1.415   .     A
C289   Cl320   1.777   .     S
C289   C297    1.415   .     A
C290   Cl321   1.777   .     S
C290   C299    1.415   .     A
C291   C298    1.472   .     S
C295   C303    1.472   .     S
C296   C302    1.472   .     S
C297   C301    1.472   .     S
C298   O350    1.298   .     A
C298   O349    1.298   .     A
C299   C300    1.472   .     S
C300   O352    1.298   .     A
C300   O340    1.298   .     A
C301   O338    1.298   .     A
C301   O339    1.298   .     A
C302   O341    1.298   .     A
C302   O344    1.298   .     A
C303   O342    1.298   .     A
C303   O343    1.298   .     A
C304   N334    1.372   .     A
C304   C972    1.416   1_554 S
C304   Cl305   1.763   .     S
Cu329  N333    2.015   .     S
Cu329  Cu330   2.681   .     S
Cu329  O337    1.983   .     S
Cu329  O349    1.983   .     S
Cu330  N334    2.015   .     S
Cu330  O347    1.983   .     S
Cu330  O350    1.983   .     S
Cu331  O342    1.983   .     S
Cu331  O339    1.983   .     S
Cu331  Cu332   2.681   .     S
Cu331  N335    2.015   .     S
Cu332  N336    2.015   .     S
Cu332  O338    1.983   .     S
Cu332  O343    1.983   .     S
O340   Cu156   1.983   1_565 S
O341   Cu156   1.983   1_565 S
O344   Cu155   1.983   1_565 S
O345   Cu242   1.983   1_655 S
O346   Cu241   1.983   1_655 S
O348   Cu242   1.983   1_655 S
O351   Cu241   1.983   1_655 S
O352   Cu155   1.983   1_565 S
C353   O435    1.298   .     A
C353   O425    1.298   .     A
C353   C382    1.472   .     S
C354   C707    1.416   .     S
C354   Cl404   1.763   .     S
C354   N421    1.372   .     S
C355   Cl410   1.763   .     S
C355   N422    1.372   .     S
C356   N421    1.372   .     A
C356   Cl411   1.763   .     S
C356   C744    1.416   .     S
C357   Cl412   1.763   .     S
C357   N600    1.372   .     S
C358   Cl413   1.763   .     S
C358   C711    1.416   .     S
C358   N423    1.372   .     S
C359   N424    1.372   .     A
C359   Cl414   1.763   .     S
C360   N599    1.372   .     A
C360   Cl415   1.763   .     S
C360   C709    1.416   .     S
C361   Cl416   1.777   .     S
C361   C372    1.391   .     A
C361   C380    1.415   .     A
C362   C379    1.415   .     A
C362   Cl394   1.777   .     S
C362   C373    1.391   .     A
C363   C370    1.391   .     A
C363   Cl395   1.777   .     S
C363   C379    1.415   .     A
C364   C381    1.472   .     S
C364   O434    1.298   .     A
C364   O433    1.298   .     A
C365   C380    1.415   .     A
C365   C371    1.391   .     A
C365   Cl396   1.777   .     S
C366   C382    1.415   .     A
C366   Cl397   1.777   .     S
C366   C377    1.391   .     A
C367   C381    1.415   .     A
C367   C378    1.391   .     A
C367   Cl398   1.777   .     S
C368   Cl399   1.777   .     S
C368   C381    1.415   .     A
C368   C374    1.391   .     A
C369   Cl400   1.777   .     S
C369   C382    1.415   .     A
C369   C376    1.391   .     A
C370   C384    1.415   .     A
C370   Cl401   1.777   .     S
C371   C383    1.415   .     A
C371   Cl402   1.777   .     S
C372   Cl403   1.777   .     S
C372   C383    1.415   .     A
C373   C384    1.415   .     A
C373   Cl405   1.777   .     S
C374   Cl406   1.777   .     S
C374   C387    1.415   .     A
C375   O439    1.298   .     A
C375   O436    1.298   .     A
C375   C380    1.472   .     S
C376   Cl407   1.777   .     S
C376   C385    1.415   .     A
C377   Cl408   1.777   .     S
C377   C385    1.415   .     A
C378   Cl409   1.777   .     S
C378   C387    1.415   .     A
C379   C386    1.472   .     S
C383   C391    1.472   .     S
C384   C390    1.472   .     S
C385   C389    1.472   .     S
C386   O438    1.298   .     A
C386   O437    1.298   .     A
C387   C388    1.472   .     S
C388   O440    1.298   .     A
C388   O428    1.298   .     A
C389   O426    1.298   .     A
C389   O427    1.298   .     A
C390   O429    1.298   .     A
C390   O432    1.298   .     A
C391   O430    1.298   .     A
C391   O431    1.298   .     A
C392   N422    1.372   .     A
C392   Cl393   1.763   .     S
Cu417  O527    1.983   1_455 S
Cu417  O522    1.983   1_455 S
Cu417  N421    2.015   .     S
Cu417  Cu418   2.681   .     S
Cu417  O425    1.983   .     S
Cu417  O437    1.983   .     S
Cu418  O521    1.983   1_455 S
Cu418  N422    2.015   .     S
Cu418  O524    1.983   1_455 S
Cu418  O435    1.983   .     S
Cu418  O438    1.983   .     S
Cu419  O430    1.983   .     S
Cu419  O427    1.983   .     S
Cu419  Cu420   2.681   .     S
Cu419  N423    2.015   .     S
Cu419  O608    1.983   1_545 S
Cu419  O616    1.983   1_545 S
Cu420  O605    1.983   1_545 S
Cu420  O604    1.983   1_545 S
Cu420  N424    2.015   .     S
Cu420  O426    1.983   .     S
Cu420  O431    1.983   .     S
N423   C536    1.372   1_545 A
N424   C533    1.372   1_545 S
O428   Cu596   1.983   .     S
O429   Cu596   1.983   .     S
O432   Cu595   1.983   .     S
O433   Cu506   1.983   .     S
O434   Cu505   1.983   .     S
O436   Cu506   1.983   .     S
O439   Cu505   1.983   .     S
O440   Cu595   1.983   .     S
C441   O523    1.298   .     A
C441   O513    1.298   .     A
C441   C470    1.472   .     S
C442   C795    1.416   .     S
C442   Cl492   1.763   .     S
C442   N509    1.372   .     S
C443   Cl498   1.763   .     S
C443   N510    1.372   .     S
C444   N509    1.372   .     A
C444   Cl499   1.763   .     S
C444   C832    1.416   .     S
C445   Cl500   1.763   .     S
C445   N688    1.372   .     S
C446   Cl501   1.763   .     S
C446   C799    1.416   .     S
C446   N511    1.372   .     S
C447   N512    1.372   .     A
C447   Cl502   1.763   .     S
C448   N687    1.372   .     A
C448   Cl503   1.763   .     S
C448   C797    1.416   .     S
C449   Cl504   1.777   .     S
C449   C460    1.391   .     A
C449   C468    1.415   .     A
C450   C467    1.415   .     A
C450   Cl482   1.777   .     S
C450   C461    1.391   .     A
C451   C458    1.391   .     A
C451   Cl483   1.777   .     S
C451   C467    1.415   .     A
C452   C469    1.472   .     S
C452   O522    1.298   .     A
C452   O521    1.298   .     A
C453   C468    1.415   .     A
C453   C459    1.391   .     A
C453   Cl484   1.777   .     S
C454   C470    1.415   .     A
C454   Cl485   1.777   .     S
C454   C465    1.391   .     A
C455   C469    1.415   .     A
C455   C466    1.391   .     A
C455   Cl486   1.777   .     S
C456   Cl487   1.777   .     S
C456   C469    1.415   .     A
C456   C462    1.391   .     A
C457   Cl488   1.777   .     S
C457   C470    1.415   .     A
C457   C464    1.391   .     A
C458   C472    1.415   .     A
C458   Cl489   1.777   .     S
C459   C471    1.415   .     A
C459   Cl490   1.777   .     S
C460   Cl491   1.777   .     S
C460   C471    1.415   .     A
C461   C472    1.415   .     A
C461   Cl493   1.777   .     S
C462   Cl494   1.777   .     S
C462   C475    1.415   .     A
C463   O527    1.298   .     A
C463   O524    1.298   .     A
C463   C468    1.472   .     S
C464   Cl495   1.777   .     S
C464   C473    1.415   .     A
C465   Cl496   1.777   .     S
C465   C473    1.415   .     A
C466   Cl497   1.777   .     S
C466   C475    1.415   .     A
C467   C474    1.472   .     S
C471   C479    1.472   .     S
C472   C478    1.472   .     S
C473   C477    1.472   .     S
C474   O526    1.298   .     A
C474   O525    1.298   .     A
C475   C476    1.472   .     S
C476   O528    1.298   .     A
C476   O516    1.298   .     A
C477   O514    1.298   .     A
C477   O515    1.298   .     A
C478   O517    1.298   .     A
C478   O520    1.298   .     A
C479   O518    1.298   .     A
C479   O519    1.298   .     A
C480   N510    1.372   .     A
C480   Cl481   1.763   .     S
Cu505  N509    2.015   .     S
Cu505  Cu506   2.681   .     S
Cu505  O513    1.983   .     S
Cu505  O525    1.983   .     S
Cu506  N510    2.015   .     S
Cu506  O523    1.983   .     S
Cu506  O526    1.983   .     S
Cu507  O518    1.983   .     S
Cu507  O515    1.983   .     S
Cu507  Cu508   2.681   .     S
Cu507  N511    2.015   .     S
Cu507  O696    1.983   1_545 S
Cu507  O704    1.983   1_545 S
Cu508  O693    1.983   1_545 S
Cu508  O692    1.983   1_545 S
Cu508  N512    2.015   .     S
Cu508  O514    1.983   .     S
Cu508  O519    1.983   .     S
N511   C624    1.372   1_545 A
N512   C621    1.372   1_545 S
O516   Cu684   1.983   .     S
O517   Cu684   1.983   .     S
O520   Cu683   1.983   .     S
O521   Cu418   1.983   1_655 S
O522   Cu417   1.983   1_655 S
O524   Cu418   1.983   1_655 S
O527   Cu417   1.983   1_655 S
O528   Cu683   1.983   .     S
C529   O611    1.298   .     A
C529   O601    1.298   .     A
C529   C558    1.472   .     S
C530   C883    1.416   .     S
C530   Cl580   1.763   .     S
C530   N597    1.372   .     S
C531   Cl586   1.763   .     S
C531   N598    1.372   .     S
C532   N597    1.372   .     A
C532   Cl587   1.763   .     S
C532   C920    1.416   .     S
C533   Cl588   1.763   .     S
C533   N424    1.372   1_565 S
C534   Cl589   1.763   .     S
C534   C887    1.416   .     S
C534   N599    1.372   .     S
C535   N600    1.372   .     A
C535   Cl590   1.763   .     S
C536   N423    1.372   1_565 A
C536   Cl591   1.763   .     S
C536   C885    1.416   .     S
C537   Cl592   1.777   .     S
C537   C548    1.391   .     A
C537   C556    1.415   .     A
C538   C555    1.415   .     A
C538   Cl570   1.777   .     S
C538   C549    1.391   .     A
C539   C546    1.391   .     A
C539   Cl571   1.777   .     S
C539   C555    1.415   .     A
C540   C557    1.472   .     S
C540   O610    1.298   .     A
C540   O609    1.298   .     A
C541   C556    1.415   .     A
C541   C547    1.391   .     A
C541   Cl572   1.777   .     S
C542   C558    1.415   .     A
C542   Cl573   1.777   .     S
C542   C553    1.391   .     A
C543   C557    1.415   .     A
C543   C554    1.391   .     A
C543   Cl574   1.777   .     S
C544   Cl575   1.777   .     S
C544   C557    1.415   .     A
C544   C550    1.391   .     A
C545   Cl576   1.777   .     S
C545   C558    1.415   .     A
C545   C552    1.391   .     A
C546   C560    1.415   .     A
C546   Cl577   1.777   .     S
C547   C559    1.415   .     A
C547   Cl578   1.777   .     S
C548   Cl579   1.777   .     S
C548   C559    1.415   .     A
C549   C560    1.415   .     A
C549   Cl581   1.777   .     S
C550   Cl582   1.777   .     S
C550   C563    1.415   .     A
C551   O615    1.298   .     A
C551   O612    1.298   .     A
C551   C556    1.472   .     S
C552   Cl583   1.777   .     S
C552   C561    1.415   .     A
C553   Cl584   1.777   .     S
C553   C561    1.415   .     A
C554   Cl585   1.777   .     S
C554   C563    1.415   .     A
C555   C562    1.472   .     S
C559   C567    1.472   .     S
C560   C566    1.472   .     S
C561   C565    1.472   .     S
C562   O614    1.298   .     A
C562   O613    1.298   .     A
C563   C564    1.472   .     S
C564   O616    1.298   .     A
C564   O604    1.298   .     A
C565   O602    1.298   .     A
C565   O603    1.298   .     A
C566   O605    1.298   .     A
C566   O608    1.298   .     A
C567   O606    1.298   .     A
C567   O607    1.298   .     A
C568   N598    1.372   .     A
C568   Cl569   1.763   .     S
Cu593  O703    1.983   1_455 S
Cu593  O698    1.983   1_455 S
Cu593  N597    2.015   .     S
Cu593  Cu594   2.681   .     S
Cu593  O601    1.983   .     S
Cu593  O613    1.983   .     S
Cu594  O697    1.983   1_455 S
Cu594  N598    2.015   .     S
Cu594  O700    1.983   1_455 S
Cu594  O611    1.983   .     S
Cu594  O614    1.983   .     S
Cu595  O606    1.983   .     S
Cu595  O603    1.983   .     S
Cu595  Cu596   2.681   .     S
Cu595  N599    2.015   .     S
Cu596  N600    2.015   .     S
Cu596  O602    1.983   .     S
Cu596  O607    1.983   .     S
O604   Cu420   1.983   1_565 S
O605   Cu420   1.983   1_565 S
O608   Cu419   1.983   1_565 S
O609   Cu682   1.983   .     S
O610   Cu681   1.983   .     S
O612   Cu682   1.983   .     S
O615   Cu681   1.983   .     S
O616   Cu419   1.983   1_565 S
C617   O699    1.298   .     A
C617   O689    1.298   .     A
C617   C646    1.472   .     S
C618   C971    1.416   .     S
C618   Cl668   1.763   .     S
C618   N685    1.372   .     S
C619   Cl674   1.763   .     S
C619   N686    1.372   .     S
C620   N685    1.372   .     A
C620   Cl675   1.763   .     S
C620   C1008   1.416   .     S
C621   Cl676   1.763   .     S
C621   N512    1.372   1_565 S
C622   Cl677   1.763   .     S
C622   C975    1.416   .     S
C622   N687    1.372   .     S
C623   N688    1.372   .     A
C623   Cl678   1.763   .     S
C624   N511    1.372   1_565 A
C624   Cl679   1.763   .     S
C624   C973    1.416   .     S
C625   Cl680   1.777   .     S
C625   C636    1.391   .     A
C625   C644    1.415   .     A
C626   C643    1.415   .     A
C626   Cl658   1.777   .     S
C626   C637    1.391   .     A
C627   C634    1.391   .     A
C627   Cl659   1.777   .     S
C627   C643    1.415   .     A
C628   C645    1.472   .     S
C628   O698    1.298   .     A
C628   O697    1.298   .     A
C629   C644    1.415   .     A
C629   C635    1.391   .     A
C629   Cl660   1.777   .     S
C630   C646    1.415   .     A
C630   Cl661   1.777   .     S
C630   C641    1.391   .     A
C631   C645    1.415   .     A
C631   C642    1.391   .     A
C631   Cl662   1.777   .     S
C632   Cl663   1.777   .     S
C632   C645    1.415   .     A
C632   C638    1.391   .     A
C633   Cl664   1.777   .     S
C633   C646    1.415   .     A
C633   C640    1.391   .     A
C634   C648    1.415   .     A
C634   Cl665   1.777   .     S
C635   C647    1.415   .     A
C635   Cl666   1.777   .     S
C636   Cl667   1.777   .     S
C636   C647    1.415   .     A
C637   C648    1.415   .     A
C637   Cl669   1.777   .     S
C638   Cl670   1.777   .     S
C638   C651    1.415   .     A
C639   O703    1.298   .     A
C639   O700    1.298   .     A
C639   C644    1.472   .     S
C640   Cl671   1.777   .     S
C640   C649    1.415   .     A
C641   Cl672   1.777   .     S
C641   C649    1.415   .     A
C642   Cl673   1.777   .     S
C642   C651    1.415   .     A
C643   C650    1.472   .     S
C647   C655    1.472   .     S
C648   C654    1.472   .     S
C649   C653    1.472   .     S
C650   O702    1.298   .     A
C650   O701    1.298   .     A
C651   C652    1.472   .     S
C652   O704    1.298   .     A
C652   O692    1.298   .     A
C653   O690    1.298   .     A
C653   O691    1.298   .     A
C654   O693    1.298   .     A
C654   O696    1.298   .     A
C655   O694    1.298   .     A
C655   O695    1.298   .     A
C656   N686    1.372   .     A
C656   Cl657   1.763   .     S
Cu681  N685    2.015   .     S
Cu681  Cu682   2.681   .     S
Cu681  O689    1.983   .     S
Cu681  O701    1.983   .     S
Cu682  N686    2.015   .     S
Cu682  O699    1.983   .     S
Cu682  O702    1.983   .     S
Cu683  O694    1.983   .     S
Cu683  O691    1.983   .     S
Cu683  Cu684   2.681   .     S
Cu683  N687    2.015   .     S
Cu684  N688    2.015   .     S
Cu684  O690    1.983   .     S
Cu684  O695    1.983   .     S
O692   Cu508   1.983   1_565 S
O693   Cu508   1.983   1_565 S
O696   Cu507   1.983   1_565 S
O697   Cu594   1.983   1_655 S
O698   Cu593   1.983   1_655 S
O700   Cu594   1.983   1_655 S
O703   Cu593   1.983   1_655 S
O704   Cu507   1.983   1_565 S
C705   O787    1.298   .     A
C705   O777    1.298   .     A
C705   C734    1.472   .     S
C706   C3      1.416   1_556 S
C706   Cl756   1.763   .     S
C706   N773    1.372   .     S
C707   Cl762   1.763   .     S
C707   N774    1.372   .     S
C708   N773    1.372   .     A
C708   Cl763   1.763   .     S
C708   C40     1.416   1_556 S
C709   Cl764   1.763   .     S
C709   N952    1.372   .     S
C710   Cl765   1.763   .     S
C710   C7      1.416   1_556 S
C710   N775    1.372   .     S
C711   N776    1.372   .     A
C711   Cl766   1.763   .     S
C712   N951    1.372   .     A
C712   Cl767   1.763   .     S
C712   C5      1.416   1_556 S
C713   Cl768   1.777   .     S
C713   C724    1.391   .     A
C713   C732    1.415   .     A
C714   C731    1.415   .     A
C714   Cl746   1.777   .     S
C714   C725    1.391   .     A
C715   C722    1.391   .     A
C715   Cl747   1.777   .     S
C715   C731    1.415   .     A
C716   C733    1.472   .     S
C716   O786    1.298   .     A
C716   O785    1.298   .     A
C717   C732    1.415   .     A
C717   C723    1.391   .     A
C717   Cl748   1.777   .     S
C718   C734    1.415   .     A
C718   Cl749   1.777   .     S
C718   C729    1.391   .     A
C719   C733    1.415   .     A
C719   C730    1.391   .     A
C719   Cl750   1.777   .     S
C720   Cl751   1.777   .     S
C720   C733    1.415   .     A
C720   C726    1.391   .     A
C721   Cl752   1.777   .     S
C721   C734    1.415   .     A
C721   C728    1.391   .     A
C722   C736    1.415   .     A
C722   Cl753   1.777   .     S
C723   C735    1.415   .     A
C723   Cl754   1.777   .     S
C724   Cl755   1.777   .     S
C724   C735    1.415   .     A
C725   C736    1.415   .     A
C725   Cl757   1.777   .     S
C726   Cl758   1.777   .     S
C726   C739    1.415   .     A
C727   O791    1.298   .     A
C727   O788    1.298   .     A
C727   C732    1.472   .     S
C728   Cl759   1.777   .     S
C728   C737    1.415   .     A
C729   Cl760   1.777   .     S
C729   C737    1.415   .     A
C730   Cl761   1.777   .     S
C730   C739    1.415   .     A
C731   C738    1.472   .     S
C735   C743    1.472   .     S
C736   C742    1.472   .     S
C737   C741    1.472   .     S
C738   O790    1.298   .     A
C738   O789    1.298   .     A
C739   C740    1.472   .     S
C740   O792    1.298   .     A
C740   O780    1.298   .     A
C741   O778    1.298   .     A
C741   O779    1.298   .     A
C742   O781    1.298   .     A
C742   O784    1.298   .     A
C743   O782    1.298   .     A
C743   O783    1.298   .     A
C744   N774    1.372   .     A
C744   Cl745   1.763   .     S
Cu769  O879    1.983   1_455 S
Cu769  O874    1.983   1_455 S
Cu769  N773    2.015   .     S
Cu769  Cu770   2.681   .     S
Cu769  O777    1.983   .     S
Cu769  O789    1.983   .     S
Cu770  O873    1.983   1_455 S
Cu770  N774    2.015   .     S
Cu770  O876    1.983   1_455 S
Cu770  O787    1.983   .     S
Cu770  O790    1.983   .     S
Cu771  O782    1.983   .     S
Cu771  O779    1.983   .     S
Cu771  Cu772   2.681   .     S
Cu771  N775    2.015   .     S
Cu771  O960    1.983   1_545 S
Cu771  O968    1.983   1_545 S
Cu772  O957    1.983   1_545 S
Cu772  O956    1.983   1_545 S
Cu772  N776    2.015   .     S
Cu772  O778    1.983   .     S
Cu772  O783    1.983   .     S
N775   C888    1.372   1_545 A
N776   C885    1.372   1_545 S
O780   Cu948   1.983   .     S
O781   Cu948   1.983   .     S
O784   Cu947   1.983   .     S
O785   Cu858   1.983   .     S
O786   Cu857   1.983   .     S
O788   Cu858   1.983   .     S
O791   Cu857   1.983   .     S
O792   Cu947   1.983   .     S
C793   O875    1.298   .     A
C793   O865    1.298   .     A
C793   C822    1.472   .     S
C794   C91     1.416   1_556 S
C794   Cl844   1.763   .     S
C794   N861    1.372   .     S
C795   Cl850   1.763   .     S
C795   N862    1.372   .     S
C796   N861    1.372   .     A
C796   Cl851   1.763   .     S
C796   C128    1.416   1_556 S
C797   Cl852   1.763   .     S
C797   N1040   1.372   .     S
C798   Cl853   1.763   .     S
C798   C95     1.416   1_556 S
C798   N863    1.372   .     S
C799   N864    1.372   .     A
C799   Cl854   1.763   .     S
C800   N1039   1.372   .     A
C800   Cl855   1.763   .     S
C800   C93     1.416   1_556 S
C801   Cl856   1.777   .     S
C801   C812    1.391   .     A
C801   C820    1.415   .     A
C802   C819    1.415   .     A
C802   Cl834   1.777   .     S
C802   C813    1.391   .     A
C803   C810    1.391   .     A
C803   Cl835   1.777   .     S
C803   C819    1.415   .     A
C804   C821    1.472   .     S
C804   O874    1.298   .     A
C804   O873    1.298   .     A
C805   C820    1.415   .     A
C805   C811    1.391   .     A
C805   Cl836   1.777   .     S
C806   C822    1.415   .     A
C806   Cl837   1.777   .     S
C806   C817    1.391   .     A
C807   C821    1.415   .     A
C807   C818    1.391   .     A
C807   Cl838   1.777   .     S
C808   Cl839   1.777   .     S
C808   C821    1.415   .     A
C808   C814    1.391   .     A
C809   Cl840   1.777   .     S
C809   C822    1.415   .     A
C809   C816    1.391   .     A
C810   C824    1.415   .     A
C810   Cl841   1.777   .     S
C811   C823    1.415   .     A
C811   Cl842   1.777   .     S
C812   Cl843   1.777   .     S
C812   C823    1.415   .     A
C813   C824    1.415   .     A
C813   Cl845   1.777   .     S
C814   Cl846   1.777   .     S
C814   C827    1.415   .     A
C815   O879    1.298   .     A
C815   O876    1.298   .     A
C815   C820    1.472   .     S
C816   Cl847   1.777   .     S
C816   C825    1.415   .     A
C817   Cl848   1.777   .     S
C817   C825    1.415   .     A
C818   Cl849   1.777   .     S
C818   C827    1.415   .     A
C819   C826    1.472   .     S
C823   C831    1.472   .     S
C824   C830    1.472   .     S
C825   C829    1.472   .     S
C826   O878    1.298   .     A
C826   O877    1.298   .     A
C827   C828    1.472   .     S
C828   O880    1.298   .     A
C828   O868    1.298   .     A
C829   O866    1.298   .     A
C829   O867    1.298   .     A
C830   O869    1.298   .     A
C830   O872    1.298   .     A
C831   O870    1.298   .     A
C831   O871    1.298   .     A
C832   N862    1.372   .     A
C832   Cl833   1.763   .     S
Cu857  N861    2.015   .     S
Cu857  Cu858   2.681   .     S
Cu857  O865    1.983   .     S
Cu857  O877    1.983   .     S
Cu858  N862    2.015   .     S
Cu858  O875    1.983   .     S
Cu858  O878    1.983   .     S
Cu859  O870    1.983   .     S
Cu859  O867    1.983   .     S
Cu859  Cu860   2.681   .     S
Cu859  N863    2.015   .     S
Cu859  O1048   1.983   1_545 S
Cu859  O1056   1.983   1_545 S
Cu860  O1045   1.983   1_545 S
Cu860  O1044   1.983   1_545 S
Cu860  N864    2.015   .     S
Cu860  O866    1.983   .     S
Cu860  O871    1.983   .     S
N863   C976    1.372   1_545 A
N864   C973    1.372   1_545 S
O868   Cu1036  1.983   .     S
O869   Cu1036  1.983   .     S
O872   Cu1035  1.983   .     S
O873   Cu770   1.983   1_655 S
O874   Cu769   1.983   1_655 S
O876   Cu770   1.983   1_655 S
O879   Cu769   1.983   1_655 S
O880   Cu1035  1.983   .     S
C881   O963    1.298   .     A
C881   O953    1.298   .     A
C881   C910    1.472   .     S
C882   C179    1.416   1_556 S
C882   Cl932   1.763   .     S
C882   N949    1.372   .     S
C883   Cl938   1.763   .     S
C883   N950    1.372   .     S
C884   N949    1.372   .     A
C884   Cl939   1.763   .     S
C884   C216    1.416   1_556 S
C885   Cl940   1.763   .     S
C885   N776    1.372   1_565 S
C886   Cl941   1.763   .     S
C886   C183    1.416   1_556 S
C886   N951    1.372   .     S
C887   N952    1.372   .     A
C887   Cl942   1.763   .     S
C888   N775    1.372   1_565 A
C888   Cl943   1.763   .     S
C888   C181    1.416   1_556 S
C889   Cl944   1.777   .     S
C889   C900    1.391   .     A
C889   C908    1.415   .     A
C890   C907    1.415   .     A
C890   Cl922   1.777   .     S
C890   C901    1.391   .     A
C891   C898    1.391   .     A
C891   Cl923   1.777   .     S
C891   C907    1.415   .     A
C892   C909    1.472   .     S
C892   O962    1.298   .     A
C892   O961    1.298   .     A
C893   C908    1.415   .     A
C893   C899    1.391   .     A
C893   Cl924   1.777   .     S
C894   C910    1.415   .     A
C894   Cl925   1.777   .     S
C894   C905    1.391   .     A
C895   C909    1.415   .     A
C895   C906    1.391   .     A
C895   Cl926   1.777   .     S
C896   Cl927   1.777   .     S
C896   C909    1.415   .     A
C896   C902    1.391   .     A
C897   Cl928   1.777   .     S
C897   C910    1.415   .     A
C897   C904    1.391   .     A
C898   C912    1.415   .     A
C898   Cl929   1.777   .     S
C899   C911    1.415   .     A
C899   Cl930   1.777   .     S
C900   Cl931   1.777   .     S
C900   C911    1.415   .     A
C901   C912    1.415   .     A
C901   Cl933   1.777   .     S
C902   Cl934   1.777   .     S
C902   C915    1.415   .     A
C903   O967    1.298   .     A
C903   O964    1.298   .     A
C903   C908    1.472   .     S
C904   Cl935   1.777   .     S
C904   C913    1.415   .     A
C905   Cl936   1.777   .     S
C905   C913    1.415   .     A
C906   Cl937   1.777   .     S
C906   C915    1.415   .     A
C907   C914    1.472   .     S
C911   C919    1.472   .     S
C912   C918    1.472   .     S
C913   C917    1.472   .     S
C914   O966    1.298   .     A
C914   O965    1.298   .     A
C915   C916    1.472   .     S
C916   O968    1.298   .     A
C916   O956    1.298   .     A
C917   O954    1.298   .     A
C917   O955    1.298   .     A
C918   O957    1.298   .     A
C918   O960    1.298   .     A
C919   O958    1.298   .     A
C919   O959    1.298   .     A
C920   N950    1.372   .     A
C920   Cl921   1.763   .     S
Cu945  O1055   1.983   1_455 S
Cu945  O1050   1.983   1_455 S
Cu945  N949    2.015   .     S
Cu945  Cu946   2.681   .     S
Cu945  O953    1.983   .     S
Cu945  O965    1.983   .     S
Cu946  O1049   1.983   1_455 S
Cu946  N950    2.015   .     S
Cu946  O1052   1.983   1_455 S
Cu946  O963    1.983   .     S
Cu946  O966    1.983   .     S
Cu947  O958    1.983   .     S
Cu947  O955    1.983   .     S
Cu947  Cu948   2.681   .     S
Cu947  N951    2.015   .     S
Cu948  N952    2.015   .     S
Cu948  O954    1.983   .     S
Cu948  O959    1.983   .     S
O956   Cu772   1.983   1_565 S
O957   Cu772   1.983   1_565 S
O960   Cu771   1.983   1_565 S
O961   Cu1034  1.983   .     S
O962   Cu1033  1.983   .     S
O964   Cu1034  1.983   .     S
O967   Cu1033  1.983   .     S
O968   Cu771   1.983   1_565 S
C969   O1051   1.298   .     A
C969   O1041   1.298   .     A
C969   C998    1.472   .     S
C970   C267    1.416   1_556 S
C970   Cl1020  1.763   .     S
C970   N1037   1.372   .     S
C971   Cl1026  1.763   .     S
C971   N1038   1.372   .     S
C972   N1037   1.372   .     A
C972   Cl1027  1.763   .     S
C972   C304    1.416   1_556 S
C973   Cl1028  1.763   .     S
C973   N864    1.372   1_565 S
C974   Cl1029  1.763   .     S
C974   C271    1.416   1_556 S
C974   N1039   1.372   .     S
C975   N1040   1.372   .     A
C975   Cl1030  1.763   .     S
C976   N863    1.372   1_565 A
C976   Cl1031  1.763   .     S
C976   C269    1.416   1_556 S
C977   Cl1032  1.777   .     S
C977   C988    1.391   .     A
C977   C996    1.415   .     A
C978   C995    1.415   .     A
C978   Cl1010  1.777   .     S
C978   C989    1.391   .     A
C979   C986    1.391   .     A
C979   Cl1011  1.777   .     S
C979   C995    1.415   .     A
C980   C997    1.472   .     S
C980   O1050   1.298   .     A
C980   O1049   1.298   .     A
C981   C996    1.415   .     A
C981   C987    1.391   .     A
C981   Cl1012  1.777   .     S
C982   C998    1.415   .     A
C982   Cl1013  1.777   .     S
C982   C993    1.391   .     A
C983   C997    1.415   .     A
C983   C994    1.391   .     A
C983   Cl1014  1.777   .     S
C984   Cl1015  1.777   .     S
C984   C997    1.415   .     A
C984   C990    1.391   .     A
C985   Cl1016  1.777   .     S
C985   C998    1.415   .     A
C985   C992    1.391   .     A
C986   C1000   1.415   .     A
C986   Cl1017  1.777   .     S
C987   C999    1.415   .     A
C987   Cl1018  1.777   .     S
C988   Cl1019  1.777   .     S
C988   C999    1.415   .     A
C989   C1000   1.415   .     A
C989   Cl1021  1.777   .     S
C990   Cl1022  1.777   .     S
C990   C1003   1.415   .     A
C991   O1055   1.298   .     A
C991   O1052   1.298   .     A
C991   C996    1.472   .     S
C992   Cl1023  1.777   .     S
C992   C1001   1.415   .     A
C993   Cl1024  1.777   .     S
C993   C1001   1.415   .     A
C994   Cl1025  1.777   .     S
C994   C1003   1.415   .     A
C995   C1002   1.472   .     S
C999   C1007   1.472   .     S
C1000  C1006   1.472   .     S
C1001  C1005   1.472   .     S
C1002  O1054   1.298   .     A
C1002  O1053   1.298   .     A
C1003  C1004   1.472   .     S
C1004  O1056   1.298   .     A
C1004  O1044   1.298   .     A
C1005  O1042   1.298   .     A
C1005  O1043   1.298   .     A
C1006  O1045   1.298   .     A
C1006  O1048   1.298   .     A
C1007  O1046   1.298   .     A
C1007  O1047   1.298   .     A
C1008  N1038   1.372   .     A
C1008  Cl1009  1.763   .     S
Cu1033 N1037   2.015   .     S
Cu1033 Cu1034  2.681   .     S
Cu1033 O1041   1.983   .     S
Cu1033 O1053   1.983   .     S
Cu1034 N1038   2.015   .     S
Cu1034 O1051   1.983   .     S
Cu1034 O1054   1.983   .     S
Cu1035 O1046   1.983   .     S
Cu1035 O1043   1.983   .     S
Cu1035 Cu1036  2.681   .     S
Cu1035 N1039   2.015   .     S
Cu1036 N1040   2.015   .     S
Cu1036 O1042   1.983   .     S
Cu1036 O1047   1.983   .     S
O1044  Cu860   1.983   1_565 S
O1045  Cu860   1.983   1_565 S
O1048  Cu859   1.983   1_565 S
O1049  Cu946   1.983   1_655 S
O1050  Cu945   1.983   1_655 S
O1052  Cu946   1.983   1_655 S
O1055  Cu945   1.983   1_655 S
O1056  Cu859   1.983   1_565 S
