data_str_m3_o2_o10_pcu_sym.34
_audit_creation_date              2020-01-03
_audit_creation_method            'Materials Studio'
_symmetry_space_group_name_H-M    'P1'
_symmetry_Int_Tables_number       1
_symmetry_cell_setting            triclinic
loop_
_symmetry_equiv_pos_as_xyz
  x,y,z
_cell_length_a                    25.9273
_cell_length_b                    29.9929
_cell_length_c                    28.4952
_cell_angle_alpha                 90.3629
_cell_angle_beta                  97.4068
_cell_angle_gamma                 90.6066
loop_
_atom_site_label
_atom_site_type_symbol
_atom_site_fract_x
_atom_site_fract_y
_atom_site_fract_z
_atom_site_U_iso_or_equiv
_atom_site_adp_type
_atom_site_occupancy
C1     C     0.16694   0.16403   0.24976   0.00000  Uiso   1.00
C2     C     0.12254   0.23913   0.44331   0.00000  Uiso   1.00
C3     C     0.16980   0.24999   0.02726   0.00000  Uiso   1.00
C4     C     0.16837   0.25001   0.47372   0.00000  Uiso   1.00
C5     C     0.06751   0.24973   0.23796   0.00000  Uiso   1.00
C6     C     0.26603   0.25073   0.26165   0.00000  Uiso   1.00
C7     C     0.01347   0.24338   0.23180   0.00000  Uiso   1.00
C8     C     0.31957   0.26061   0.26504   0.00000  Uiso   1.00
C9     C     0.12853   0.04637   0.26857   0.00000  Uiso   1.00
C10    C     0.12825   0.45274   0.22327   0.00000  Uiso   1.00
C11    C     0.12646   0.09245   0.26704   0.00000  Uiso   1.00
C12    C     0.16695   0.33590   0.25028   0.00000  Uiso   1.00
C13    C     0.12627   0.40657   0.22376   0.00000  Uiso   1.00
C14    C     0.16665   0.11594   0.24859   0.00000  Uiso   1.00
C15    C     0.16677   0.38386   0.25132   0.00000  Uiso   1.00
C16    C     0.20690   0.09332   0.22933   0.00000  Uiso   1.00
C17    C     0.20723   0.40709   0.28001   0.00000  Uiso   1.00
C18    C     0.20521   0.04651   0.22673   0.00000  Uiso   1.00
C19    C     0.20523   0.45381   0.28281   0.00000  Uiso   1.00
C20    C     0.16737   0.02387   0.24903   0.00000  Uiso   1.00
C21    C     0.16723   0.47585   0.25197   0.00000  Uiso   1.00
C22    C     0.32666   0.21190   0.19230   0.00000  Uiso   1.00
C23    C     0.14674   0.21461   0.04997   0.00000  Uiso   1.00
C24    C     0.00622   0.29501   0.30133   0.00000  Uiso   1.00
C25    C     0.08142   0.11535   0.28346   0.00000  Uiso   1.00
C26    C     0.08134   0.38282   0.19615   0.00000  Uiso   1.00
C27    C     0.25239   0.11843   0.21569   0.00000  Uiso   1.00
C28    C     0.25332   0.38283   0.30347   0.00000  Uiso   1.00
C29    C     0.24092   0.02084   0.19971   0.00000  Uiso   1.00
C30    C     0.24082   0.47998   0.31845   0.00000  Uiso   1.00
C31    C     0.22445   0.31492   0.13590   0.00000  Uiso   1.00
C32    C     0.07982   0.21534   0.36554   0.00000  Uiso   1.00
C33    C     0.21500   0.32378   0.03569   0.00000  Uiso   1.00
C34    C     0.21304   0.26053   0.45224   0.00000  Uiso   1.00
C35    C     0.07361   0.23238   0.46212   0.00000  Uiso   1.00
C36    C     0.14418   0.21589   0.09895   0.00000  Uiso   1.00
C37    C     0.21087   0.26193   0.40260   0.00000  Uiso   1.00
C38    C     0.19327   0.28305   0.10607   0.00000  Uiso   1.00
C39    C     0.12365   0.23631   0.39379   0.00000  Uiso   1.00
C40    C     0.19306   0.28502   0.05633   0.00000  Uiso   1.00
H41    H     0.09905   0.02748   0.28394   0.00000  Uiso   1.00
H42    H     0.07567   0.34722   0.19981   0.00000  Uiso   1.00
H43    H     0.24731   0.14987   0.19746   0.00000  Uiso   1.00
H44    H     0.24918   0.35033   0.31889   0.00000  Uiso   1.00
H45    H     0.25104   0.48677   0.20902   0.00000  Uiso   1.00
H46    H     0.25098   0.01430   0.31177   0.00000  Uiso   1.00
H47    H     0.09880   0.47121   0.20114   0.00000  Uiso   1.00
H48    H     0.13015   0.18604   0.02981   0.00000  Uiso   1.00
H49    H     0.24973   0.26787   0.47369   0.00000  Uiso   1.00
H50    H     0.12515   0.18895   0.11533   0.00000  Uiso   1.00
H51    H     0.24532   0.27151   0.38726   0.00000  Uiso   1.00
H52    H     0.29182   0.21845   0.16824   0.00000  Uiso   1.00
H53    H     0.32407   0.29625   0.33493   0.00000  Uiso   1.00
H54    H     0.07336   0.14977   0.27415   0.00000  Uiso   1.00
N55    N     0.16667   0.24999   0.12623   0.00000  Uiso   1.00
N56    N     0.16667   0.25001   0.37376   0.00000  Uiso   1.00
N57    N     0.24996   0.34050   0.15933   0.00000  Uiso   1.00
N58    N     0.04402   0.19797   0.34435   0.00000  Uiso   1.00
N59    N     0.23249   0.35479   0.01931   0.00000  Uiso   1.00
N60    N     0.03452   0.22709   0.47699   0.00000  Uiso   1.00
O61    O     0.16667   0.18453   0.28974   0.00000  Uiso   1.00
O62    O     0.03775   0.32353   0.29309   0.00000  Uiso   1.00
O63    O     0.05231   0.09583   0.30707   0.00000  Uiso   1.00
O64    O     0.04942   0.40295   0.16920   0.00000  Uiso   1.00
O65    O     0.29644   0.10451   0.22598   0.00000  Uiso   1.00
O66    O     0.29705   0.39863   0.30442   0.00000  Uiso   1.00
O67    O     0.25758   0.03679   0.16524   0.00000  Uiso   1.00
O68    O     0.25727   0.46413   0.35677   0.00000  Uiso   1.00
O69    O     0.16666   0.31546   0.21026   0.00000  Uiso   1.00
O70    O     0.16667   0.18453   0.21026   0.00000  Uiso   1.00
O71    O     0.16666   0.31547   0.28974   0.00000  Uiso   1.00
O72    O     0.09058   0.25000   0.28044   0.00000  Uiso   1.00
O73    O     0.24275   0.25000   0.21955   0.00000  Uiso   1.00
O74    O     0.09058   0.24999   0.20096   0.00000  Uiso   1.00
O75    O     0.24275   0.25000   0.29903   0.00000  Uiso   1.00
O76    O     0.01804   0.17877   0.18464   0.00000  Uiso   1.00
Zn77   Zn    0.16667   0.25000   0.30307   0.00000  Uiso   1.00
Zn78   Zn    0.16667   0.24999   0.19693   0.00000  Uiso   1.00
C79    C     0.50028   0.16403   0.24976   0.00000  Uiso   1.00
C80    C     0.45587   0.23913   0.44331   0.00000  Uiso   1.00
C81    C     0.50313   0.24999   0.02726   0.00000  Uiso   1.00
C82    C     0.50171   0.25001   0.47372   0.00000  Uiso   1.00
C83    C     0.40084   0.24973   0.23796   0.00000  Uiso   1.00
C84    C     0.59936   0.25073   0.26165   0.00000  Uiso   1.00
C85    C     0.34680   0.24338   0.23180   0.00000  Uiso   1.00
C86    C     0.65290   0.26061   0.26504   0.00000  Uiso   1.00
C87    C     0.46186   0.04637   0.26857   0.00000  Uiso   1.00
C88    C     0.46158   0.45274   0.22327   0.00000  Uiso   1.00
C89    C     0.45979   0.09245   0.26704   0.00000  Uiso   1.00
C90    C     0.50028   0.33590   0.25028   0.00000  Uiso   1.00
C91    C     0.45961   0.40657   0.22376   0.00000  Uiso   1.00
C92    C     0.49998   0.11594   0.24859   0.00000  Uiso   1.00
C93    C     0.50010   0.38386   0.25132   0.00000  Uiso   1.00
C94    C     0.54024   0.09332   0.22933   0.00000  Uiso   1.00
C95    C     0.54056   0.40709   0.28001   0.00000  Uiso   1.00
C96    C     0.53854   0.04651   0.22673   0.00000  Uiso   1.00
C97    C     0.53856   0.45381   0.28281   0.00000  Uiso   1.00
C98    C     0.50071   0.02387   0.24903   0.00000  Uiso   1.00
C99    C     0.50056   0.47585   0.25197   0.00000  Uiso   1.00
C100   C     0.65999   0.21190   0.19230   0.00000  Uiso   1.00
C101   C     0.48007   0.21461   0.04997   0.00000  Uiso   1.00
C102   C     0.33956   0.29501   0.30133   0.00000  Uiso   1.00
C103   C     0.41476   0.11535   0.28346   0.00000  Uiso   1.00
C104   C     0.41467   0.38282   0.19615   0.00000  Uiso   1.00
C105   C     0.58572   0.11843   0.21569   0.00000  Uiso   1.00
C106   C     0.58665   0.38283   0.30347   0.00000  Uiso   1.00
C107   C     0.57425   0.02084   0.19971   0.00000  Uiso   1.00
C108   C     0.57415   0.47998   0.31845   0.00000  Uiso   1.00
C109   C     0.55778   0.31492   0.13590   0.00000  Uiso   1.00
C110   C     0.41316   0.21534   0.36554   0.00000  Uiso   1.00
C111   C     0.54834   0.32378   0.03569   0.00000  Uiso   1.00
C112   C     0.54638   0.26053   0.45224   0.00000  Uiso   1.00
C113   C     0.40694   0.23238   0.46212   0.00000  Uiso   1.00
C114   C     0.47752   0.21589   0.09895   0.00000  Uiso   1.00
C115   C     0.54420   0.26193   0.40260   0.00000  Uiso   1.00
C116   C     0.52661   0.28305   0.10607   0.00000  Uiso   1.00
C117   C     0.45698   0.23631   0.39379   0.00000  Uiso   1.00
C118   C     0.52639   0.28502   0.05633   0.00000  Uiso   1.00
H119   H     0.43239   0.02748   0.28394   0.00000  Uiso   1.00
H120   H     0.40900   0.34722   0.19981   0.00000  Uiso   1.00
H121   H     0.58064   0.14987   0.19746   0.00000  Uiso   1.00
H122   H     0.58251   0.35033   0.31889   0.00000  Uiso   1.00
H123   H     0.58437   0.48677   0.20902   0.00000  Uiso   1.00
H124   H     0.58432   0.01430   0.31177   0.00000  Uiso   1.00
H125   H     0.43213   0.47121   0.20114   0.00000  Uiso   1.00
H126   H     0.46349   0.18604   0.02981   0.00000  Uiso   1.00
H127   H     0.58307   0.26787   0.47369   0.00000  Uiso   1.00
H128   H     0.45848   0.18895   0.11533   0.00000  Uiso   1.00
H129   H     0.57865   0.27151   0.38726   0.00000  Uiso   1.00
H130   H     0.62515   0.21845   0.16824   0.00000  Uiso   1.00
H131   H     0.65741   0.29625   0.33493   0.00000  Uiso   1.00
H132   H     0.40670   0.14977   0.27415   0.00000  Uiso   1.00
N133   N     0.50000   0.24999   0.12623   0.00000  Uiso   1.00
N134   N     0.50000   0.25001   0.37376   0.00000  Uiso   1.00
N135   N     0.58329   0.34050   0.15933   0.00000  Uiso   1.00
N136   N     0.37735   0.19797   0.34435   0.00000  Uiso   1.00
N137   N     0.56582   0.35479   0.01931   0.00000  Uiso   1.00
N138   N     0.36785   0.22709   0.47699   0.00000  Uiso   1.00
O139   O     0.50000   0.18453   0.28974   0.00000  Uiso   1.00
O140   O     0.37109   0.32353   0.29309   0.00000  Uiso   1.00
O141   O     0.38564   0.09583   0.30707   0.00000  Uiso   1.00
O142   O     0.38276   0.40295   0.16920   0.00000  Uiso   1.00
O143   O     0.62977   0.10451   0.22598   0.00000  Uiso   1.00
O144   O     0.63039   0.39863   0.30442   0.00000  Uiso   1.00
O145   O     0.59091   0.03679   0.16524   0.00000  Uiso   1.00
O146   O     0.59061   0.46413   0.35677   0.00000  Uiso   1.00
O147   O     0.50000   0.31546   0.21026   0.00000  Uiso   1.00
O148   O     0.50000   0.18453   0.21026   0.00000  Uiso   1.00
O149   O     0.50000   0.31547   0.28974   0.00000  Uiso   1.00
O150   O     0.42392   0.25000   0.28044   0.00000  Uiso   1.00
O151   O     0.57608   0.25000   0.21955   0.00000  Uiso   1.00
O152   O     0.42392   0.24999   0.20096   0.00000  Uiso   1.00
O153   O     0.57608   0.25000   0.29903   0.00000  Uiso   1.00
O154   O     0.35138   0.17877   0.18464   0.00000  Uiso   1.00
Zn155  Zn    0.50000   0.25000   0.30307   0.00000  Uiso   1.00
Zn156  Zn    0.50000   0.24999   0.19693   0.00000  Uiso   1.00
C157   C     0.83361   0.16403   0.24976   0.00000  Uiso   1.00
C158   C     0.78920   0.23913   0.44331   0.00000  Uiso   1.00
C159   C     0.83646   0.24999   0.02726   0.00000  Uiso   1.00
C160   C     0.83504   0.25001   0.47372   0.00000  Uiso   1.00
C161   C     0.73417   0.24973   0.23796   0.00000  Uiso   1.00
C162   C     0.93270   0.25073   0.26165   0.00000  Uiso   1.00
C163   C     0.68013   0.24338   0.23180   0.00000  Uiso   1.00
C164   C     0.98623   0.26061   0.26504   0.00000  Uiso   1.00
C165   C     0.79520   0.04637   0.26857   0.00000  Uiso   1.00
C166   C     0.79491   0.45274   0.22327   0.00000  Uiso   1.00
C167   C     0.79313   0.09245   0.26704   0.00000  Uiso   1.00
C168   C     0.83362   0.33590   0.25028   0.00000  Uiso   1.00
C169   C     0.79294   0.40657   0.22376   0.00000  Uiso   1.00
C170   C     0.83331   0.11594   0.24859   0.00000  Uiso   1.00
C171   C     0.83344   0.38386   0.25132   0.00000  Uiso   1.00
C172   C     0.87357   0.09332   0.22933   0.00000  Uiso   1.00
C173   C     0.87389   0.40709   0.28001   0.00000  Uiso   1.00
C174   C     0.87188   0.04651   0.22673   0.00000  Uiso   1.00
C175   C     0.87190   0.45381   0.28281   0.00000  Uiso   1.00
C176   C     0.83404   0.02387   0.24903   0.00000  Uiso   1.00
C177   C     0.83389   0.47585   0.25197   0.00000  Uiso   1.00
C178   C     0.99333   0.21190   0.19230   0.00000  Uiso   1.00
C179   C     0.81340   0.21461   0.04997   0.00000  Uiso   1.00
C180   C     0.67289   0.29501   0.30133   0.00000  Uiso   1.00
C181   C     0.74809   0.11535   0.28346   0.00000  Uiso   1.00
C182   C     0.74800   0.38282   0.19615   0.00000  Uiso   1.00
C183   C     0.91905   0.11843   0.21569   0.00000  Uiso   1.00
C184   C     0.91999   0.38283   0.30347   0.00000  Uiso   1.00
C185   C     0.90758   0.02084   0.19971   0.00000  Uiso   1.00
C186   C     0.90748   0.47998   0.31845   0.00000  Uiso   1.00
C187   C     0.89112   0.31492   0.13590   0.00000  Uiso   1.00
C188   C     0.74649   0.21534   0.36554   0.00000  Uiso   1.00
C189   C     0.88167   0.32378   0.03569   0.00000  Uiso   1.00
C190   C     0.87971   0.26053   0.45224   0.00000  Uiso   1.00
C191   C     0.74027   0.23238   0.46212   0.00000  Uiso   1.00
C192   C     0.81085   0.21589   0.09895   0.00000  Uiso   1.00
C193   C     0.87753   0.26193   0.40260   0.00000  Uiso   1.00
C194   C     0.85994   0.28305   0.10607   0.00000  Uiso   1.00
C195   C     0.79032   0.23631   0.39379   0.00000  Uiso   1.00
C196   C     0.85972   0.28502   0.05633   0.00000  Uiso   1.00
H197   H     0.76572   0.02748   0.28394   0.00000  Uiso   1.00
H198   H     0.74234   0.34722   0.19981   0.00000  Uiso   1.00
H199   H     0.91398   0.14987   0.19746   0.00000  Uiso   1.00
H200   H     0.91584   0.35033   0.31889   0.00000  Uiso   1.00
H201   H     0.91770   0.48677   0.20902   0.00000  Uiso   1.00
H202   H     0.91765   0.01430   0.31177   0.00000  Uiso   1.00
H203   H     0.76546   0.47121   0.20114   0.00000  Uiso   1.00
H204   H     0.79682   0.18604   0.02981   0.00000  Uiso   1.00
H205   H     0.91640   0.26787   0.47369   0.00000  Uiso   1.00
H206   H     0.79181   0.18895   0.11533   0.00000  Uiso   1.00
H207   H     0.91198   0.27151   0.38726   0.00000  Uiso   1.00
H208   H     0.95848   0.21845   0.16824   0.00000  Uiso   1.00
H209   H     0.99074   0.29625   0.33493   0.00000  Uiso   1.00
H210   H     0.74003   0.14977   0.27415   0.00000  Uiso   1.00
N211   N     0.83333   0.24999   0.12623   0.00000  Uiso   1.00
N212   N     0.83333   0.25001   0.37376   0.00000  Uiso   1.00
N213   N     0.91662   0.34050   0.15933   0.00000  Uiso   1.00
N214   N     0.71069   0.19797   0.34435   0.00000  Uiso   1.00
N215   N     0.89916   0.35479   0.01931   0.00000  Uiso   1.00
N216   N     0.70118   0.22709   0.47699   0.00000  Uiso   1.00
O217   O     0.83334   0.18453   0.28974   0.00000  Uiso   1.00
O218   O     0.70442   0.32353   0.29309   0.00000  Uiso   1.00
O219   O     0.71897   0.09583   0.30707   0.00000  Uiso   1.00
O220   O     0.71609   0.40295   0.16920   0.00000  Uiso   1.00
O221   O     0.96311   0.10451   0.22598   0.00000  Uiso   1.00
O222   O     0.96372   0.39863   0.30442   0.00000  Uiso   1.00
O223   O     0.92425   0.03679   0.16524   0.00000  Uiso   1.00
O224   O     0.92394   0.46413   0.35677   0.00000  Uiso   1.00
O225   O     0.83333   0.31546   0.21026   0.00000  Uiso   1.00
O226   O     0.83334   0.18453   0.21026   0.00000  Uiso   1.00
O227   O     0.83333   0.31547   0.28974   0.00000  Uiso   1.00
O228   O     0.75725   0.25000   0.28044   0.00000  Uiso   1.00
O229   O     0.90942   0.25000   0.21955   0.00000  Uiso   1.00
O230   O     0.75725   0.24999   0.20096   0.00000  Uiso   1.00
O231   O     0.90942   0.25000   0.29903   0.00000  Uiso   1.00
O232   O     0.68471   0.17877   0.18464   0.00000  Uiso   1.00
Zn233  Zn    0.83333   0.25000   0.30307   0.00000  Uiso   1.00
Zn234  Zn    0.83333   0.24999   0.19693   0.00000  Uiso   1.00
C235   C     0.16694   0.66403   0.24976   0.00000  Uiso   1.00
C236   C     0.12254   0.73913   0.44331   0.00000  Uiso   1.00
C237   C     0.16980   0.74999   0.02726   0.00000  Uiso   1.00
C238   C     0.16837   0.75001   0.47372   0.00000  Uiso   1.00
C239   C     0.06751   0.74973   0.23796   0.00000  Uiso   1.00
C240   C     0.26603   0.75073   0.26165   0.00000  Uiso   1.00
C241   C     0.01347   0.74338   0.23180   0.00000  Uiso   1.00
C242   C     0.31957   0.76061   0.26504   0.00000  Uiso   1.00
C243   C     0.12853   0.54637   0.26857   0.00000  Uiso   1.00
C244   C     0.12825   0.95274   0.22327   0.00000  Uiso   1.00
C245   C     0.12646   0.59245   0.26704   0.00000  Uiso   1.00
C246   C     0.16695   0.83590   0.25028   0.00000  Uiso   1.00
C247   C     0.12627   0.90657   0.22376   0.00000  Uiso   1.00
C248   C     0.16665   0.61594   0.24859   0.00000  Uiso   1.00
C249   C     0.16677   0.88386   0.25132   0.00000  Uiso   1.00
C250   C     0.20690   0.59332   0.22933   0.00000  Uiso   1.00
C251   C     0.20723   0.90709   0.28001   0.00000  Uiso   1.00
C252   C     0.20521   0.54651   0.22673   0.00000  Uiso   1.00
C253   C     0.20523   0.95381   0.28281   0.00000  Uiso   1.00
C254   C     0.16737   0.52387   0.24903   0.00000  Uiso   1.00
C255   C     0.16723   0.97585   0.25197   0.00000  Uiso   1.00
C256   C     0.32666   0.71190   0.19230   0.00000  Uiso   1.00
C257   C     0.14674   0.71461   0.04997   0.00000  Uiso   1.00
C258   C     0.00622   0.79501   0.30133   0.00000  Uiso   1.00
C259   C     0.08142   0.61535   0.28346   0.00000  Uiso   1.00
C260   C     0.08134   0.88282   0.19615   0.00000  Uiso   1.00
C261   C     0.25239   0.61843   0.21569   0.00000  Uiso   1.00
C262   C     0.25332   0.88283   0.30347   0.00000  Uiso   1.00
C263   C     0.24092   0.52084   0.19971   0.00000  Uiso   1.00
C264   C     0.24082   0.97998   0.31845   0.00000  Uiso   1.00
C265   C     0.22445   0.81492   0.13590   0.00000  Uiso   1.00
C266   C     0.07982   0.71534   0.36554   0.00000  Uiso   1.00
C267   C     0.21500   0.82378   0.03569   0.00000  Uiso   1.00
C268   C     0.21304   0.76053   0.45224   0.00000  Uiso   1.00
C269   C     0.07361   0.73238   0.46212   0.00000  Uiso   1.00
C270   C     0.14418   0.71589   0.09895   0.00000  Uiso   1.00
C271   C     0.21087   0.76193   0.40260   0.00000  Uiso   1.00
C272   C     0.19327   0.78305   0.10607   0.00000  Uiso   1.00
C273   C     0.12365   0.73631   0.39379   0.00000  Uiso   1.00
C274   C     0.19306   0.78502   0.05633   0.00000  Uiso   1.00
H275   H     0.09905   0.52748   0.28394   0.00000  Uiso   1.00
H276   H     0.07567   0.84722   0.19981   0.00000  Uiso   1.00
H277   H     0.24731   0.64987   0.19746   0.00000  Uiso   1.00
H278   H     0.24918   0.85033   0.31889   0.00000  Uiso   1.00
H279   H     0.25104   0.98677   0.20902   0.00000  Uiso   1.00
H280   H     0.25098   0.51430   0.31177   0.00000  Uiso   1.00
H281   H     0.09880   0.97121   0.20114   0.00000  Uiso   1.00
H282   H     0.13015   0.68604   0.02981   0.00000  Uiso   1.00
H283   H     0.24973   0.76787   0.47369   0.00000  Uiso   1.00
H284   H     0.12515   0.68895   0.11533   0.00000  Uiso   1.00
H285   H     0.24532   0.77151   0.38726   0.00000  Uiso   1.00
H286   H     0.29182   0.71845   0.16824   0.00000  Uiso   1.00
H287   H     0.32407   0.79625   0.33493   0.00000  Uiso   1.00
H288   H     0.07336   0.64977   0.27415   0.00000  Uiso   1.00
N289   N     0.16667   0.74999   0.12623   0.00000  Uiso   1.00
N290   N     0.16667   0.75001   0.37376   0.00000  Uiso   1.00
N291   N     0.24996   0.84050   0.15933   0.00000  Uiso   1.00
N292   N     0.04402   0.69797   0.34435   0.00000  Uiso   1.00
N293   N     0.23249   0.85479   0.01931   0.00000  Uiso   1.00
N294   N     0.03452   0.72709   0.47699   0.00000  Uiso   1.00
O295   O     0.16667   0.68453   0.28974   0.00000  Uiso   1.00
O296   O     0.03775   0.82353   0.29309   0.00000  Uiso   1.00
O297   O     0.05231   0.59583   0.30707   0.00000  Uiso   1.00
O298   O     0.04942   0.90295   0.16920   0.00000  Uiso   1.00
O299   O     0.29644   0.60451   0.22598   0.00000  Uiso   1.00
O300   O     0.29705   0.89863   0.30442   0.00000  Uiso   1.00
O301   O     0.25758   0.53679   0.16524   0.00000  Uiso   1.00
O302   O     0.25727   0.96413   0.35677   0.00000  Uiso   1.00
O303   O     0.16666   0.81546   0.21026   0.00000  Uiso   1.00
O304   O     0.16667   0.68453   0.21026   0.00000  Uiso   1.00
O305   O     0.16666   0.81547   0.28974   0.00000  Uiso   1.00
O306   O     0.09058   0.75000   0.28044   0.00000  Uiso   1.00
O307   O     0.24275   0.75000   0.21955   0.00000  Uiso   1.00
O308   O     0.09058   0.74999   0.20096   0.00000  Uiso   1.00
O309   O     0.24275   0.75000   0.29903   0.00000  Uiso   1.00
O310   O     0.01804   0.67877   0.18464   0.00000  Uiso   1.00
Zn311  Zn    0.16667   0.75000   0.30307   0.00000  Uiso   1.00
Zn312  Zn    0.16667   0.74999   0.19693   0.00000  Uiso   1.00
C313   C     0.50028   0.66403   0.24976   0.00000  Uiso   1.00
C314   C     0.45587   0.73913   0.44331   0.00000  Uiso   1.00
C315   C     0.50313   0.74999   0.02726   0.00000  Uiso   1.00
C316   C     0.50171   0.75001   0.47372   0.00000  Uiso   1.00
C317   C     0.40084   0.74973   0.23796   0.00000  Uiso   1.00
C318   C     0.59936   0.75073   0.26165   0.00000  Uiso   1.00
C319   C     0.34680   0.74338   0.23180   0.00000  Uiso   1.00
C320   C     0.65290   0.76061   0.26504   0.00000  Uiso   1.00
C321   C     0.46186   0.54637   0.26857   0.00000  Uiso   1.00
C322   C     0.46158   0.95274   0.22327   0.00000  Uiso   1.00
C323   C     0.45979   0.59245   0.26704   0.00000  Uiso   1.00
C324   C     0.50028   0.83590   0.25028   0.00000  Uiso   1.00
C325   C     0.45961   0.90657   0.22376   0.00000  Uiso   1.00
C326   C     0.49998   0.61594   0.24859   0.00000  Uiso   1.00
C327   C     0.50010   0.88386   0.25132   0.00000  Uiso   1.00
C328   C     0.54024   0.59332   0.22933   0.00000  Uiso   1.00
C329   C     0.54056   0.90709   0.28001   0.00000  Uiso   1.00
C330   C     0.53854   0.54651   0.22673   0.00000  Uiso   1.00
C331   C     0.53856   0.95381   0.28281   0.00000  Uiso   1.00
C332   C     0.50071   0.52387   0.24903   0.00000  Uiso   1.00
C333   C     0.50056   0.97585   0.25197   0.00000  Uiso   1.00
C334   C     0.65999   0.71190   0.19230   0.00000  Uiso   1.00
C335   C     0.48007   0.71461   0.04997   0.00000  Uiso   1.00
C336   C     0.33956   0.79501   0.30133   0.00000  Uiso   1.00
C337   C     0.41476   0.61535   0.28346   0.00000  Uiso   1.00
C338   C     0.41467   0.88282   0.19615   0.00000  Uiso   1.00
C339   C     0.58572   0.61843   0.21569   0.00000  Uiso   1.00
C340   C     0.58665   0.88283   0.30347   0.00000  Uiso   1.00
C341   C     0.57425   0.52084   0.19971   0.00000  Uiso   1.00
C342   C     0.57415   0.97998   0.31845   0.00000  Uiso   1.00
C343   C     0.55778   0.81492   0.13590   0.00000  Uiso   1.00
C344   C     0.41316   0.71534   0.36554   0.00000  Uiso   1.00
C345   C     0.54834   0.82378   0.03569   0.00000  Uiso   1.00
C346   C     0.54638   0.76053   0.45224   0.00000  Uiso   1.00
C347   C     0.40694   0.73238   0.46212   0.00000  Uiso   1.00
C348   C     0.47752   0.71589   0.09895   0.00000  Uiso   1.00
C349   C     0.54420   0.76193   0.40260   0.00000  Uiso   1.00
C350   C     0.52661   0.78305   0.10607   0.00000  Uiso   1.00
C351   C     0.45698   0.73631   0.39379   0.00000  Uiso   1.00
C352   C     0.52639   0.78502   0.05633   0.00000  Uiso   1.00
H353   H     0.43239   0.52748   0.28394   0.00000  Uiso   1.00
H354   H     0.40900   0.84722   0.19981   0.00000  Uiso   1.00
H355   H     0.58064   0.64987   0.19746   0.00000  Uiso   1.00
H356   H     0.58251   0.85033   0.31889   0.00000  Uiso   1.00
H357   H     0.58437   0.98677   0.20902   0.00000  Uiso   1.00
H358   H     0.58432   0.51430   0.31177   0.00000  Uiso   1.00
H359   H     0.43213   0.97121   0.20114   0.00000  Uiso   1.00
H360   H     0.46349   0.68604   0.02981   0.00000  Uiso   1.00
H361   H     0.58307   0.76787   0.47369   0.00000  Uiso   1.00
H362   H     0.45848   0.68895   0.11533   0.00000  Uiso   1.00
H363   H     0.57865   0.77151   0.38726   0.00000  Uiso   1.00
H364   H     0.62515   0.71845   0.16824   0.00000  Uiso   1.00
H365   H     0.65741   0.79625   0.33493   0.00000  Uiso   1.00
H366   H     0.40670   0.64977   0.27415   0.00000  Uiso   1.00
N367   N     0.50000   0.74999   0.12623   0.00000  Uiso   1.00
N368   N     0.50000   0.75001   0.37376   0.00000  Uiso   1.00
N369   N     0.58329   0.84050   0.15933   0.00000  Uiso   1.00
N370   N     0.37735   0.69797   0.34435   0.00000  Uiso   1.00
N371   N     0.56582   0.85479   0.01931   0.00000  Uiso   1.00
N372   N     0.36785   0.72709   0.47699   0.00000  Uiso   1.00
O373   O     0.50000   0.68453   0.28974   0.00000  Uiso   1.00
O374   O     0.37109   0.82353   0.29309   0.00000  Uiso   1.00
O375   O     0.38564   0.59583   0.30707   0.00000  Uiso   1.00
O376   O     0.38276   0.90295   0.16920   0.00000  Uiso   1.00
O377   O     0.62977   0.60451   0.22598   0.00000  Uiso   1.00
O378   O     0.63039   0.89863   0.30442   0.00000  Uiso   1.00
O379   O     0.59091   0.53679   0.16524   0.00000  Uiso   1.00
O380   O     0.59061   0.96413   0.35677   0.00000  Uiso   1.00
O381   O     0.50000   0.81546   0.21026   0.00000  Uiso   1.00
O382   O     0.50000   0.68453   0.21026   0.00000  Uiso   1.00
O383   O     0.50000   0.81547   0.28974   0.00000  Uiso   1.00
O384   O     0.42392   0.75000   0.28044   0.00000  Uiso   1.00
O385   O     0.57608   0.75000   0.21955   0.00000  Uiso   1.00
O386   O     0.42392   0.74999   0.20096   0.00000  Uiso   1.00
O387   O     0.57608   0.75000   0.29903   0.00000  Uiso   1.00
O388   O     0.35138   0.67877   0.18464   0.00000  Uiso   1.00
Zn389  Zn    0.50000   0.75000   0.30307   0.00000  Uiso   1.00
Zn390  Zn    0.50000   0.74999   0.19693   0.00000  Uiso   1.00
C391   C     0.83361   0.66403   0.24976   0.00000  Uiso   1.00
C392   C     0.78920   0.73913   0.44331   0.00000  Uiso   1.00
C393   C     0.83646   0.74999   0.02726   0.00000  Uiso   1.00
C394   C     0.83504   0.75001   0.47372   0.00000  Uiso   1.00
C395   C     0.73417   0.74973   0.23796   0.00000  Uiso   1.00
C396   C     0.93270   0.75073   0.26165   0.00000  Uiso   1.00
C397   C     0.68013   0.74338   0.23180   0.00000  Uiso   1.00
C398   C     0.98623   0.76061   0.26504   0.00000  Uiso   1.00
C399   C     0.79520   0.54637   0.26857   0.00000  Uiso   1.00
C400   C     0.79491   0.95274   0.22327   0.00000  Uiso   1.00
C401   C     0.79313   0.59245   0.26704   0.00000  Uiso   1.00
C402   C     0.83362   0.83590   0.25028   0.00000  Uiso   1.00
C403   C     0.79294   0.90657   0.22376   0.00000  Uiso   1.00
C404   C     0.83331   0.61594   0.24859   0.00000  Uiso   1.00
C405   C     0.83344   0.88386   0.25132   0.00000  Uiso   1.00
C406   C     0.87357   0.59332   0.22933   0.00000  Uiso   1.00
C407   C     0.87389   0.90709   0.28001   0.00000  Uiso   1.00
C408   C     0.87188   0.54651   0.22673   0.00000  Uiso   1.00
C409   C     0.87190   0.95381   0.28281   0.00000  Uiso   1.00
C410   C     0.83404   0.52387   0.24903   0.00000  Uiso   1.00
C411   C     0.83389   0.97585   0.25197   0.00000  Uiso   1.00
C412   C     0.99333   0.71190   0.19230   0.00000  Uiso   1.00
C413   C     0.81340   0.71461   0.04997   0.00000  Uiso   1.00
C414   C     0.67289   0.79501   0.30133   0.00000  Uiso   1.00
C415   C     0.74809   0.61535   0.28346   0.00000  Uiso   1.00
C416   C     0.74800   0.88282   0.19615   0.00000  Uiso   1.00
C417   C     0.91905   0.61843   0.21569   0.00000  Uiso   1.00
C418   C     0.91999   0.88283   0.30347   0.00000  Uiso   1.00
C419   C     0.90758   0.52084   0.19971   0.00000  Uiso   1.00
C420   C     0.90748   0.97998   0.31845   0.00000  Uiso   1.00
C421   C     0.89112   0.81492   0.13590   0.00000  Uiso   1.00
C422   C     0.74649   0.71534   0.36554   0.00000  Uiso   1.00
C423   C     0.88167   0.82378   0.03569   0.00000  Uiso   1.00
C424   C     0.87971   0.76053   0.45224   0.00000  Uiso   1.00
C425   C     0.74027   0.73238   0.46212   0.00000  Uiso   1.00
C426   C     0.81085   0.71589   0.09895   0.00000  Uiso   1.00
C427   C     0.87753   0.76193   0.40260   0.00000  Uiso   1.00
C428   C     0.85994   0.78305   0.10607   0.00000  Uiso   1.00
C429   C     0.79032   0.73631   0.39379   0.00000  Uiso   1.00
C430   C     0.85972   0.78502   0.05633   0.00000  Uiso   1.00
H431   H     0.76572   0.52748   0.28394   0.00000  Uiso   1.00
H432   H     0.74234   0.84722   0.19981   0.00000  Uiso   1.00
H433   H     0.91398   0.64987   0.19746   0.00000  Uiso   1.00
H434   H     0.91584   0.85033   0.31889   0.00000  Uiso   1.00
H435   H     0.91770   0.98677   0.20902   0.00000  Uiso   1.00
H436   H     0.91765   0.51430   0.31177   0.00000  Uiso   1.00
H437   H     0.76546   0.97121   0.20114   0.00000  Uiso   1.00
H438   H     0.79682   0.68604   0.02981   0.00000  Uiso   1.00
H439   H     0.91640   0.76787   0.47369   0.00000  Uiso   1.00
H440   H     0.79181   0.68895   0.11533   0.00000  Uiso   1.00
H441   H     0.91198   0.77151   0.38726   0.00000  Uiso   1.00
H442   H     0.95848   0.71845   0.16824   0.00000  Uiso   1.00
H443   H     0.99074   0.79625   0.33493   0.00000  Uiso   1.00
H444   H     0.74003   0.64977   0.27415   0.00000  Uiso   1.00
N445   N     0.83333   0.74999   0.12623   0.00000  Uiso   1.00
N446   N     0.83333   0.75001   0.37376   0.00000  Uiso   1.00
N447   N     0.91662   0.84050   0.15933   0.00000  Uiso   1.00
N448   N     0.71069   0.69797   0.34435   0.00000  Uiso   1.00
N449   N     0.89916   0.85479   0.01931   0.00000  Uiso   1.00
N450   N     0.70118   0.72709   0.47699   0.00000  Uiso   1.00
O451   O     0.83334   0.68453   0.28974   0.00000  Uiso   1.00
O452   O     0.70442   0.82353   0.29309   0.00000  Uiso   1.00
O453   O     0.71897   0.59583   0.30707   0.00000  Uiso   1.00
O454   O     0.71609   0.90295   0.16920   0.00000  Uiso   1.00
O455   O     0.96311   0.60451   0.22598   0.00000  Uiso   1.00
O456   O     0.96372   0.89863   0.30442   0.00000  Uiso   1.00
O457   O     0.92425   0.53679   0.16524   0.00000  Uiso   1.00
O458   O     0.92394   0.96413   0.35677   0.00000  Uiso   1.00
O459   O     0.83333   0.81546   0.21026   0.00000  Uiso   1.00
O460   O     0.83334   0.68453   0.21026   0.00000  Uiso   1.00
O461   O     0.83333   0.81547   0.28974   0.00000  Uiso   1.00
O462   O     0.75725   0.75000   0.28044   0.00000  Uiso   1.00
O463   O     0.90942   0.75000   0.21955   0.00000  Uiso   1.00
O464   O     0.75725   0.74999   0.20096   0.00000  Uiso   1.00
O465   O     0.90942   0.75000   0.29903   0.00000  Uiso   1.00
O466   O     0.68471   0.67877   0.18464   0.00000  Uiso   1.00
Zn467  Zn    0.83333   0.75000   0.30307   0.00000  Uiso   1.00
Zn468  Zn    0.83333   0.74999   0.19693   0.00000  Uiso   1.00
C469   C     0.16694   0.16403   0.74976   0.00000  Uiso   1.00
C470   C     0.12254   0.23913   0.94331   0.00000  Uiso   1.00
C471   C     0.16980   0.24999   0.52726   0.00000  Uiso   1.00
C472   C     0.16837   0.25001   0.97372   0.00000  Uiso   1.00
C473   C     0.06751   0.24973   0.73796   0.00000  Uiso   1.00
C474   C     0.26603   0.25073   0.76165   0.00000  Uiso   1.00
C475   C     0.01347   0.24338   0.73180   0.00000  Uiso   1.00
C476   C     0.31957   0.26061   0.76504   0.00000  Uiso   1.00
C477   C     0.12853   0.04637   0.76857   0.00000  Uiso   1.00
C478   C     0.12825   0.45274   0.72327   0.00000  Uiso   1.00
C479   C     0.12646   0.09245   0.76704   0.00000  Uiso   1.00
C480   C     0.16695   0.33590   0.75028   0.00000  Uiso   1.00
C481   C     0.12627   0.40657   0.72376   0.00000  Uiso   1.00
C482   C     0.16665   0.11594   0.74859   0.00000  Uiso   1.00
C483   C     0.16677   0.38386   0.75132   0.00000  Uiso   1.00
C484   C     0.20690   0.09332   0.72933   0.00000  Uiso   1.00
C485   C     0.20723   0.40709   0.78001   0.00000  Uiso   1.00
C486   C     0.20521   0.04651   0.72673   0.00000  Uiso   1.00
C487   C     0.20523   0.45381   0.78281   0.00000  Uiso   1.00
C488   C     0.16737   0.02387   0.74903   0.00000  Uiso   1.00
C489   C     0.16723   0.47585   0.75197   0.00000  Uiso   1.00
C490   C     0.32666   0.21190   0.69230   0.00000  Uiso   1.00
C491   C     0.14674   0.21461   0.54997   0.00000  Uiso   1.00
C492   C     0.00622   0.29501   0.80133   0.00000  Uiso   1.00
C493   C     0.08142   0.11535   0.78346   0.00000  Uiso   1.00
C494   C     0.08134   0.38282   0.69615   0.00000  Uiso   1.00
C495   C     0.25239   0.11843   0.71569   0.00000  Uiso   1.00
C496   C     0.25332   0.38283   0.80347   0.00000  Uiso   1.00
C497   C     0.24092   0.02084   0.69971   0.00000  Uiso   1.00
C498   C     0.24082   0.47998   0.81845   0.00000  Uiso   1.00
C499   C     0.22445   0.31492   0.63590   0.00000  Uiso   1.00
C500   C     0.07982   0.21534   0.86554   0.00000  Uiso   1.00
C501   C     0.21500   0.32378   0.53569   0.00000  Uiso   1.00
C502   C     0.21304   0.26053   0.95224   0.00000  Uiso   1.00
C503   C     0.07361   0.23238   0.96212   0.00000  Uiso   1.00
C504   C     0.14418   0.21589   0.59895   0.00000  Uiso   1.00
C505   C     0.21087   0.26193   0.90260   0.00000  Uiso   1.00
C506   C     0.19327   0.28305   0.60607   0.00000  Uiso   1.00
C507   C     0.12365   0.23631   0.89379   0.00000  Uiso   1.00
C508   C     0.19306   0.28502   0.55633   0.00000  Uiso   1.00
H509   H     0.09905   0.02748   0.78394   0.00000  Uiso   1.00
H510   H     0.07567   0.34722   0.69981   0.00000  Uiso   1.00
H511   H     0.24731   0.14987   0.69746   0.00000  Uiso   1.00
H512   H     0.24918   0.35033   0.81889   0.00000  Uiso   1.00
H513   H     0.25104   0.48677   0.70902   0.00000  Uiso   1.00
H514   H     0.25098   0.01430   0.81177   0.00000  Uiso   1.00
H515   H     0.09880   0.47121   0.70114   0.00000  Uiso   1.00
H516   H     0.13015   0.18604   0.52981   0.00000  Uiso   1.00
H517   H     0.24973   0.26787   0.97369   0.00000  Uiso   1.00
H518   H     0.12515   0.18895   0.61533   0.00000  Uiso   1.00
H519   H     0.24532   0.27151   0.88726   0.00000  Uiso   1.00
H520   H     0.29182   0.21845   0.66824   0.00000  Uiso   1.00
H521   H     0.32407   0.29625   0.83493   0.00000  Uiso   1.00
H522   H     0.07336   0.14977   0.77415   0.00000  Uiso   1.00
N523   N     0.16667   0.24999   0.62623   0.00000  Uiso   1.00
N524   N     0.16667   0.25001   0.87376   0.00000  Uiso   1.00
N525   N     0.24996   0.34050   0.65933   0.00000  Uiso   1.00
N526   N     0.04402   0.19797   0.84435   0.00000  Uiso   1.00
N527   N     0.23249   0.35479   0.51931   0.00000  Uiso   1.00
N528   N     0.03452   0.22709   0.97699   0.00000  Uiso   1.00
O529   O     0.16667   0.18453   0.78974   0.00000  Uiso   1.00
O530   O     0.03775   0.32353   0.79309   0.00000  Uiso   1.00
O531   O     0.05231   0.09583   0.80707   0.00000  Uiso   1.00
O532   O     0.04942   0.40295   0.66920   0.00000  Uiso   1.00
O533   O     0.29644   0.10451   0.72598   0.00000  Uiso   1.00
O534   O     0.29705   0.39863   0.80442   0.00000  Uiso   1.00
O535   O     0.25758   0.03679   0.66524   0.00000  Uiso   1.00
O536   O     0.25727   0.46413   0.85677   0.00000  Uiso   1.00
O537   O     0.16666   0.31546   0.71026   0.00000  Uiso   1.00
O538   O     0.16667   0.18453   0.71026   0.00000  Uiso   1.00
O539   O     0.16666   0.31547   0.78974   0.00000  Uiso   1.00
O540   O     0.09058   0.25000   0.78044   0.00000  Uiso   1.00
O541   O     0.24275   0.25000   0.71955   0.00000  Uiso   1.00
O542   O     0.09058   0.24999   0.70096   0.00000  Uiso   1.00
O543   O     0.24275   0.25000   0.79903   0.00000  Uiso   1.00
O544   O     0.01804   0.17877   0.68464   0.00000  Uiso   1.00
Zn545  Zn    0.16667   0.25000   0.80307   0.00000  Uiso   1.00
Zn546  Zn    0.16667   0.24999   0.69693   0.00000  Uiso   1.00
C547   C     0.50028   0.16403   0.74976   0.00000  Uiso   1.00
C548   C     0.45587   0.23913   0.94331   0.00000  Uiso   1.00
C549   C     0.50313   0.24999   0.52726   0.00000  Uiso   1.00
C550   C     0.50171   0.25001   0.97372   0.00000  Uiso   1.00
C551   C     0.40084   0.24973   0.73796   0.00000  Uiso   1.00
C552   C     0.59936   0.25073   0.76165   0.00000  Uiso   1.00
C553   C     0.34680   0.24338   0.73180   0.00000  Uiso   1.00
C554   C     0.65290   0.26061   0.76504   0.00000  Uiso   1.00
C555   C     0.46186   0.04637   0.76857   0.00000  Uiso   1.00
C556   C     0.46158   0.45274   0.72327   0.00000  Uiso   1.00
C557   C     0.45979   0.09245   0.76704   0.00000  Uiso   1.00
C558   C     0.50028   0.33590   0.75028   0.00000  Uiso   1.00
C559   C     0.45961   0.40657   0.72376   0.00000  Uiso   1.00
C560   C     0.49998   0.11594   0.74859   0.00000  Uiso   1.00
C561   C     0.50010   0.38386   0.75132   0.00000  Uiso   1.00
C562   C     0.54024   0.09332   0.72933   0.00000  Uiso   1.00
C563   C     0.54056   0.40709   0.78001   0.00000  Uiso   1.00
C564   C     0.53854   0.04651   0.72673   0.00000  Uiso   1.00
C565   C     0.53856   0.45381   0.78281   0.00000  Uiso   1.00
C566   C     0.50071   0.02387   0.74903   0.00000  Uiso   1.00
C567   C     0.50056   0.47585   0.75197   0.00000  Uiso   1.00
C568   C     0.65999   0.21190   0.69230   0.00000  Uiso   1.00
C569   C     0.48007   0.21461   0.54997   0.00000  Uiso   1.00
C570   C     0.33956   0.29501   0.80133   0.00000  Uiso   1.00
C571   C     0.41476   0.11535   0.78346   0.00000  Uiso   1.00
C572   C     0.41467   0.38282   0.69615   0.00000  Uiso   1.00
C573   C     0.58572   0.11843   0.71569   0.00000  Uiso   1.00
C574   C     0.58665   0.38283   0.80347   0.00000  Uiso   1.00
C575   C     0.57425   0.02084   0.69971   0.00000  Uiso   1.00
C576   C     0.57415   0.47998   0.81845   0.00000  Uiso   1.00
C577   C     0.55778   0.31492   0.63590   0.00000  Uiso   1.00
C578   C     0.41316   0.21534   0.86554   0.00000  Uiso   1.00
C579   C     0.54834   0.32378   0.53569   0.00000  Uiso   1.00
C580   C     0.54638   0.26053   0.95224   0.00000  Uiso   1.00
C581   C     0.40694   0.23238   0.96212   0.00000  Uiso   1.00
C582   C     0.47752   0.21589   0.59895   0.00000  Uiso   1.00
C583   C     0.54420   0.26193   0.90260   0.00000  Uiso   1.00
C584   C     0.52661   0.28305   0.60607   0.00000  Uiso   1.00
C585   C     0.45698   0.23631   0.89379   0.00000  Uiso   1.00
C586   C     0.52639   0.28502   0.55633   0.00000  Uiso   1.00
H587   H     0.43239   0.02748   0.78394   0.00000  Uiso   1.00
H588   H     0.40900   0.34722   0.69981   0.00000  Uiso   1.00
H589   H     0.58064   0.14987   0.69746   0.00000  Uiso   1.00
H590   H     0.58251   0.35033   0.81889   0.00000  Uiso   1.00
H591   H     0.58437   0.48677   0.70902   0.00000  Uiso   1.00
H592   H     0.58432   0.01430   0.81177   0.00000  Uiso   1.00
H593   H     0.43213   0.47121   0.70114   0.00000  Uiso   1.00
H594   H     0.46349   0.18604   0.52981   0.00000  Uiso   1.00
H595   H     0.58307   0.26787   0.97369   0.00000  Uiso   1.00
H596   H     0.45848   0.18895   0.61533   0.00000  Uiso   1.00
H597   H     0.57865   0.27151   0.88726   0.00000  Uiso   1.00
H598   H     0.62515   0.21845   0.66824   0.00000  Uiso   1.00
H599   H     0.65741   0.29625   0.83493   0.00000  Uiso   1.00
H600   H     0.40670   0.14977   0.77415   0.00000  Uiso   1.00
N601   N     0.50000   0.24999   0.62623   0.00000  Uiso   1.00
N602   N     0.50000   0.25001   0.87376   0.00000  Uiso   1.00
N603   N     0.58329   0.34050   0.65933   0.00000  Uiso   1.00
N604   N     0.37735   0.19797   0.84435   0.00000  Uiso   1.00
N605   N     0.56582   0.35479   0.51931   0.00000  Uiso   1.00
N606   N     0.36785   0.22709   0.97699   0.00000  Uiso   1.00
O607   O     0.50000   0.18453   0.78974   0.00000  Uiso   1.00
O608   O     0.37109   0.32353   0.79309   0.00000  Uiso   1.00
O609   O     0.38564   0.09583   0.80707   0.00000  Uiso   1.00
O610   O     0.38276   0.40295   0.66920   0.00000  Uiso   1.00
O611   O     0.62977   0.10451   0.72598   0.00000  Uiso   1.00
O612   O     0.63039   0.39863   0.80442   0.00000  Uiso   1.00
O613   O     0.59091   0.03679   0.66524   0.00000  Uiso   1.00
O614   O     0.59061   0.46413   0.85677   0.00000  Uiso   1.00
O615   O     0.50000   0.31546   0.71026   0.00000  Uiso   1.00
O616   O     0.50000   0.18453   0.71026   0.00000  Uiso   1.00
O617   O     0.50000   0.31547   0.78974   0.00000  Uiso   1.00
O618   O     0.42392   0.25000   0.78044   0.00000  Uiso   1.00
O619   O     0.57608   0.25000   0.71955   0.00000  Uiso   1.00
O620   O     0.42392   0.24999   0.70096   0.00000  Uiso   1.00
O621   O     0.57608   0.25000   0.79903   0.00000  Uiso   1.00
O622   O     0.35138   0.17877   0.68464   0.00000  Uiso   1.00
Zn623  Zn    0.50000   0.25000   0.80307   0.00000  Uiso   1.00
Zn624  Zn    0.50000   0.24999   0.69693   0.00000  Uiso   1.00
C625   C     0.83361   0.16403   0.74976   0.00000  Uiso   1.00
C626   C     0.78920   0.23913   0.94331   0.00000  Uiso   1.00
C627   C     0.83646   0.24999   0.52726   0.00000  Uiso   1.00
C628   C     0.83504   0.25001   0.97372   0.00000  Uiso   1.00
C629   C     0.73417   0.24973   0.73796   0.00000  Uiso   1.00
C630   C     0.93270   0.25073   0.76165   0.00000  Uiso   1.00
C631   C     0.68013   0.24338   0.73180   0.00000  Uiso   1.00
C632   C     0.98623   0.26061   0.76504   0.00000  Uiso   1.00
C633   C     0.79520   0.04637   0.76857   0.00000  Uiso   1.00
C634   C     0.79491   0.45274   0.72327   0.00000  Uiso   1.00
C635   C     0.79313   0.09245   0.76704   0.00000  Uiso   1.00
C636   C     0.83362   0.33590   0.75028   0.00000  Uiso   1.00
C637   C     0.79294   0.40657   0.72376   0.00000  Uiso   1.00
C638   C     0.83331   0.11594   0.74859   0.00000  Uiso   1.00
C639   C     0.83344   0.38386   0.75132   0.00000  Uiso   1.00
C640   C     0.87357   0.09332   0.72933   0.00000  Uiso   1.00
C641   C     0.87389   0.40709   0.78001   0.00000  Uiso   1.00
C642   C     0.87188   0.04651   0.72673   0.00000  Uiso   1.00
C643   C     0.87190   0.45381   0.78281   0.00000  Uiso   1.00
C644   C     0.83404   0.02387   0.74903   0.00000  Uiso   1.00
C645   C     0.83389   0.47585   0.75197   0.00000  Uiso   1.00
C646   C     0.99333   0.21190   0.69230   0.00000  Uiso   1.00
C647   C     0.81340   0.21461   0.54997   0.00000  Uiso   1.00
C648   C     0.67289   0.29501   0.80133   0.00000  Uiso   1.00
C649   C     0.74809   0.11535   0.78346   0.00000  Uiso   1.00
C650   C     0.74800   0.38282   0.69615   0.00000  Uiso   1.00
C651   C     0.91905   0.11843   0.71569   0.00000  Uiso   1.00
C652   C     0.91999   0.38283   0.80347   0.00000  Uiso   1.00
C653   C     0.90758   0.02084   0.69971   0.00000  Uiso   1.00
C654   C     0.90748   0.47998   0.81845   0.00000  Uiso   1.00
C655   C     0.89112   0.31492   0.63590   0.00000  Uiso   1.00
C656   C     0.74649   0.21534   0.86554   0.00000  Uiso   1.00
C657   C     0.88167   0.32378   0.53569   0.00000  Uiso   1.00
C658   C     0.87971   0.26053   0.95224   0.00000  Uiso   1.00
C659   C     0.74027   0.23238   0.96212   0.00000  Uiso   1.00
C660   C     0.81085   0.21589   0.59895   0.00000  Uiso   1.00
C661   C     0.87753   0.26193   0.90260   0.00000  Uiso   1.00
C662   C     0.85994   0.28305   0.60607   0.00000  Uiso   1.00
C663   C     0.79032   0.23631   0.89379   0.00000  Uiso   1.00
C664   C     0.85972   0.28502   0.55633   0.00000  Uiso   1.00
H665   H     0.76572   0.02748   0.78394   0.00000  Uiso   1.00
H666   H     0.74234   0.34722   0.69981   0.00000  Uiso   1.00
H667   H     0.91398   0.14987   0.69746   0.00000  Uiso   1.00
H668   H     0.91584   0.35033   0.81889   0.00000  Uiso   1.00
H669   H     0.91770   0.48677   0.70902   0.00000  Uiso   1.00
H670   H     0.91765   0.01430   0.81177   0.00000  Uiso   1.00
H671   H     0.76546   0.47121   0.70114   0.00000  Uiso   1.00
H672   H     0.79682   0.18604   0.52981   0.00000  Uiso   1.00
H673   H     0.91640   0.26787   0.97369   0.00000  Uiso   1.00
H674   H     0.79181   0.18895   0.61533   0.00000  Uiso   1.00
H675   H     0.91198   0.27151   0.88726   0.00000  Uiso   1.00
H676   H     0.95848   0.21845   0.66824   0.00000  Uiso   1.00
H677   H     0.99074   0.29625   0.83493   0.00000  Uiso   1.00
H678   H     0.74003   0.14977   0.77415   0.00000  Uiso   1.00
N679   N     0.83333   0.24999   0.62623   0.00000  Uiso   1.00
N680   N     0.83333   0.25001   0.87376   0.00000  Uiso   1.00
N681   N     0.91662   0.34050   0.65933   0.00000  Uiso   1.00
N682   N     0.71069   0.19797   0.84435   0.00000  Uiso   1.00
N683   N     0.89916   0.35479   0.51931   0.00000  Uiso   1.00
N684   N     0.70118   0.22709   0.97699   0.00000  Uiso   1.00
O685   O     0.83334   0.18453   0.78974   0.00000  Uiso   1.00
O686   O     0.70442   0.32353   0.79309   0.00000  Uiso   1.00
O687   O     0.71897   0.09583   0.80707   0.00000  Uiso   1.00
O688   O     0.71609   0.40295   0.66920   0.00000  Uiso   1.00
O689   O     0.96311   0.10451   0.72598   0.00000  Uiso   1.00
O690   O     0.96372   0.39863   0.80442   0.00000  Uiso   1.00
O691   O     0.92425   0.03679   0.66524   0.00000  Uiso   1.00
O692   O     0.92394   0.46413   0.85677   0.00000  Uiso   1.00
O693   O     0.83333   0.31546   0.71026   0.00000  Uiso   1.00
O694   O     0.83334   0.18453   0.71026   0.00000  Uiso   1.00
O695   O     0.83333   0.31547   0.78974   0.00000  Uiso   1.00
O696   O     0.75725   0.25000   0.78044   0.00000  Uiso   1.00
O697   O     0.90942   0.25000   0.71955   0.00000  Uiso   1.00
O698   O     0.75725   0.24999   0.70096   0.00000  Uiso   1.00
O699   O     0.90942   0.25000   0.79903   0.00000  Uiso   1.00
O700   O     0.68471   0.17877   0.68464   0.00000  Uiso   1.00
Zn701  Zn    0.83333   0.25000   0.80307   0.00000  Uiso   1.00
Zn702  Zn    0.83333   0.24999   0.69693   0.00000  Uiso   1.00
C703   C     0.16694   0.66403   0.74976   0.00000  Uiso   1.00
C704   C     0.12254   0.73913   0.94331   0.00000  Uiso   1.00
C705   C     0.16980   0.74999   0.52726   0.00000  Uiso   1.00
C706   C     0.16837   0.75001   0.97372   0.00000  Uiso   1.00
C707   C     0.06751   0.74973   0.73796   0.00000  Uiso   1.00
C708   C     0.26603   0.75073   0.76165   0.00000  Uiso   1.00
C709   C     0.01347   0.74338   0.73180   0.00000  Uiso   1.00
C710   C     0.31957   0.76061   0.76504   0.00000  Uiso   1.00
C711   C     0.12853   0.54637   0.76857   0.00000  Uiso   1.00
C712   C     0.12825   0.95274   0.72327   0.00000  Uiso   1.00
C713   C     0.12646   0.59245   0.76704   0.00000  Uiso   1.00
C714   C     0.16695   0.83590   0.75028   0.00000  Uiso   1.00
C715   C     0.12627   0.90657   0.72376   0.00000  Uiso   1.00
C716   C     0.16665   0.61594   0.74859   0.00000  Uiso   1.00
C717   C     0.16677   0.88386   0.75132   0.00000  Uiso   1.00
C718   C     0.20690   0.59332   0.72933   0.00000  Uiso   1.00
C719   C     0.20723   0.90709   0.78001   0.00000  Uiso   1.00
C720   C     0.20521   0.54651   0.72673   0.00000  Uiso   1.00
C721   C     0.20523   0.95381   0.78281   0.00000  Uiso   1.00
C722   C     0.16737   0.52387   0.74903   0.00000  Uiso   1.00
C723   C     0.16723   0.97585   0.75197   0.00000  Uiso   1.00
C724   C     0.32666   0.71190   0.69230   0.00000  Uiso   1.00
C725   C     0.14674   0.71461   0.54997   0.00000  Uiso   1.00
C726   C     0.00622   0.79501   0.80133   0.00000  Uiso   1.00
C727   C     0.08142   0.61535   0.78346   0.00000  Uiso   1.00
C728   C     0.08134   0.88282   0.69615   0.00000  Uiso   1.00
C729   C     0.25239   0.61843   0.71569   0.00000  Uiso   1.00
C730   C     0.25332   0.88283   0.80347   0.00000  Uiso   1.00
C731   C     0.24092   0.52084   0.69971   0.00000  Uiso   1.00
C732   C     0.24082   0.97998   0.81845   0.00000  Uiso   1.00
C733   C     0.22445   0.81492   0.63590   0.00000  Uiso   1.00
C734   C     0.07982   0.71534   0.86554   0.00000  Uiso   1.00
C735   C     0.21500   0.82378   0.53569   0.00000  Uiso   1.00
C736   C     0.21304   0.76053   0.95224   0.00000  Uiso   1.00
C737   C     0.07361   0.73238   0.96212   0.00000  Uiso   1.00
C738   C     0.14418   0.71589   0.59895   0.00000  Uiso   1.00
C739   C     0.21087   0.76193   0.90260   0.00000  Uiso   1.00
C740   C     0.19327   0.78305   0.60607   0.00000  Uiso   1.00
C741   C     0.12365   0.73631   0.89379   0.00000  Uiso   1.00
C742   C     0.19306   0.78502   0.55633   0.00000  Uiso   1.00
H743   H     0.09905   0.52748   0.78394   0.00000  Uiso   1.00
H744   H     0.07567   0.84722   0.69981   0.00000  Uiso   1.00
H745   H     0.24731   0.64987   0.69746   0.00000  Uiso   1.00
H746   H     0.24918   0.85033   0.81889   0.00000  Uiso   1.00
H747   H     0.25104   0.98677   0.70902   0.00000  Uiso   1.00
H748   H     0.25098   0.51430   0.81177   0.00000  Uiso   1.00
H749   H     0.09880   0.97121   0.70114   0.00000  Uiso   1.00
H750   H     0.13015   0.68604   0.52981   0.00000  Uiso   1.00
H751   H     0.24973   0.76787   0.97369   0.00000  Uiso   1.00
H752   H     0.12515   0.68895   0.61533   0.00000  Uiso   1.00
H753   H     0.24532   0.77151   0.88726   0.00000  Uiso   1.00
H754   H     0.29182   0.71845   0.66824   0.00000  Uiso   1.00
H755   H     0.32407   0.79625   0.83493   0.00000  Uiso   1.00
H756   H     0.07336   0.64977   0.77415   0.00000  Uiso   1.00
N757   N     0.16667   0.74999   0.62623   0.00000  Uiso   1.00
N758   N     0.16667   0.75001   0.87376   0.00000  Uiso   1.00
N759   N     0.24996   0.84050   0.65933   0.00000  Uiso   1.00
N760   N     0.04402   0.69797   0.84435   0.00000  Uiso   1.00
N761   N     0.23249   0.85479   0.51931   0.00000  Uiso   1.00
N762   N     0.03452   0.72709   0.97699   0.00000  Uiso   1.00
O763   O     0.16667   0.68453   0.78974   0.00000  Uiso   1.00
O764   O     0.03775   0.82353   0.79309   0.00000  Uiso   1.00
O765   O     0.05231   0.59583   0.80707   0.00000  Uiso   1.00
O766   O     0.04942   0.90295   0.66920   0.00000  Uiso   1.00
O767   O     0.29644   0.60451   0.72598   0.00000  Uiso   1.00
O768   O     0.29705   0.89863   0.80442   0.00000  Uiso   1.00
O769   O     0.25758   0.53679   0.66524   0.00000  Uiso   1.00
O770   O     0.25727   0.96413   0.85677   0.00000  Uiso   1.00
O771   O     0.16666   0.81546   0.71026   0.00000  Uiso   1.00
O772   O     0.16667   0.68453   0.71026   0.00000  Uiso   1.00
O773   O     0.16666   0.81547   0.78974   0.00000  Uiso   1.00
O774   O     0.09058   0.75000   0.78044   0.00000  Uiso   1.00
O775   O     0.24275   0.75000   0.71955   0.00000  Uiso   1.00
O776   O     0.09058   0.74999   0.70096   0.00000  Uiso   1.00
O777   O     0.24275   0.75000   0.79903   0.00000  Uiso   1.00
O778   O     0.01804   0.67877   0.68464   0.00000  Uiso   1.00
Zn779  Zn    0.16667   0.75000   0.80307   0.00000  Uiso   1.00
Zn780  Zn    0.16667   0.74999   0.69693   0.00000  Uiso   1.00
C781   C     0.50028   0.66403   0.74976   0.00000  Uiso   1.00
C782   C     0.45587   0.73913   0.94331   0.00000  Uiso   1.00
C783   C     0.50313   0.74999   0.52726   0.00000  Uiso   1.00
C784   C     0.50171   0.75001   0.97372   0.00000  Uiso   1.00
C785   C     0.40084   0.74973   0.73796   0.00000  Uiso   1.00
C786   C     0.59936   0.75073   0.76165   0.00000  Uiso   1.00
C787   C     0.34680   0.74338   0.73180   0.00000  Uiso   1.00
C788   C     0.65290   0.76061   0.76504   0.00000  Uiso   1.00
C789   C     0.46186   0.54637   0.76857   0.00000  Uiso   1.00
C790   C     0.46158   0.95274   0.72327   0.00000  Uiso   1.00
C791   C     0.45979   0.59245   0.76704   0.00000  Uiso   1.00
C792   C     0.50028   0.83590   0.75028   0.00000  Uiso   1.00
C793   C     0.45961   0.90657   0.72376   0.00000  Uiso   1.00
C794   C     0.49998   0.61594   0.74859   0.00000  Uiso   1.00
C795   C     0.50010   0.88386   0.75132   0.00000  Uiso   1.00
C796   C     0.54024   0.59332   0.72933   0.00000  Uiso   1.00
C797   C     0.54056   0.90709   0.78001   0.00000  Uiso   1.00
C798   C     0.53854   0.54651   0.72673   0.00000  Uiso   1.00
C799   C     0.53856   0.95381   0.78281   0.00000  Uiso   1.00
C800   C     0.50071   0.52387   0.74903   0.00000  Uiso   1.00
C801   C     0.50056   0.97585   0.75197   0.00000  Uiso   1.00
C802   C     0.65999   0.71190   0.69230   0.00000  Uiso   1.00
C803   C     0.48007   0.71461   0.54997   0.00000  Uiso   1.00
C804   C     0.33956   0.79501   0.80133   0.00000  Uiso   1.00
C805   C     0.41476   0.61535   0.78346   0.00000  Uiso   1.00
C806   C     0.41467   0.88282   0.69615   0.00000  Uiso   1.00
C807   C     0.58572   0.61843   0.71569   0.00000  Uiso   1.00
C808   C     0.58665   0.88283   0.80347   0.00000  Uiso   1.00
C809   C     0.57425   0.52084   0.69971   0.00000  Uiso   1.00
C810   C     0.57415   0.97998   0.81845   0.00000  Uiso   1.00
C811   C     0.55778   0.81492   0.63590   0.00000  Uiso   1.00
C812   C     0.41316   0.71534   0.86554   0.00000  Uiso   1.00
C813   C     0.54834   0.82378   0.53569   0.00000  Uiso   1.00
C814   C     0.54638   0.76053   0.95224   0.00000  Uiso   1.00
C815   C     0.40694   0.73238   0.96212   0.00000  Uiso   1.00
C816   C     0.47752   0.71589   0.59895   0.00000  Uiso   1.00
C817   C     0.54420   0.76193   0.90260   0.00000  Uiso   1.00
C818   C     0.52661   0.78305   0.60607   0.00000  Uiso   1.00
C819   C     0.45698   0.73631   0.89379   0.00000  Uiso   1.00
C820   C     0.52639   0.78502   0.55633   0.00000  Uiso   1.00
H821   H     0.43239   0.52748   0.78394   0.00000  Uiso   1.00
H822   H     0.40900   0.84722   0.69981   0.00000  Uiso   1.00
H823   H     0.58064   0.64987   0.69746   0.00000  Uiso   1.00
H824   H     0.58251   0.85033   0.81889   0.00000  Uiso   1.00
H825   H     0.58437   0.98677   0.70902   0.00000  Uiso   1.00
H826   H     0.58432   0.51430   0.81177   0.00000  Uiso   1.00
H827   H     0.43213   0.97121   0.70114   0.00000  Uiso   1.00
H828   H     0.46349   0.68604   0.52981   0.00000  Uiso   1.00
H829   H     0.58307   0.76787   0.97369   0.00000  Uiso   1.00
H830   H     0.45848   0.68895   0.61533   0.00000  Uiso   1.00
H831   H     0.57865   0.77151   0.88726   0.00000  Uiso   1.00
H832   H     0.62515   0.71845   0.66824   0.00000  Uiso   1.00
H833   H     0.65741   0.79625   0.83493   0.00000  Uiso   1.00
H834   H     0.40670   0.64977   0.77415   0.00000  Uiso   1.00
N835   N     0.50000   0.74999   0.62623   0.00000  Uiso   1.00
N836   N     0.50000   0.75001   0.87376   0.00000  Uiso   1.00
N837   N     0.58329   0.84050   0.65933   0.00000  Uiso   1.00
N838   N     0.37735   0.69797   0.84435   0.00000  Uiso   1.00
N839   N     0.56582   0.85479   0.51931   0.00000  Uiso   1.00
N840   N     0.36785   0.72709   0.97699   0.00000  Uiso   1.00
O841   O     0.50000   0.68453   0.78974   0.00000  Uiso   1.00
O842   O     0.37109   0.82353   0.79309   0.00000  Uiso   1.00
O843   O     0.38564   0.59583   0.80707   0.00000  Uiso   1.00
O844   O     0.38276   0.90295   0.66920   0.00000  Uiso   1.00
O845   O     0.62977   0.60451   0.72598   0.00000  Uiso   1.00
O846   O     0.63039   0.89863   0.80442   0.00000  Uiso   1.00
O847   O     0.59091   0.53679   0.66524   0.00000  Uiso   1.00
O848   O     0.59061   0.96413   0.85677   0.00000  Uiso   1.00
O849   O     0.50000   0.81546   0.71026   0.00000  Uiso   1.00
O850   O     0.50000   0.68453   0.71026   0.00000  Uiso   1.00
O851   O     0.50000   0.81547   0.78974   0.00000  Uiso   1.00
O852   O     0.42392   0.75000   0.78044   0.00000  Uiso   1.00
O853   O     0.57608   0.75000   0.71955   0.00000  Uiso   1.00
O854   O     0.42392   0.74999   0.70096   0.00000  Uiso   1.00
O855   O     0.57608   0.75000   0.79903   0.00000  Uiso   1.00
O856   O     0.35138   0.67877   0.68464   0.00000  Uiso   1.00
Zn857  Zn    0.50000   0.75000   0.80307   0.00000  Uiso   1.00
Zn858  Zn    0.50000   0.74999   0.69693   0.00000  Uiso   1.00
C859   C     0.83361   0.66403   0.74976   0.00000  Uiso   1.00
C860   C     0.78920   0.73913   0.94331   0.00000  Uiso   1.00
C861   C     0.83646   0.74999   0.52726   0.00000  Uiso   1.00
C862   C     0.83504   0.75001   0.97372   0.00000  Uiso   1.00
C863   C     0.73417   0.74973   0.73796   0.00000  Uiso   1.00
C864   C     0.93270   0.75073   0.76165   0.00000  Uiso   1.00
C865   C     0.68013   0.74338   0.73180   0.00000  Uiso   1.00
C866   C     0.98623   0.76061   0.76504   0.00000  Uiso   1.00
C867   C     0.79520   0.54637   0.76857   0.00000  Uiso   1.00
C868   C     0.79491   0.95274   0.72327   0.00000  Uiso   1.00
C869   C     0.79313   0.59245   0.76704   0.00000  Uiso   1.00
C870   C     0.83362   0.83590   0.75028   0.00000  Uiso   1.00
C871   C     0.79294   0.90657   0.72376   0.00000  Uiso   1.00
C872   C     0.83331   0.61594   0.74859   0.00000  Uiso   1.00
C873   C     0.83344   0.88386   0.75132   0.00000  Uiso   1.00
C874   C     0.87357   0.59332   0.72933   0.00000  Uiso   1.00
C875   C     0.87389   0.90709   0.78001   0.00000  Uiso   1.00
C876   C     0.87188   0.54651   0.72673   0.00000  Uiso   1.00
C877   C     0.87190   0.95381   0.78281   0.00000  Uiso   1.00
C878   C     0.83404   0.52387   0.74903   0.00000  Uiso   1.00
C879   C     0.83389   0.97585   0.75197   0.00000  Uiso   1.00
C880   C     0.99333   0.71190   0.69230   0.00000  Uiso   1.00
C881   C     0.81340   0.71461   0.54997   0.00000  Uiso   1.00
C882   C     0.67289   0.79501   0.80133   0.00000  Uiso   1.00
C883   C     0.74809   0.61535   0.78346   0.00000  Uiso   1.00
C884   C     0.74800   0.88282   0.69615   0.00000  Uiso   1.00
C885   C     0.91905   0.61843   0.71569   0.00000  Uiso   1.00
C886   C     0.91999   0.88283   0.80347   0.00000  Uiso   1.00
C887   C     0.90758   0.52084   0.69971   0.00000  Uiso   1.00
C888   C     0.90748   0.97998   0.81845   0.00000  Uiso   1.00
C889   C     0.89112   0.81492   0.63590   0.00000  Uiso   1.00
C890   C     0.74649   0.71534   0.86554   0.00000  Uiso   1.00
C891   C     0.88167   0.82378   0.53569   0.00000  Uiso   1.00
C892   C     0.87971   0.76053   0.95224   0.00000  Uiso   1.00
C893   C     0.74027   0.73238   0.96212   0.00000  Uiso   1.00
C894   C     0.81085   0.71589   0.59895   0.00000  Uiso   1.00
C895   C     0.87753   0.76193   0.90260   0.00000  Uiso   1.00
C896   C     0.85994   0.78305   0.60607   0.00000  Uiso   1.00
C897   C     0.79032   0.73631   0.89379   0.00000  Uiso   1.00
C898   C     0.85972   0.78502   0.55633   0.00000  Uiso   1.00
H899   H     0.76572   0.52748   0.78394   0.00000  Uiso   1.00
H900   H     0.74234   0.84722   0.69981   0.00000  Uiso   1.00
H901   H     0.91398   0.64987   0.69746   0.00000  Uiso   1.00
H902   H     0.91584   0.85033   0.81889   0.00000  Uiso   1.00
H903   H     0.91770   0.98677   0.70902   0.00000  Uiso   1.00
H904   H     0.91765   0.51430   0.81177   0.00000  Uiso   1.00
H905   H     0.76546   0.97121   0.70114   0.00000  Uiso   1.00
H906   H     0.79682   0.68604   0.52981   0.00000  Uiso   1.00
H907   H     0.91640   0.76787   0.97369   0.00000  Uiso   1.00
H908   H     0.79181   0.68895   0.61533   0.00000  Uiso   1.00
H909   H     0.91198   0.77151   0.88726   0.00000  Uiso   1.00
H910   H     0.95848   0.71845   0.66824   0.00000  Uiso   1.00
H911   H     0.99074   0.79625   0.83493   0.00000  Uiso   1.00
H912   H     0.74003   0.64977   0.77415   0.00000  Uiso   1.00
N913   N     0.83333   0.74999   0.62623   0.00000  Uiso   1.00
N914   N     0.83333   0.75001   0.87376   0.00000  Uiso   1.00
N915   N     0.91662   0.84050   0.65933   0.00000  Uiso   1.00
N916   N     0.71069   0.69797   0.84435   0.00000  Uiso   1.00
N917   N     0.89916   0.85479   0.51931   0.00000  Uiso   1.00
N918   N     0.70118   0.72709   0.97699   0.00000  Uiso   1.00
O919   O     0.83334   0.68453   0.78974   0.00000  Uiso   1.00
O920   O     0.70442   0.82353   0.79309   0.00000  Uiso   1.00
O921   O     0.71897   0.59583   0.80707   0.00000  Uiso   1.00
O922   O     0.71609   0.90295   0.66920   0.00000  Uiso   1.00
O923   O     0.96311   0.60451   0.72598   0.00000  Uiso   1.00
O924   O     0.96372   0.89863   0.80442   0.00000  Uiso   1.00
O925   O     0.92425   0.53679   0.66524   0.00000  Uiso   1.00
O926   O     0.92394   0.96413   0.85677   0.00000  Uiso   1.00
O927   O     0.83333   0.81546   0.71026   0.00000  Uiso   1.00
O928   O     0.83334   0.68453   0.71026   0.00000  Uiso   1.00
O929   O     0.83333   0.81547   0.78974   0.00000  Uiso   1.00
O930   O     0.75725   0.75000   0.78044   0.00000  Uiso   1.00
O931   O     0.90942   0.75000   0.71955   0.00000  Uiso   1.00
O932   O     0.75725   0.74999   0.70096   0.00000  Uiso   1.00
O933   O     0.90942   0.75000   0.79903   0.00000  Uiso   1.00
O934   O     0.68471   0.67877   0.68464   0.00000  Uiso   1.00
Zn935  Zn    0.83333   0.75000   0.80307   0.00000  Uiso   1.00
Zn936  Zn    0.83333   0.74999   0.69693   0.00000  Uiso   1.00
loop_
_geom_bond_atom_site_label_1
_geom_bond_atom_site_label_2
_geom_bond_distance
_geom_bond_site_symmetry_2
_ccdc_geom_bond_type
C1     O61     1.292   .     A
C1     O70     1.285   .     A
C1     C14     1.443   .     S
C2     C35     1.452   .     S
C2     C39     1.417   .     A
C2     C4      1.412   .     A
C3     C23     1.413   .     A
C3     C40     1.414   .     A
C3     C472    1.521   1_554 S
C4     C34     1.412   .     A
C4     C471    1.521   .     S
C5     O72     1.279   .     A
C5     O74     1.277   .     A
C5     C7      1.400   .     S
C6     O75     1.290   .     A
C6     C8      1.407   .     S
C6     O73     1.271   .     A
C7     C164    1.355   1_455 S
C7     C178    1.502   1_455 S
C8     C85     1.355   .     S
C8     C102    1.496   .     S
C9     C11     1.385   .     A
C9     C20     1.391   .     A
C9     H41     1.085   .     S
C10    C21     1.391   .     A
C10    C13     1.385   .     A
C10    H47     1.085   .     S
C11    C14     1.410   .     A
C11    C25     1.486   .     S
C12    O69     1.290   .     A
C12    C15     1.438   .     S
C12    O71     1.285   .     A
C13    C15     1.412   .     A
C13    C26     1.491   .     S
C14    C16     1.417   .     A
C15    C17     1.418   .     A
C16    C27     1.487   .     S
C16    C18     1.405   .     A
C17    C19     1.405   .     A
C17    C28     1.491   .     S
C18    C29     1.495   .     S
C18    C20     1.407   .     A
C19    C21     1.406   .     A
C19    C30     1.494   .     S
C20    C255    1.443   1_545 S
C21    C254    1.443   .     S
C22    H52     1.082   .     S
C22    C85     1.502   .     S
C22    O154    1.222   .     S
C23    H48     1.082   .     S
C23    C36     1.406   .     A
C24    O62     1.222   .     D
C24    C164    1.496   1_455 S
C24    H209    1.085   1_455 S
C25    O63     1.222   .     D
C25    H54     1.083   .     S
C26    O64     1.221   .     D
C26    H42     1.084   .     S
C27    O65     1.221   .     D
C27    H43     1.080   .     S
C28    H44     1.082   .     S
C28    O66     1.221   .     D
C29    O67     1.221   .     D
C29    H279    1.084   1_545 S
C30    O68     1.221   .     D
C30    H280    1.084   .     S
C31    C38     1.444   .     S
C31    N57     1.158   .     T
C32    N58     1.157   .     T
C32    C39     1.441   .     S
C33    N59     1.157   .     T
C33    C40     1.450   .     S
C34    C37     1.409   .     A
C34    H49     1.082   .     S
C35    N60     1.158   .     T
C36    H50     1.082   .     S
C36    N55     1.360   .     A
C37    H51     1.081   .     S
C37    N56     1.364   .     A
C38    N55     1.373   .     A
C38    C40     1.419   .     A
C39    N56     1.377   .     A
H45    C263    1.084   .     S
H46    C264    1.084   1_545 S
H53    C102    1.085   .     S
N55    Zn78    2.014   .     S
N56    Zn77    2.014   .     S
O61    Zn77    1.998   .     S
O69    Zn78    1.998   .     S
O70    Zn78    2.002   .     S
O71    Zn77    2.002   .     S
O72    Zn77    1.995   .     S
O73    Zn78    1.995   .     S
O74    Zn78    1.991   .     S
O75    Zn77    1.991   .     S
O76    C178    1.222   1_455 S
C79    O139    1.292   .     A
C79    O148    1.285   .     A
C79    C92     1.443   .     S
C80    C113    1.452   .     S
C80    C117    1.417   .     A
C80    C82     1.412   .     A
C81    C101    1.413   .     A
C81    C118    1.414   .     A
C81    C550    1.521   1_554 S
C82    C112    1.412   .     A
C82    C549    1.521   .     S
C83    O150    1.279   .     A
C83    O152    1.277   .     A
C83    C85     1.400   .     S
C84    O153    1.290   .     A
C84    C86     1.407   .     S
C84    O151    1.271   .     A
C86    C163    1.355   .     S
C86    C180    1.496   .     S
C87    C89     1.385   .     A
C87    C98     1.391   .     A
C87    H119    1.085   .     S
C88    C99     1.391   .     A
C88    C91     1.385   .     A
C88    H125    1.085   .     S
C89    C92     1.410   .     A
C89    C103    1.486   .     S
C90    O147    1.290   .     A
C90    C93     1.438   .     S
C90    O149    1.285   .     A
C91    C93     1.412   .     A
C91    C104    1.491   .     S
C92    C94     1.417   .     A
C93    C95     1.418   .     A
C94    C105    1.487   .     S
C94    C96     1.405   .     A
C95    C97     1.405   .     A
C95    C106    1.491   .     S
C96    C107    1.495   .     S
C96    C98     1.407   .     A
C97    C99     1.406   .     A
C97    C108    1.494   .     S
C98    C333    1.443   1_545 S
C99    C332    1.443   .     S
C100   H130    1.082   .     S
C100   C163    1.502   .     S
C100   O232    1.222   .     S
C101   H126    1.082   .     S
C101   C114    1.406   .     A
C102   O140    1.222   .     D
C103   O141    1.222   .     D
C103   H132    1.083   .     S
C104   O142    1.221   .     D
C104   H120    1.084   .     S
C105   O143    1.221   .     D
C105   H121    1.080   .     S
C106   H122    1.082   .     S
C106   O144    1.221   .     D
C107   O145    1.221   .     D
C107   H357    1.084   1_545 S
C108   O146    1.221   .     D
C108   H358    1.084   .     S
C109   C116    1.444   .     S
C109   N135    1.158   .     T
C110   N136    1.157   .     T
C110   C117    1.441   .     S
C111   N137    1.157   .     T
C111   C118    1.450   .     S
C112   C115    1.409   .     A
C112   H127    1.082   .     S
C113   N138    1.158   .     T
C114   H128    1.082   .     S
C114   N133    1.360   .     A
C115   H129    1.081   .     S
C115   N134    1.364   .     A
C116   N133    1.373   .     A
C116   C118    1.419   .     A
C117   N134    1.377   .     A
H123   C341    1.084   .     S
H124   C342    1.084   1_545 S
H131   C180    1.085   .     S
N133   Zn156   2.014   .     S
N134   Zn155   2.014   .     S
O139   Zn155   1.998   .     S
O147   Zn156   1.998   .     S
O148   Zn156   2.002   .     S
O149   Zn155   2.002   .     S
O150   Zn155   1.995   .     S
O151   Zn156   1.995   .     S
O152   Zn156   1.991   .     S
O153   Zn155   1.991   .     S
C157   O217    1.292   .     A
C157   O226    1.285   .     A
C157   C170    1.443   .     S
C158   C191    1.452   .     S
C158   C195    1.417   .     A
C158   C160    1.412   .     A
C159   C179    1.413   .     A
C159   C196    1.414   .     A
C159   C628    1.521   1_554 S
C160   C190    1.412   .     A
C160   C627    1.521   .     S
C161   O228    1.279   .     A
C161   O230    1.277   .     A
C161   C163    1.400   .     S
C162   O231    1.290   .     A
C162   C164    1.407   .     S
C162   O229    1.271   .     A
C164   C7      1.355   1_655 S
C164   C24     1.496   1_655 S
C165   C167    1.385   .     A
C165   C176    1.391   .     A
C165   H197    1.085   .     S
C166   C177    1.391   .     A
C166   C169    1.385   .     A
C166   H203    1.085   .     S
C167   C170    1.410   .     A
C167   C181    1.486   .     S
C168   O225    1.290   .     A
C168   C171    1.438   .     S
C168   O227    1.285   .     A
C169   C171    1.412   .     A
C169   C182    1.491   .     S
C170   C172    1.417   .     A
C171   C173    1.418   .     A
C172   C183    1.487   .     S
C172   C174    1.405   .     A
C173   C175    1.405   .     A
C173   C184    1.491   .     S
C174   C185    1.495   .     S
C174   C176    1.407   .     A
C175   C177    1.406   .     A
C175   C186    1.494   .     S
C176   C411    1.443   1_545 S
C177   C410    1.443   .     S
C178   H208    1.082   .     S
C178   C7      1.502   1_655 S
C178   O76     1.222   1_655 S
C179   H204    1.082   .     S
C179   C192    1.406   .     A
C180   O218    1.222   .     D
C181   O219    1.222   .     D
C181   H210    1.083   .     S
C182   O220    1.221   .     D
C182   H198    1.084   .     S
C183   O221    1.221   .     D
C183   H199    1.080   .     S
C184   H200    1.082   .     S
C184   O222    1.221   .     D
C185   O223    1.221   .     D
C185   H435    1.084   1_545 S
C186   O224    1.221   .     D
C186   H436    1.084   .     S
C187   C194    1.444   .     S
C187   N213    1.158   .     T
C188   N214    1.157   .     T
C188   C195    1.441   .     S
C189   N215    1.157   .     T
C189   C196    1.450   .     S
C190   C193    1.409   .     A
C190   H205    1.082   .     S
C191   N216    1.158   .     T
C192   H206    1.082   .     S
C192   N211    1.360   .     A
C193   H207    1.081   .     S
C193   N212    1.364   .     A
C194   N211    1.373   .     A
C194   C196    1.419   .     A
C195   N212    1.377   .     A
H201   C419    1.084   .     S
H202   C420    1.084   1_545 S
H209   C24     1.085   1_655 S
N211   Zn234   2.014   .     S
N212   Zn233   2.014   .     S
O217   Zn233   1.998   .     S
O225   Zn234   1.998   .     S
O226   Zn234   2.002   .     S
O227   Zn233   2.002   .     S
O228   Zn233   1.995   .     S
O229   Zn234   1.995   .     S
O230   Zn234   1.991   .     S
O231   Zn233   1.991   .     S
C235   O295    1.292   .     A
C235   O304    1.285   .     A
C235   C248    1.443   .     S
C236   C269    1.452   .     S
C236   C273    1.417   .     A
C236   C238    1.412   .     A
C237   C257    1.413   .     A
C237   C274    1.414   .     A
C237   C706    1.521   1_554 S
C238   C268    1.412   .     A
C238   C705    1.521   .     S
C239   O306    1.279   .     A
C239   O308    1.277   .     A
C239   C241    1.400   .     S
C240   O309    1.290   .     A
C240   C242    1.407   .     S
C240   O307    1.271   .     A
C241   C398    1.355   1_455 S
C241   C412    1.502   1_455 S
C242   C319    1.355   .     S
C242   C336    1.496   .     S
C243   C245    1.385   .     A
C243   C254    1.391   .     A
C243   H275    1.085   .     S
C244   C255    1.391   .     A
C244   C247    1.385   .     A
C244   H281    1.085   .     S
C245   C248    1.410   .     A
C245   C259    1.486   .     S
C246   O303    1.290   .     A
C246   C249    1.438   .     S
C246   O305    1.285   .     A
C247   C249    1.412   .     A
C247   C260    1.491   .     S
C248   C250    1.417   .     A
C249   C251    1.418   .     A
C250   C261    1.487   .     S
C250   C252    1.405   .     A
C251   C253    1.405   .     A
C251   C262    1.491   .     S
C252   C263    1.495   .     S
C252   C254    1.407   .     A
C253   C255    1.406   .     A
C253   C264    1.494   .     S
C255   C20     1.443   1_565 S
C256   H286    1.082   .     S
C256   C319    1.502   .     S
C256   O388    1.222   .     S
C257   H282    1.082   .     S
C257   C270    1.406   .     A
C258   O296    1.222   .     D
C258   C398    1.496   1_455 S
C258   H443    1.085   1_455 S
C259   O297    1.222   .     D
C259   H288    1.083   .     S
C260   O298    1.221   .     D
C260   H276    1.084   .     S
C261   O299    1.221   .     D
C261   H277    1.080   .     S
C262   H278    1.082   .     S
C262   O300    1.221   .     D
C263   O301    1.221   .     D
C264   O302    1.221   .     D
C264   H46     1.084   1_565 S
C265   C272    1.444   .     S
C265   N291    1.158   .     T
C266   N292    1.157   .     T
C266   C273    1.441   .     S
C267   N293    1.157   .     T
C267   C274    1.450   .     S
C268   C271    1.409   .     A
C268   H283    1.082   .     S
C269   N294    1.158   .     T
C270   H284    1.082   .     S
C270   N289    1.360   .     A
C271   H285    1.081   .     S
C271   N290    1.364   .     A
C272   N289    1.373   .     A
C272   C274    1.419   .     A
C273   N290    1.377   .     A
H279   C29     1.084   1_565 S
H287   C336    1.085   .     S
N289   Zn312   2.014   .     S
N290   Zn311   2.014   .     S
O295   Zn311   1.998   .     S
O303   Zn312   1.998   .     S
O304   Zn312   2.002   .     S
O305   Zn311   2.002   .     S
O306   Zn311   1.995   .     S
O307   Zn312   1.995   .     S
O308   Zn312   1.991   .     S
O309   Zn311   1.991   .     S
O310   C412    1.222   1_455 S
C313   O373    1.292   .     A
C313   O382    1.285   .     A
C313   C326    1.443   .     S
C314   C347    1.452   .     S
C314   C351    1.417   .     A
C314   C316    1.412   .     A
C315   C335    1.413   .     A
C315   C352    1.414   .     A
C315   C784    1.521   1_554 S
C316   C346    1.412   .     A
C316   C783    1.521   .     S
C317   O384    1.279   .     A
C317   O386    1.277   .     A
C317   C319    1.400   .     S
C318   O387    1.290   .     A
C318   C320    1.407   .     S
C318   O385    1.271   .     A
C320   C397    1.355   .     S
C320   C414    1.496   .     S
C321   C323    1.385   .     A
C321   C332    1.391   .     A
C321   H353    1.085   .     S
C322   C333    1.391   .     A
C322   C325    1.385   .     A
C322   H359    1.085   .     S
C323   C326    1.410   .     A
C323   C337    1.486   .     S
C324   O381    1.290   .     A
C324   C327    1.438   .     S
C324   O383    1.285   .     A
C325   C327    1.412   .     A
C325   C338    1.491   .     S
C326   C328    1.417   .     A
C327   C329    1.418   .     A
C328   C339    1.487   .     S
C328   C330    1.405   .     A
C329   C331    1.405   .     A
C329   C340    1.491   .     S
C330   C341    1.495   .     S
C330   C332    1.407   .     A
C331   C333    1.406   .     A
C331   C342    1.494   .     S
C333   C98     1.443   1_565 S
C334   H364    1.082   .     S
C334   C397    1.502   .     S
C334   O466    1.222   .     S
C335   H360    1.082   .     S
C335   C348    1.406   .     A
C336   O374    1.222   .     D
C337   O375    1.222   .     D
C337   H366    1.083   .     S
C338   O376    1.221   .     D
C338   H354    1.084   .     S
C339   O377    1.221   .     D
C339   H355    1.080   .     S
C340   H356    1.082   .     S
C340   O378    1.221   .     D
C341   O379    1.221   .     D
C342   O380    1.221   .     D
C342   H124    1.084   1_565 S
C343   C350    1.444   .     S
C343   N369    1.158   .     T
C344   N370    1.157   .     T
C344   C351    1.441   .     S
C345   N371    1.157   .     T
C345   C352    1.450   .     S
C346   C349    1.409   .     A
C346   H361    1.082   .     S
C347   N372    1.158   .     T
C348   H362    1.082   .     S
C348   N367    1.360   .     A
C349   H363    1.081   .     S
C349   N368    1.364   .     A
C350   N367    1.373   .     A
C350   C352    1.419   .     A
C351   N368    1.377   .     A
H357   C107    1.084   1_565 S
H365   C414    1.085   .     S
N367   Zn390   2.014   .     S
N368   Zn389   2.014   .     S
O373   Zn389   1.998   .     S
O381   Zn390   1.998   .     S
O382   Zn390   2.002   .     S
O383   Zn389   2.002   .     S
O384   Zn389   1.995   .     S
O385   Zn390   1.995   .     S
O386   Zn390   1.991   .     S
O387   Zn389   1.991   .     S
C391   O451    1.292   .     A
C391   O460    1.285   .     A
C391   C404    1.443   .     S
C392   C425    1.452   .     S
C392   C429    1.417   .     A
C392   C394    1.412   .     A
C393   C413    1.413   .     A
C393   C430    1.414   .     A
C393   C862    1.521   1_554 S
C394   C424    1.412   .     A
C394   C861    1.521   .     S
C395   O462    1.279   .     A
C395   O464    1.277   .     A
C395   C397    1.400   .     S
C396   O465    1.290   .     A
C396   C398    1.407   .     S
C396   O463    1.271   .     A
C398   C241    1.355   1_655 S
C398   C258    1.496   1_655 S
C399   C401    1.385   .     A
C399   C410    1.391   .     A
C399   H431    1.085   .     S
C400   C411    1.391   .     A
C400   C403    1.385   .     A
C400   H437    1.085   .     S
C401   C404    1.410   .     A
C401   C415    1.486   .     S
C402   O459    1.290   .     A
C402   C405    1.438   .     S
C402   O461    1.285   .     A
C403   C405    1.412   .     A
C403   C416    1.491   .     S
C404   C406    1.417   .     A
C405   C407    1.418   .     A
C406   C417    1.487   .     S
C406   C408    1.405   .     A
C407   C409    1.405   .     A
C407   C418    1.491   .     S
C408   C419    1.495   .     S
C408   C410    1.407   .     A
C409   C411    1.406   .     A
C409   C420    1.494   .     S
C411   C176    1.443   1_565 S
C412   H442    1.082   .     S
C412   C241    1.502   1_655 S
C412   O310    1.222   1_655 S
C413   H438    1.082   .     S
C413   C426    1.406   .     A
C414   O452    1.222   .     D
C415   O453    1.222   .     D
C415   H444    1.083   .     S
C416   O454    1.221   .     D
C416   H432    1.084   .     S
C417   O455    1.221   .     D
C417   H433    1.080   .     S
C418   H434    1.082   .     S
C418   O456    1.221   .     D
C419   O457    1.221   .     D
C420   O458    1.221   .     D
C420   H202    1.084   1_565 S
C421   C428    1.444   .     S
C421   N447    1.158   .     T
C422   N448    1.157   .     T
C422   C429    1.441   .     S
C423   N449    1.157   .     T
C423   C430    1.450   .     S
C424   C427    1.409   .     A
C424   H439    1.082   .     S
C425   N450    1.158   .     T
C426   H440    1.082   .     S
C426   N445    1.360   .     A
C427   H441    1.081   .     S
C427   N446    1.364   .     A
C428   N445    1.373   .     A
C428   C430    1.419   .     A
C429   N446    1.377   .     A
H435   C185    1.084   1_565 S
H443   C258    1.085   1_655 S
N445   Zn468   2.014   .     S
N446   Zn467   2.014   .     S
O451   Zn467   1.998   .     S
O459   Zn468   1.998   .     S
O460   Zn468   2.002   .     S
O461   Zn467   2.002   .     S
O462   Zn467   1.995   .     S
O463   Zn468   1.995   .     S
O464   Zn468   1.991   .     S
O465   Zn467   1.991   .     S
C469   O529    1.292   .     A
C469   O538    1.285   .     A
C469   C482    1.443   .     S
C470   C503    1.452   .     S
C470   C507    1.417   .     A
C470   C472    1.412   .     A
C471   C491    1.413   .     A
C471   C508    1.414   .     A
C472   C502    1.412   .     A
C472   C3      1.521   1_556 S
C473   O540    1.279   .     A
C473   O542    1.277   .     A
C473   C475    1.400   .     S
C474   O543    1.290   .     A
C474   C476    1.407   .     S
C474   O541    1.271   .     A
C475   C632    1.355   1_455 S
C475   C646    1.502   1_455 S
C476   C553    1.355   .     S
C476   C570    1.496   .     S
C477   C479    1.385   .     A
C477   C488    1.391   .     A
C477   H509    1.085   .     S
C478   C489    1.391   .     A
C478   C481    1.385   .     A
C478   H515    1.085   .     S
C479   C482    1.410   .     A
C479   C493    1.486   .     S
C480   O537    1.290   .     A
C480   C483    1.438   .     S
C480   O539    1.285   .     A
C481   C483    1.412   .     A
C481   C494    1.491   .     S
C482   C484    1.417   .     A
C483   C485    1.418   .     A
C484   C495    1.487   .     S
C484   C486    1.405   .     A
C485   C487    1.405   .     A
C485   C496    1.491   .     S
C486   C497    1.495   .     S
C486   C488    1.407   .     A
C487   C489    1.406   .     A
C487   C498    1.494   .     S
C488   C723    1.443   1_545 S
C489   C722    1.443   .     S
C490   H520    1.082   .     S
C490   C553    1.502   .     S
C490   O622    1.222   .     S
C491   H516    1.082   .     S
C491   C504    1.406   .     A
C492   O530    1.222   .     D
C492   C632    1.496   1_455 S
C492   H677    1.085   1_455 S
C493   O531    1.222   .     D
C493   H522    1.083   .     S
C494   O532    1.221   .     D
C494   H510    1.084   .     S
C495   O533    1.221   .     D
C495   H511    1.080   .     S
C496   H512    1.082   .     S
C496   O534    1.221   .     D
C497   O535    1.221   .     D
C497   H747    1.084   1_545 S
C498   O536    1.221   .     D
C498   H748    1.084   .     S
C499   C506    1.444   .     S
C499   N525    1.158   .     T
C500   N526    1.157   .     T
C500   C507    1.441   .     S
C501   N527    1.157   .     T
C501   C508    1.450   .     S
C502   C505    1.409   .     A
C502   H517    1.082   .     S
C503   N528    1.158   .     T
C504   H518    1.082   .     S
C504   N523    1.360   .     A
C505   H519    1.081   .     S
C505   N524    1.364   .     A
C506   N523    1.373   .     A
C506   C508    1.419   .     A
C507   N524    1.377   .     A
H513   C731    1.084   .     S
H514   C732    1.084   1_545 S
H521   C570    1.085   .     S
N523   Zn546   2.014   .     S
N524   Zn545   2.014   .     S
O529   Zn545   1.998   .     S
O537   Zn546   1.998   .     S
O538   Zn546   2.002   .     S
O539   Zn545   2.002   .     S
O540   Zn545   1.995   .     S
O541   Zn546   1.995   .     S
O542   Zn546   1.991   .     S
O543   Zn545   1.991   .     S
O544   C646    1.222   1_455 S
C547   O607    1.292   .     A
C547   O616    1.285   .     A
C547   C560    1.443   .     S
C548   C581    1.452   .     S
C548   C585    1.417   .     A
C548   C550    1.412   .     A
C549   C569    1.413   .     A
C549   C586    1.414   .     A
C550   C580    1.412   .     A
C550   C81     1.521   1_556 S
C551   O618    1.279   .     A
C551   O620    1.277   .     A
C551   C553    1.400   .     S
C552   O621    1.290   .     A
C552   C554    1.407   .     S
C552   O619    1.271   .     A
C554   C631    1.355   .     S
C554   C648    1.496   .     S
C555   C557    1.385   .     A
C555   C566    1.391   .     A
C555   H587    1.085   .     S
C556   C567    1.391   .     A
C556   C559    1.385   .     A
C556   H593    1.085   .     S
C557   C560    1.410   .     A
C557   C571    1.486   .     S
C558   O615    1.290   .     A
C558   C561    1.438   .     S
C558   O617    1.285   .     A
C559   C561    1.412   .     A
C559   C572    1.491   .     S
C560   C562    1.417   .     A
C561   C563    1.418   .     A
C562   C573    1.487   .     S
C562   C564    1.405   .     A
C563   C565    1.405   .     A
C563   C574    1.491   .     S
C564   C575    1.495   .     S
C564   C566    1.407   .     A
C565   C567    1.406   .     A
C565   C576    1.494   .     S
C566   C801    1.443   1_545 S
C567   C800    1.443   .     S
C568   H598    1.082   .     S
C568   C631    1.502   .     S
C568   O700    1.222   .     S
C569   H594    1.082   .     S
C569   C582    1.406   .     A
C570   O608    1.222   .     D
C571   O609    1.222   .     D
C571   H600    1.083   .     S
C572   O610    1.221   .     D
C572   H588    1.084   .     S
C573   O611    1.221   .     D
C573   H589    1.080   .     S
C574   H590    1.082   .     S
C574   O612    1.221   .     D
C575   O613    1.221   .     D
C575   H825    1.084   1_545 S
C576   O614    1.221   .     D
C576   H826    1.084   .     S
C577   C584    1.444   .     S
C577   N603    1.158   .     T
C578   N604    1.157   .     T
C578   C585    1.441   .     S
C579   N605    1.157   .     T
C579   C586    1.450   .     S
C580   C583    1.409   .     A
C580   H595    1.082   .     S
C581   N606    1.158   .     T
C582   H596    1.082   .     S
C582   N601    1.360   .     A
C583   H597    1.081   .     S
C583   N602    1.364   .     A
C584   N601    1.373   .     A
C584   C586    1.419   .     A
C585   N602    1.377   .     A
H591   C809    1.084   .     S
H592   C810    1.084   1_545 S
H599   C648    1.085   .     S
N601   Zn624   2.014   .     S
N602   Zn623   2.014   .     S
O607   Zn623   1.998   .     S
O615   Zn624   1.998   .     S
O616   Zn624   2.002   .     S
O617   Zn623   2.002   .     S
O618   Zn623   1.995   .     S
O619   Zn624   1.995   .     S
O620   Zn624   1.991   .     S
O621   Zn623   1.991   .     S
C625   O685    1.292   .     A
C625   O694    1.285   .     A
C625   C638    1.443   .     S
C626   C659    1.452   .     S
C626   C663    1.417   .     A
C626   C628    1.412   .     A
C627   C647    1.413   .     A
C627   C664    1.414   .     A
C628   C658    1.412   .     A
C628   C159    1.521   1_556 S
C629   O696    1.279   .     A
C629   O698    1.277   .     A
C629   C631    1.400   .     S
C630   O699    1.290   .     A
C630   C632    1.407   .     S
C630   O697    1.271   .     A
C632   C475    1.355   1_655 S
C632   C492    1.496   1_655 S
C633   C635    1.385   .     A
C633   C644    1.391   .     A
C633   H665    1.085   .     S
C634   C645    1.391   .     A
C634   C637    1.385   .     A
C634   H671    1.085   .     S
C635   C638    1.410   .     A
C635   C649    1.486   .     S
C636   O693    1.290   .     A
C636   C639    1.438   .     S
C636   O695    1.285   .     A
C637   C639    1.412   .     A
C637   C650    1.491   .     S
C638   C640    1.417   .     A
C639   C641    1.418   .     A
C640   C651    1.487   .     S
C640   C642    1.405   .     A
C641   C643    1.405   .     A
C641   C652    1.491   .     S
C642   C653    1.495   .     S
C642   C644    1.407   .     A
C643   C645    1.406   .     A
C643   C654    1.494   .     S
C644   C879    1.443   1_545 S
C645   C878    1.443   .     S
C646   H676    1.082   .     S
C646   C475    1.502   1_655 S
C646   O544    1.222   1_655 S
C647   H672    1.082   .     S
C647   C660    1.406   .     A
C648   O686    1.222   .     D
C649   O687    1.222   .     D
C649   H678    1.083   .     S
C650   O688    1.221   .     D
C650   H666    1.084   .     S
C651   O689    1.221   .     D
C651   H667    1.080   .     S
C652   H668    1.082   .     S
C652   O690    1.221   .     D
C653   O691    1.221   .     D
C653   H903    1.084   1_545 S
C654   O692    1.221   .     D
C654   H904    1.084   .     S
C655   C662    1.444   .     S
C655   N681    1.158   .     T
C656   N682    1.157   .     T
C656   C663    1.441   .     S
C657   N683    1.157   .     T
C657   C664    1.450   .     S
C658   C661    1.409   .     A
C658   H673    1.082   .     S
C659   N684    1.158   .     T
C660   H674    1.082   .     S
C660   N679    1.360   .     A
C661   H675    1.081   .     S
C661   N680    1.364   .     A
C662   N679    1.373   .     A
C662   C664    1.419   .     A
C663   N680    1.377   .     A
H669   C887    1.084   .     S
H670   C888    1.084   1_545 S
H677   C492    1.085   1_655 S
N679   Zn702   2.014   .     S
N680   Zn701   2.014   .     S
O685   Zn701   1.998   .     S
O693   Zn702   1.998   .     S
O694   Zn702   2.002   .     S
O695   Zn701   2.002   .     S
O696   Zn701   1.995   .     S
O697   Zn702   1.995   .     S
O698   Zn702   1.991   .     S
O699   Zn701   1.991   .     S
C703   O763    1.292   .     A
C703   O772    1.285   .     A
C703   C716    1.443   .     S
C704   C737    1.452   .     S
C704   C741    1.417   .     A
C704   C706    1.412   .     A
C705   C725    1.413   .     A
C705   C742    1.414   .     A
C706   C736    1.412   .     A
C706   C237    1.521   1_556 S
C707   O774    1.279   .     A
C707   O776    1.277   .     A
C707   C709    1.400   .     S
C708   O777    1.290   .     A
C708   C710    1.407   .     S
C708   O775    1.271   .     A
C709   C866    1.355   1_455 S
C709   C880    1.502   1_455 S
C710   C787    1.355   .     S
C710   C804    1.496   .     S
C711   C713    1.385   .     A
C711   C722    1.391   .     A
C711   H743    1.085   .     S
C712   C723    1.391   .     A
C712   C715    1.385   .     A
C712   H749    1.085   .     S
C713   C716    1.410   .     A
C713   C727    1.486   .     S
C714   O771    1.290   .     A
C714   C717    1.438   .     S
C714   O773    1.285   .     A
C715   C717    1.412   .     A
C715   C728    1.491   .     S
C716   C718    1.417   .     A
C717   C719    1.418   .     A
C718   C729    1.487   .     S
C718   C720    1.405   .     A
C719   C721    1.405   .     A
C719   C730    1.491   .     S
C720   C731    1.495   .     S
C720   C722    1.407   .     A
C721   C723    1.406   .     A
C721   C732    1.494   .     S
C723   C488    1.443   1_565 S
C724   H754    1.082   .     S
C724   C787    1.502   .     S
C724   O856    1.222   .     S
C725   H750    1.082   .     S
C725   C738    1.406   .     A
C726   O764    1.222   .     D
C726   C866    1.496   1_455 S
C726   H911    1.085   1_455 S
C727   O765    1.222   .     D
C727   H756    1.083   .     S
C728   O766    1.221   .     D
C728   H744    1.084   .     S
C729   O767    1.221   .     D
C729   H745    1.080   .     S
C730   H746    1.082   .     S
C730   O768    1.221   .     D
C731   O769    1.221   .     D
C732   O770    1.221   .     D
C732   H514    1.084   1_565 S
C733   C740    1.444   .     S
C733   N759    1.158   .     T
C734   N760    1.157   .     T
C734   C741    1.441   .     S
C735   N761    1.157   .     T
C735   C742    1.450   .     S
C736   C739    1.409   .     A
C736   H751    1.082   .     S
C737   N762    1.158   .     T
C738   H752    1.082   .     S
C738   N757    1.360   .     A
C739   H753    1.081   .     S
C739   N758    1.364   .     A
C740   N757    1.373   .     A
C740   C742    1.419   .     A
C741   N758    1.377   .     A
H747   C497    1.084   1_565 S
H755   C804    1.085   .     S
N757   Zn780   2.014   .     S
N758   Zn779   2.014   .     S
O763   Zn779   1.998   .     S
O771   Zn780   1.998   .     S
O772   Zn780   2.002   .     S
O773   Zn779   2.002   .     S
O774   Zn779   1.995   .     S
O775   Zn780   1.995   .     S
O776   Zn780   1.991   .     S
O777   Zn779   1.991   .     S
O778   C880    1.222   1_455 S
C781   O841    1.292   .     A
C781   O850    1.285   .     A
C781   C794    1.443   .     S
C782   C815    1.452   .     S
C782   C819    1.417   .     A
C782   C784    1.412   .     A
C783   C803    1.413   .     A
C783   C820    1.414   .     A
C784   C814    1.412   .     A
C784   C315    1.521   1_556 S
C785   O852    1.279   .     A
C785   O854    1.277   .     A
C785   C787    1.400   .     S
C786   O855    1.290   .     A
C786   C788    1.407   .     S
C786   O853    1.271   .     A
C788   C865    1.355   .     S
C788   C882    1.496   .     S
C789   C791    1.385   .     A
C789   C800    1.391   .     A
C789   H821    1.085   .     S
C790   C801    1.391   .     A
C790   C793    1.385   .     A
C790   H827    1.085   .     S
C791   C794    1.410   .     A
C791   C805    1.486   .     S
C792   O849    1.290   .     A
C792   C795    1.438   .     S
C792   O851    1.285   .     A
C793   C795    1.412   .     A
C793   C806    1.491   .     S
C794   C796    1.417   .     A
C795   C797    1.418   .     A
C796   C807    1.487   .     S
C796   C798    1.405   .     A
C797   C799    1.405   .     A
C797   C808    1.491   .     S
C798   C809    1.495   .     S
C798   C800    1.407   .     A
C799   C801    1.406   .     A
C799   C810    1.494   .     S
C801   C566    1.443   1_565 S
C802   H832    1.082   .     S
C802   C865    1.502   .     S
C802   O934    1.222   .     S
C803   H828    1.082   .     S
C803   C816    1.406   .     A
C804   O842    1.222   .     D
C805   O843    1.222   .     D
C805   H834    1.083   .     S
C806   O844    1.221   .     D
C806   H822    1.084   .     S
C807   O845    1.221   .     D
C807   H823    1.080   .     S
C808   H824    1.082   .     S
C808   O846    1.221   .     D
C809   O847    1.221   .     D
C810   O848    1.221   .     D
C810   H592    1.084   1_565 S
C811   C818    1.444   .     S
C811   N837    1.158   .     T
C812   N838    1.157   .     T
C812   C819    1.441   .     S
C813   N839    1.157   .     T
C813   C820    1.450   .     S
C814   C817    1.409   .     A
C814   H829    1.082   .     S
C815   N840    1.158   .     T
C816   H830    1.082   .     S
C816   N835    1.360   .     A
C817   H831    1.081   .     S
C817   N836    1.364   .     A
C818   N835    1.373   .     A
C818   C820    1.419   .     A
C819   N836    1.377   .     A
H825   C575    1.084   1_565 S
H833   C882    1.085   .     S
N835   Zn858   2.014   .     S
N836   Zn857   2.014   .     S
O841   Zn857   1.998   .     S
O849   Zn858   1.998   .     S
O850   Zn858   2.002   .     S
O851   Zn857   2.002   .     S
O852   Zn857   1.995   .     S
O853   Zn858   1.995   .     S
O854   Zn858   1.991   .     S
O855   Zn857   1.991   .     S
C859   O919    1.292   .     A
C859   O928    1.285   .     A
C859   C872    1.443   .     S
C860   C893    1.452   .     S
C860   C897    1.417   .     A
C860   C862    1.412   .     A
C861   C881    1.413   .     A
C861   C898    1.414   .     A
C862   C892    1.412   .     A
C862   C393    1.521   1_556 S
C863   O930    1.279   .     A
C863   O932    1.277   .     A
C863   C865    1.400   .     S
C864   O933    1.290   .     A
C864   C866    1.407   .     S
C864   O931    1.271   .     A
C866   C709    1.355   1_655 S
C866   C726    1.496   1_655 S
C867   C869    1.385   .     A
C867   C878    1.391   .     A
C867   H899    1.085   .     S
C868   C879    1.391   .     A
C868   C871    1.385   .     A
C868   H905    1.085   .     S
C869   C872    1.410   .     A
C869   C883    1.486   .     S
C870   O927    1.290   .     A
C870   C873    1.438   .     S
C870   O929    1.285   .     A
C871   C873    1.412   .     A
C871   C884    1.491   .     S
C872   C874    1.417   .     A
C873   C875    1.418   .     A
C874   C885    1.487   .     S
C874   C876    1.405   .     A
C875   C877    1.405   .     A
C875   C886    1.491   .     S
C876   C887    1.495   .     S
C876   C878    1.407   .     A
C877   C879    1.406   .     A
C877   C888    1.494   .     S
C879   C644    1.443   1_565 S
C880   H910    1.082   .     S
C880   C709    1.502   1_655 S
C880   O778    1.222   1_655 S
C881   H906    1.082   .     S
C881   C894    1.406   .     A
C882   O920    1.222   .     D
C883   O921    1.222   .     D
C883   H912    1.083   .     S
C884   O922    1.221   .     D
C884   H900    1.084   .     S
C885   O923    1.221   .     D
C885   H901    1.080   .     S
C886   H902    1.082   .     S
C886   O924    1.221   .     D
C887   O925    1.221   .     D
C888   O926    1.221   .     D
C888   H670    1.084   1_565 S
C889   C896    1.444   .     S
C889   N915    1.158   .     T
C890   N916    1.157   .     T
C890   C897    1.441   .     S
C891   N917    1.157   .     T
C891   C898    1.450   .     S
C892   C895    1.409   .     A
C892   H907    1.082   .     S
C893   N918    1.158   .     T
C894   H908    1.082   .     S
C894   N913    1.360   .     A
C895   H909    1.081   .     S
C895   N914    1.364   .     A
C896   N913    1.373   .     A
C896   C898    1.419   .     A
C897   N914    1.377   .     A
H903   C653    1.084   1_565 S
H911   C726    1.085   1_655 S
N913   Zn936   2.014   .     S
N914   Zn935   2.014   .     S
O919   Zn935   1.998   .     S
O927   Zn936   1.998   .     S
O928   Zn936   2.002   .     S
O929   Zn935   2.002   .     S
O930   Zn935   1.995   .     S
O931   Zn936   1.995   .     S
O932   Zn936   1.991   .     S
O933   Zn935   1.991   .     S
