data_str_m3_o10_o17_pcu_sym.158
_audit_creation_date              2020-01-03
_audit_creation_method            'Materials Studio'
_symmetry_space_group_name_H-M    'P1'
_symmetry_Int_Tables_number       1
_symmetry_cell_setting            triclinic
loop_
_symmetry_equiv_pos_as_xyz
  x,y,z
_cell_length_a                    23.5763
_cell_length_b                    25.6243
_cell_length_c                    29.7702
_cell_angle_alpha                 92.0356
_cell_angle_beta                  85.2326
_cell_angle_gamma                 93.7211
loop_
_atom_site_label
_atom_site_type_symbol
_atom_site_fract_x
_atom_site_fract_y
_atom_site_fract_z
_atom_site_U_iso_or_equiv
_atom_site_adp_type
_atom_site_occupancy
Br1    Br    0.12871   0.05587   0.12616   0.00000  Uiso   1.00
Br2    Br    0.20462   0.27747   0.37384   0.00000  Uiso   1.00
Br3    Br    0.23883   0.31871   0.05409   0.00000  Uiso   1.00
Br4    Br    0.09450   0.01463   0.44590   0.00000  Uiso   1.00
Br5    Br    0.01228   0.10062   0.19818   0.00000  Uiso   1.00
Br6    Br    0.32105   0.23271   0.30182   0.00000  Uiso   1.00
C7     C     0.18181   0.26477   0.24877   0.00000  Uiso   1.00
C8     C     0.18535   0.21409   0.40685   0.00000  Uiso   1.00
C9     C     0.16569   0.16508   0.11614   0.00000  Uiso   1.00
C10    C     0.16765   0.16825   0.38386   0.00000  Uiso   1.00
C11    C     0.18517   0.21036   0.09411   0.00000  Uiso   1.00
C12    C     0.14817   0.12297   0.40589   0.00000  Uiso   1.00
C13    C     0.18656   0.21155   0.04755   0.00000  Uiso   1.00
C14    C     0.14677   0.12178   0.45245   0.00000  Uiso   1.00
C15    C     0.16664   0.16626   0.02347   0.00000  Uiso   1.00
C16    C     0.16669   0.16708   0.47653   0.00000  Uiso   1.00
C17    C     0.14707   0.12000   0.04632   0.00000  Uiso   1.00
C18    C     0.15152   0.06856   0.25123   0.00000  Uiso   1.00
C19    C     0.18626   0.21333   0.45368   0.00000  Uiso   1.00
C20    C     0.20723   0.25680   0.02455   0.00000  Uiso   1.00
C21    C     0.12610   0.07653   0.47545   0.00000  Uiso   1.00
C22    C     0.20649   0.25748   0.47808   0.00000  Uiso   1.00
C23    C     0.12684   0.07585   0.02192   0.00000  Uiso   1.00
C24    C     0.18972   0.31936   0.24813   0.00000  Uiso   1.00
C25    C     0.14361   0.01397   0.25187   0.00000  Uiso   1.00
C26    C     0.16708   0.16729   0.33623   0.00000  Uiso   1.00
C27    C     0.16626   0.16604   0.16377   0.00000  Uiso   1.00
C28    C     0.14798   0.11925   0.09315   0.00000  Uiso   1.00
H29    H     0.19911   0.24438   0.11390   0.00000  Uiso   1.00
H30    H     0.13422   0.08895   0.38610   0.00000  Uiso   1.00
H31    H     0.22268   0.29287   0.46147   0.00000  Uiso   1.00
H32    H     0.11066   0.04046   0.03853   0.00000  Uiso   1.00
H33    H     0.23331   0.00302   0.24463   0.00000  Uiso   1.00
H34    H     0.10003   0.33031   0.25537   0.00000  Uiso   1.00
N35    N     0.31678   0.15265   0.23783   0.00000  Uiso   1.00
N36    N     0.01656   0.18068   0.26217   0.00000  Uiso   1.00
O37    O     0.12975   0.24619   0.25298   0.00000  Uiso   1.00
O38    O     0.20358   0.08714   0.24701   0.00000  Uiso   1.00
O39    O     0.22613   0.23721   0.24518   0.00000  Uiso   1.00
O40    O     0.10720   0.09613   0.25481   0.00000  Uiso   1.00
O41    O     0.11847   0.17117   0.31997   0.00000  Uiso   1.00
O42    O     0.21486   0.16216   0.18002   0.00000  Uiso   1.00
O43    O     0.21485   0.16219   0.31217   0.00000  Uiso   1.00
O44    O     0.11848   0.17115   0.18782   0.00000  Uiso   1.00
Zn45   Zn    0.10231   0.17266   0.25521   0.00000  Uiso   1.00
Zn46   Zn    0.23102   0.16067   0.24479   0.00000  Uiso   1.00
Br47   Br    0.46204   0.05587   0.12616   0.00000  Uiso   1.00
Br48   Br    0.53796   0.27747   0.37384   0.00000  Uiso   1.00
Br49   Br    0.57217   0.31871   0.05409   0.00000  Uiso   1.00
Br50   Br    0.42783   0.01463   0.44590   0.00000  Uiso   1.00
Br51   Br    0.34562   0.10062   0.19818   0.00000  Uiso   1.00
Br52   Br    0.65438   0.23271   0.30182   0.00000  Uiso   1.00
C53    C     0.51514   0.26477   0.24877   0.00000  Uiso   1.00
C54    C     0.51868   0.21409   0.40685   0.00000  Uiso   1.00
C55    C     0.49902   0.16508   0.11614   0.00000  Uiso   1.00
C56    C     0.50098   0.16825   0.38386   0.00000  Uiso   1.00
C57    C     0.51850   0.21036   0.09411   0.00000  Uiso   1.00
C58    C     0.48150   0.12297   0.40589   0.00000  Uiso   1.00
C59    C     0.51989   0.21155   0.04755   0.00000  Uiso   1.00
C60    C     0.48011   0.12178   0.45245   0.00000  Uiso   1.00
C61    C     0.49998   0.16626   0.02347   0.00000  Uiso   1.00
C62    C     0.50002   0.16708   0.47653   0.00000  Uiso   1.00
C63    C     0.48041   0.12000   0.04632   0.00000  Uiso   1.00
C64    C     0.48486   0.06856   0.25123   0.00000  Uiso   1.00
C65    C     0.51959   0.21333   0.45368   0.00000  Uiso   1.00
C66    C     0.54057   0.25680   0.02455   0.00000  Uiso   1.00
C67    C     0.45943   0.07653   0.47545   0.00000  Uiso   1.00
C68    C     0.53983   0.25748   0.47808   0.00000  Uiso   1.00
C69    C     0.46017   0.07585   0.02192   0.00000  Uiso   1.00
C70    C     0.52306   0.31936   0.24813   0.00000  Uiso   1.00
C71    C     0.47694   0.01397   0.25187   0.00000  Uiso   1.00
C72    C     0.50041   0.16729   0.33623   0.00000  Uiso   1.00
C73    C     0.49959   0.16604   0.16377   0.00000  Uiso   1.00
C74    C     0.48132   0.11925   0.09315   0.00000  Uiso   1.00
H75    H     0.53244   0.24438   0.11390   0.00000  Uiso   1.00
H76    H     0.46756   0.08895   0.38610   0.00000  Uiso   1.00
H77    H     0.55601   0.29287   0.46147   0.00000  Uiso   1.00
H78    H     0.44399   0.04046   0.03853   0.00000  Uiso   1.00
H79    H     0.56664   0.00302   0.24463   0.00000  Uiso   1.00
H80    H     0.43336   0.33031   0.25537   0.00000  Uiso   1.00
N81    N     0.65011   0.15265   0.23783   0.00000  Uiso   1.00
N82    N     0.34989   0.18068   0.26217   0.00000  Uiso   1.00
O83    O     0.46308   0.24619   0.25298   0.00000  Uiso   1.00
O84    O     0.53692   0.08714   0.24701   0.00000  Uiso   1.00
O85    O     0.55946   0.23721   0.24518   0.00000  Uiso   1.00
O86    O     0.44054   0.09613   0.25481   0.00000  Uiso   1.00
O87    O     0.45181   0.17117   0.31997   0.00000  Uiso   1.00
O88    O     0.54819   0.16216   0.18002   0.00000  Uiso   1.00
O89    O     0.54819   0.16219   0.31217   0.00000  Uiso   1.00
O90    O     0.45181   0.17115   0.18782   0.00000  Uiso   1.00
Zn91   Zn    0.43565   0.17266   0.25521   0.00000  Uiso   1.00
Zn92   Zn    0.56435   0.16067   0.24479   0.00000  Uiso   1.00
Br93   Br    0.79538   0.05587   0.12616   0.00000  Uiso   1.00
Br94   Br    0.87129   0.27747   0.37384   0.00000  Uiso   1.00
Br95   Br    0.90550   0.31871   0.05409   0.00000  Uiso   1.00
Br96   Br    0.76117   0.01463   0.44590   0.00000  Uiso   1.00
Br97   Br    0.67895   0.10062   0.19818   0.00000  Uiso   1.00
Br98   Br    0.98772   0.23271   0.30182   0.00000  Uiso   1.00
C99    C     0.84848   0.26477   0.24877   0.00000  Uiso   1.00
C100   C     0.85202   0.21409   0.40685   0.00000  Uiso   1.00
C101   C     0.83235   0.16508   0.11614   0.00000  Uiso   1.00
C102   C     0.83431   0.16825   0.38386   0.00000  Uiso   1.00
C103   C     0.85183   0.21036   0.09411   0.00000  Uiso   1.00
C104   C     0.81483   0.12297   0.40589   0.00000  Uiso   1.00
C105   C     0.85323   0.21155   0.04755   0.00000  Uiso   1.00
C106   C     0.81344   0.12178   0.45245   0.00000  Uiso   1.00
C107   C     0.83331   0.16626   0.02347   0.00000  Uiso   1.00
C108   C     0.83336   0.16708   0.47653   0.00000  Uiso   1.00
C109   C     0.81374   0.12000   0.04632   0.00000  Uiso   1.00
C110   C     0.81819   0.06856   0.25123   0.00000  Uiso   1.00
C111   C     0.85293   0.21333   0.45368   0.00000  Uiso   1.00
C112   C     0.87390   0.25680   0.02455   0.00000  Uiso   1.00
C113   C     0.79277   0.07653   0.47545   0.00000  Uiso   1.00
C114   C     0.87316   0.25748   0.47808   0.00000  Uiso   1.00
C115   C     0.79350   0.07585   0.02192   0.00000  Uiso   1.00
C116   C     0.85639   0.31936   0.24813   0.00000  Uiso   1.00
C117   C     0.81027   0.01397   0.25187   0.00000  Uiso   1.00
C118   C     0.83374   0.16729   0.33623   0.00000  Uiso   1.00
C119   C     0.83292   0.16604   0.16377   0.00000  Uiso   1.00
C120   C     0.81465   0.11925   0.09315   0.00000  Uiso   1.00
H121   H     0.86578   0.24438   0.11390   0.00000  Uiso   1.00
H122   H     0.80089   0.08895   0.38610   0.00000  Uiso   1.00
H123   H     0.88934   0.29287   0.46147   0.00000  Uiso   1.00
H124   H     0.77732   0.04046   0.03853   0.00000  Uiso   1.00
H125   H     0.89997   0.00302   0.24463   0.00000  Uiso   1.00
H126   H     0.76669   0.33031   0.25537   0.00000  Uiso   1.00
N127   N     0.98344   0.15265   0.23783   0.00000  Uiso   1.00
N128   N     0.68322   0.18068   0.26217   0.00000  Uiso   1.00
O129   O     0.79642   0.24619   0.25298   0.00000  Uiso   1.00
O130   O     0.87025   0.08714   0.24701   0.00000  Uiso   1.00
O131   O     0.89280   0.23721   0.24518   0.00000  Uiso   1.00
O132   O     0.77387   0.09613   0.25481   0.00000  Uiso   1.00
O133   O     0.78514   0.17117   0.31997   0.00000  Uiso   1.00
O134   O     0.88153   0.16216   0.18002   0.00000  Uiso   1.00
O135   O     0.88152   0.16219   0.31217   0.00000  Uiso   1.00
O136   O     0.78515   0.17115   0.18782   0.00000  Uiso   1.00
Zn137  Zn    0.76898   0.17266   0.25521   0.00000  Uiso   1.00
Zn138  Zn    0.89769   0.16067   0.24479   0.00000  Uiso   1.00
Br139  Br    0.12871   0.38920   0.12616   0.00000  Uiso   1.00
Br140  Br    0.20462   0.61080   0.37384   0.00000  Uiso   1.00
Br141  Br    0.23883   0.65204   0.05409   0.00000  Uiso   1.00
Br142  Br    0.09450   0.34796   0.44590   0.00000  Uiso   1.00
Br143  Br    0.01228   0.43395   0.19818   0.00000  Uiso   1.00
Br144  Br    0.32105   0.56605   0.30182   0.00000  Uiso   1.00
C145   C     0.18181   0.59810   0.24877   0.00000  Uiso   1.00
C146   C     0.18535   0.54742   0.40685   0.00000  Uiso   1.00
C147   C     0.16569   0.49841   0.11614   0.00000  Uiso   1.00
C148   C     0.16765   0.50159   0.38386   0.00000  Uiso   1.00
C149   C     0.18517   0.54370   0.09411   0.00000  Uiso   1.00
C150   C     0.14817   0.45630   0.40589   0.00000  Uiso   1.00
C151   C     0.18656   0.54488   0.04755   0.00000  Uiso   1.00
C152   C     0.14677   0.45512   0.45245   0.00000  Uiso   1.00
C153   C     0.16664   0.49959   0.02347   0.00000  Uiso   1.00
C154   C     0.16669   0.50041   0.47653   0.00000  Uiso   1.00
C155   C     0.14707   0.45333   0.04632   0.00000  Uiso   1.00
C156   C     0.15152   0.40190   0.25123   0.00000  Uiso   1.00
C157   C     0.18626   0.54667   0.45368   0.00000  Uiso   1.00
C158   C     0.20723   0.59013   0.02455   0.00000  Uiso   1.00
C159   C     0.12610   0.40987   0.47545   0.00000  Uiso   1.00
C160   C     0.20649   0.59082   0.47808   0.00000  Uiso   1.00
C161   C     0.12684   0.40918   0.02192   0.00000  Uiso   1.00
C162   C     0.18972   0.65270   0.24813   0.00000  Uiso   1.00
C163   C     0.14361   0.34730   0.25187   0.00000  Uiso   1.00
C164   C     0.16708   0.50062   0.33623   0.00000  Uiso   1.00
C165   C     0.16626   0.49938   0.16377   0.00000  Uiso   1.00
C166   C     0.14798   0.45258   0.09315   0.00000  Uiso   1.00
H167   H     0.19911   0.57771   0.11390   0.00000  Uiso   1.00
H168   H     0.13422   0.42229   0.38610   0.00000  Uiso   1.00
H169   H     0.22268   0.62621   0.46147   0.00000  Uiso   1.00
H170   H     0.11066   0.37379   0.03853   0.00000  Uiso   1.00
H171   H     0.23331   0.33636   0.24463   0.00000  Uiso   1.00
H172   H     0.10003   0.66364   0.25537   0.00000  Uiso   1.00
N173   N     0.31678   0.48598   0.23783   0.00000  Uiso   1.00
N174   N     0.01656   0.51402   0.26217   0.00000  Uiso   1.00
O175   O     0.12975   0.57952   0.25298   0.00000  Uiso   1.00
O176   O     0.20358   0.42048   0.24701   0.00000  Uiso   1.00
O177   O     0.22613   0.57054   0.24518   0.00000  Uiso   1.00
O178   O     0.10720   0.42946   0.25481   0.00000  Uiso   1.00
O179   O     0.11847   0.50450   0.31997   0.00000  Uiso   1.00
O180   O     0.21486   0.49550   0.18002   0.00000  Uiso   1.00
O181   O     0.21485   0.49552   0.31217   0.00000  Uiso   1.00
O182   O     0.11848   0.50448   0.18782   0.00000  Uiso   1.00
Zn183  Zn    0.10231   0.50600   0.25521   0.00000  Uiso   1.00
Zn184  Zn    0.23102   0.49400   0.24479   0.00000  Uiso   1.00
Br185  Br    0.46204   0.38920   0.12616   0.00000  Uiso   1.00
Br186  Br    0.53796   0.61080   0.37384   0.00000  Uiso   1.00
Br187  Br    0.57217   0.65204   0.05409   0.00000  Uiso   1.00
Br188  Br    0.42783   0.34796   0.44590   0.00000  Uiso   1.00
Br189  Br    0.34562   0.43395   0.19818   0.00000  Uiso   1.00
Br190  Br    0.65438   0.56605   0.30182   0.00000  Uiso   1.00
C191   C     0.51514   0.59810   0.24877   0.00000  Uiso   1.00
C192   C     0.51868   0.54742   0.40685   0.00000  Uiso   1.00
C193   C     0.49902   0.49841   0.11614   0.00000  Uiso   1.00
C194   C     0.50098   0.50159   0.38386   0.00000  Uiso   1.00
C195   C     0.51850   0.54370   0.09411   0.00000  Uiso   1.00
C196   C     0.48150   0.45630   0.40589   0.00000  Uiso   1.00
C197   C     0.51989   0.54488   0.04755   0.00000  Uiso   1.00
C198   C     0.48011   0.45512   0.45245   0.00000  Uiso   1.00
C199   C     0.49998   0.49959   0.02347   0.00000  Uiso   1.00
C200   C     0.50002   0.50041   0.47653   0.00000  Uiso   1.00
C201   C     0.48041   0.45333   0.04632   0.00000  Uiso   1.00
C202   C     0.48486   0.40190   0.25123   0.00000  Uiso   1.00
C203   C     0.51959   0.54667   0.45368   0.00000  Uiso   1.00
C204   C     0.54057   0.59013   0.02455   0.00000  Uiso   1.00
C205   C     0.45943   0.40987   0.47545   0.00000  Uiso   1.00
C206   C     0.53983   0.59082   0.47808   0.00000  Uiso   1.00
C207   C     0.46017   0.40918   0.02192   0.00000  Uiso   1.00
C208   C     0.52306   0.65270   0.24813   0.00000  Uiso   1.00
C209   C     0.47694   0.34730   0.25187   0.00000  Uiso   1.00
C210   C     0.50041   0.50062   0.33623   0.00000  Uiso   1.00
C211   C     0.49959   0.49938   0.16377   0.00000  Uiso   1.00
C212   C     0.48132   0.45258   0.09315   0.00000  Uiso   1.00
H213   H     0.53244   0.57771   0.11390   0.00000  Uiso   1.00
H214   H     0.46756   0.42229   0.38610   0.00000  Uiso   1.00
H215   H     0.55601   0.62621   0.46147   0.00000  Uiso   1.00
H216   H     0.44399   0.37379   0.03853   0.00000  Uiso   1.00
H217   H     0.56664   0.33636   0.24463   0.00000  Uiso   1.00
H218   H     0.43336   0.66364   0.25537   0.00000  Uiso   1.00
N219   N     0.65011   0.48598   0.23783   0.00000  Uiso   1.00
N220   N     0.34989   0.51402   0.26217   0.00000  Uiso   1.00
O221   O     0.46308   0.57952   0.25298   0.00000  Uiso   1.00
O222   O     0.53692   0.42048   0.24701   0.00000  Uiso   1.00
O223   O     0.55946   0.57054   0.24518   0.00000  Uiso   1.00
O224   O     0.44054   0.42946   0.25481   0.00000  Uiso   1.00
O225   O     0.45181   0.50450   0.31997   0.00000  Uiso   1.00
O226   O     0.54819   0.49550   0.18002   0.00000  Uiso   1.00
O227   O     0.54819   0.49552   0.31217   0.00000  Uiso   1.00
O228   O     0.45181   0.50448   0.18782   0.00000  Uiso   1.00
Zn229  Zn    0.43565   0.50600   0.25521   0.00000  Uiso   1.00
Zn230  Zn    0.56435   0.49400   0.24479   0.00000  Uiso   1.00
Br231  Br    0.79538   0.38920   0.12616   0.00000  Uiso   1.00
Br232  Br    0.87129   0.61080   0.37384   0.00000  Uiso   1.00
Br233  Br    0.90550   0.65204   0.05409   0.00000  Uiso   1.00
Br234  Br    0.76117   0.34796   0.44590   0.00000  Uiso   1.00
Br235  Br    0.67895   0.43395   0.19818   0.00000  Uiso   1.00
Br236  Br    0.98772   0.56605   0.30182   0.00000  Uiso   1.00
C237   C     0.84848   0.59810   0.24877   0.00000  Uiso   1.00
C238   C     0.85202   0.54742   0.40685   0.00000  Uiso   1.00
C239   C     0.83235   0.49841   0.11614   0.00000  Uiso   1.00
C240   C     0.83431   0.50159   0.38386   0.00000  Uiso   1.00
C241   C     0.85183   0.54370   0.09411   0.00000  Uiso   1.00
C242   C     0.81483   0.45630   0.40589   0.00000  Uiso   1.00
C243   C     0.85323   0.54488   0.04755   0.00000  Uiso   1.00
C244   C     0.81344   0.45512   0.45245   0.00000  Uiso   1.00
C245   C     0.83331   0.49959   0.02347   0.00000  Uiso   1.00
C246   C     0.83336   0.50041   0.47653   0.00000  Uiso   1.00
C247   C     0.81374   0.45333   0.04632   0.00000  Uiso   1.00
C248   C     0.81819   0.40190   0.25123   0.00000  Uiso   1.00
C249   C     0.85293   0.54667   0.45368   0.00000  Uiso   1.00
C250   C     0.87390   0.59013   0.02455   0.00000  Uiso   1.00
C251   C     0.79277   0.40987   0.47545   0.00000  Uiso   1.00
C252   C     0.87316   0.59082   0.47808   0.00000  Uiso   1.00
C253   C     0.79350   0.40918   0.02192   0.00000  Uiso   1.00
C254   C     0.85639   0.65270   0.24813   0.00000  Uiso   1.00
C255   C     0.81027   0.34730   0.25187   0.00000  Uiso   1.00
C256   C     0.83374   0.50062   0.33623   0.00000  Uiso   1.00
C257   C     0.83292   0.49938   0.16377   0.00000  Uiso   1.00
C258   C     0.81465   0.45258   0.09315   0.00000  Uiso   1.00
H259   H     0.86578   0.57771   0.11390   0.00000  Uiso   1.00
H260   H     0.80089   0.42229   0.38610   0.00000  Uiso   1.00
H261   H     0.88934   0.62621   0.46147   0.00000  Uiso   1.00
H262   H     0.77732   0.37379   0.03853   0.00000  Uiso   1.00
H263   H     0.89997   0.33636   0.24463   0.00000  Uiso   1.00
H264   H     0.76669   0.66364   0.25537   0.00000  Uiso   1.00
N265   N     0.98344   0.48598   0.23783   0.00000  Uiso   1.00
N266   N     0.68322   0.51402   0.26217   0.00000  Uiso   1.00
O267   O     0.79642   0.57952   0.25298   0.00000  Uiso   1.00
O268   O     0.87025   0.42048   0.24701   0.00000  Uiso   1.00
O269   O     0.89280   0.57054   0.24518   0.00000  Uiso   1.00
O270   O     0.77387   0.42946   0.25481   0.00000  Uiso   1.00
O271   O     0.78514   0.50450   0.31997   0.00000  Uiso   1.00
O272   O     0.88153   0.49550   0.18002   0.00000  Uiso   1.00
O273   O     0.88152   0.49552   0.31217   0.00000  Uiso   1.00
O274   O     0.78515   0.50448   0.18782   0.00000  Uiso   1.00
Zn275  Zn    0.76898   0.50600   0.25521   0.00000  Uiso   1.00
Zn276  Zn    0.89769   0.49400   0.24479   0.00000  Uiso   1.00
Br277  Br    0.12871   0.72253   0.12616   0.00000  Uiso   1.00
Br278  Br    0.20462   0.94413   0.37384   0.00000  Uiso   1.00
Br279  Br    0.23883   0.98537   0.05409   0.00000  Uiso   1.00
Br280  Br    0.09450   0.68129   0.44590   0.00000  Uiso   1.00
Br281  Br    0.01228   0.76729   0.19818   0.00000  Uiso   1.00
Br282  Br    0.32105   0.89938   0.30182   0.00000  Uiso   1.00
C283   C     0.18181   0.93144   0.24877   0.00000  Uiso   1.00
C284   C     0.18535   0.88075   0.40685   0.00000  Uiso   1.00
C285   C     0.16569   0.83175   0.11614   0.00000  Uiso   1.00
C286   C     0.16765   0.83492   0.38386   0.00000  Uiso   1.00
C287   C     0.18517   0.87703   0.09411   0.00000  Uiso   1.00
C288   C     0.14817   0.78964   0.40589   0.00000  Uiso   1.00
C289   C     0.18656   0.87822   0.04755   0.00000  Uiso   1.00
C290   C     0.14677   0.78845   0.45245   0.00000  Uiso   1.00
C291   C     0.16664   0.83292   0.02347   0.00000  Uiso   1.00
C292   C     0.16669   0.83374   0.47653   0.00000  Uiso   1.00
C293   C     0.14707   0.78667   0.04632   0.00000  Uiso   1.00
C294   C     0.15152   0.73523   0.25123   0.00000  Uiso   1.00
C295   C     0.18626   0.88000   0.45368   0.00000  Uiso   1.00
C296   C     0.20723   0.92347   0.02455   0.00000  Uiso   1.00
C297   C     0.12610   0.74320   0.47545   0.00000  Uiso   1.00
C298   C     0.20649   0.92415   0.47808   0.00000  Uiso   1.00
C299   C     0.12684   0.74252   0.02192   0.00000  Uiso   1.00
C300   C     0.18972   0.98603   0.24813   0.00000  Uiso   1.00
C301   C     0.14361   0.68064   0.25187   0.00000  Uiso   1.00
C302   C     0.16708   0.83396   0.33623   0.00000  Uiso   1.00
C303   C     0.16626   0.83271   0.16377   0.00000  Uiso   1.00
C304   C     0.14798   0.78591   0.09315   0.00000  Uiso   1.00
H305   H     0.19911   0.91105   0.11390   0.00000  Uiso   1.00
H306   H     0.13422   0.75562   0.38610   0.00000  Uiso   1.00
H307   H     0.22268   0.95954   0.46147   0.00000  Uiso   1.00
H308   H     0.11066   0.70713   0.03853   0.00000  Uiso   1.00
H309   H     0.23331   0.66969   0.24463   0.00000  Uiso   1.00
H310   H     0.10003   0.99698   0.25537   0.00000  Uiso   1.00
N311   N     0.31678   0.81932   0.23783   0.00000  Uiso   1.00
N312   N     0.01656   0.84735   0.26217   0.00000  Uiso   1.00
O313   O     0.12975   0.91286   0.25298   0.00000  Uiso   1.00
O314   O     0.20358   0.75381   0.24701   0.00000  Uiso   1.00
O315   O     0.22613   0.90387   0.24518   0.00000  Uiso   1.00
O316   O     0.10720   0.76279   0.25481   0.00000  Uiso   1.00
O317   O     0.11847   0.83784   0.31997   0.00000  Uiso   1.00
O318   O     0.21486   0.82883   0.18002   0.00000  Uiso   1.00
O319   O     0.21485   0.82885   0.31217   0.00000  Uiso   1.00
O320   O     0.11848   0.83781   0.18782   0.00000  Uiso   1.00
Zn321  Zn    0.10231   0.83933   0.25521   0.00000  Uiso   1.00
Zn322  Zn    0.23102   0.82734   0.24479   0.00000  Uiso   1.00
Br323  Br    0.46204   0.72253   0.12616   0.00000  Uiso   1.00
Br324  Br    0.53796   0.94413   0.37384   0.00000  Uiso   1.00
Br325  Br    0.57217   0.98537   0.05409   0.00000  Uiso   1.00
Br326  Br    0.42783   0.68129   0.44590   0.00000  Uiso   1.00
Br327  Br    0.34562   0.76729   0.19818   0.00000  Uiso   1.00
Br328  Br    0.65438   0.89938   0.30182   0.00000  Uiso   1.00
C329   C     0.51514   0.93144   0.24877   0.00000  Uiso   1.00
C330   C     0.51868   0.88075   0.40685   0.00000  Uiso   1.00
C331   C     0.49902   0.83175   0.11614   0.00000  Uiso   1.00
C332   C     0.50098   0.83492   0.38386   0.00000  Uiso   1.00
C333   C     0.51850   0.87703   0.09411   0.00000  Uiso   1.00
C334   C     0.48150   0.78964   0.40589   0.00000  Uiso   1.00
C335   C     0.51989   0.87822   0.04755   0.00000  Uiso   1.00
C336   C     0.48011   0.78845   0.45245   0.00000  Uiso   1.00
C337   C     0.49998   0.83292   0.02347   0.00000  Uiso   1.00
C338   C     0.50002   0.83374   0.47653   0.00000  Uiso   1.00
C339   C     0.48041   0.78667   0.04632   0.00000  Uiso   1.00
C340   C     0.48486   0.73523   0.25123   0.00000  Uiso   1.00
C341   C     0.51959   0.88000   0.45368   0.00000  Uiso   1.00
C342   C     0.54057   0.92347   0.02455   0.00000  Uiso   1.00
C343   C     0.45943   0.74320   0.47545   0.00000  Uiso   1.00
C344   C     0.53983   0.92415   0.47808   0.00000  Uiso   1.00
C345   C     0.46017   0.74252   0.02192   0.00000  Uiso   1.00
C346   C     0.52306   0.98603   0.24813   0.00000  Uiso   1.00
C347   C     0.47694   0.68064   0.25187   0.00000  Uiso   1.00
C348   C     0.50041   0.83396   0.33623   0.00000  Uiso   1.00
C349   C     0.49959   0.83271   0.16377   0.00000  Uiso   1.00
C350   C     0.48132   0.78591   0.09315   0.00000  Uiso   1.00
H351   H     0.53244   0.91105   0.11390   0.00000  Uiso   1.00
H352   H     0.46756   0.75562   0.38610   0.00000  Uiso   1.00
H353   H     0.55601   0.95954   0.46147   0.00000  Uiso   1.00
H354   H     0.44399   0.70713   0.03853   0.00000  Uiso   1.00
H355   H     0.56664   0.66969   0.24463   0.00000  Uiso   1.00
H356   H     0.43336   0.99698   0.25537   0.00000  Uiso   1.00
N357   N     0.65011   0.81932   0.23783   0.00000  Uiso   1.00
N358   N     0.34989   0.84735   0.26217   0.00000  Uiso   1.00
O359   O     0.46308   0.91286   0.25298   0.00000  Uiso   1.00
O360   O     0.53692   0.75381   0.24701   0.00000  Uiso   1.00
O361   O     0.55946   0.90387   0.24518   0.00000  Uiso   1.00
O362   O     0.44054   0.76279   0.25481   0.00000  Uiso   1.00
O363   O     0.45181   0.83784   0.31997   0.00000  Uiso   1.00
O364   O     0.54819   0.82883   0.18002   0.00000  Uiso   1.00
O365   O     0.54819   0.82885   0.31217   0.00000  Uiso   1.00
O366   O     0.45181   0.83781   0.18782   0.00000  Uiso   1.00
Zn367  Zn    0.43565   0.83933   0.25521   0.00000  Uiso   1.00
Zn368  Zn    0.56435   0.82734   0.24479   0.00000  Uiso   1.00
Br369  Br    0.79538   0.72253   0.12616   0.00000  Uiso   1.00
Br370  Br    0.87129   0.94413   0.37384   0.00000  Uiso   1.00
Br371  Br    0.90550   0.98537   0.05409   0.00000  Uiso   1.00
Br372  Br    0.76117   0.68129   0.44590   0.00000  Uiso   1.00
Br373  Br    0.67895   0.76729   0.19818   0.00000  Uiso   1.00
Br374  Br    0.98772   0.89938   0.30182   0.00000  Uiso   1.00
C375   C     0.84848   0.93144   0.24877   0.00000  Uiso   1.00
C376   C     0.85202   0.88075   0.40685   0.00000  Uiso   1.00
C377   C     0.83235   0.83175   0.11614   0.00000  Uiso   1.00
C378   C     0.83431   0.83492   0.38386   0.00000  Uiso   1.00
C379   C     0.85183   0.87703   0.09411   0.00000  Uiso   1.00
C380   C     0.81483   0.78964   0.40589   0.00000  Uiso   1.00
C381   C     0.85323   0.87822   0.04755   0.00000  Uiso   1.00
C382   C     0.81344   0.78845   0.45245   0.00000  Uiso   1.00
C383   C     0.83331   0.83292   0.02347   0.00000  Uiso   1.00
C384   C     0.83336   0.83374   0.47653   0.00000  Uiso   1.00
C385   C     0.81374   0.78667   0.04632   0.00000  Uiso   1.00
C386   C     0.81819   0.73523   0.25123   0.00000  Uiso   1.00
C387   C     0.85293   0.88000   0.45368   0.00000  Uiso   1.00
C388   C     0.87390   0.92347   0.02455   0.00000  Uiso   1.00
C389   C     0.79277   0.74320   0.47545   0.00000  Uiso   1.00
C390   C     0.87316   0.92415   0.47808   0.00000  Uiso   1.00
C391   C     0.79350   0.74252   0.02192   0.00000  Uiso   1.00
C392   C     0.85639   0.98603   0.24813   0.00000  Uiso   1.00
C393   C     0.81027   0.68064   0.25187   0.00000  Uiso   1.00
C394   C     0.83374   0.83396   0.33623   0.00000  Uiso   1.00
C395   C     0.83292   0.83271   0.16377   0.00000  Uiso   1.00
C396   C     0.81465   0.78591   0.09315   0.00000  Uiso   1.00
H397   H     0.86578   0.91105   0.11390   0.00000  Uiso   1.00
H398   H     0.80089   0.75562   0.38610   0.00000  Uiso   1.00
H399   H     0.88934   0.95954   0.46147   0.00000  Uiso   1.00
H400   H     0.77732   0.70713   0.03853   0.00000  Uiso   1.00
H401   H     0.89997   0.66969   0.24463   0.00000  Uiso   1.00
H402   H     0.76669   0.99698   0.25537   0.00000  Uiso   1.00
N403   N     0.98344   0.81932   0.23783   0.00000  Uiso   1.00
N404   N     0.68322   0.84735   0.26217   0.00000  Uiso   1.00
O405   O     0.79642   0.91286   0.25298   0.00000  Uiso   1.00
O406   O     0.87025   0.75381   0.24701   0.00000  Uiso   1.00
O407   O     0.89280   0.90387   0.24518   0.00000  Uiso   1.00
O408   O     0.77387   0.76279   0.25481   0.00000  Uiso   1.00
O409   O     0.78514   0.83784   0.31997   0.00000  Uiso   1.00
O410   O     0.88153   0.82883   0.18002   0.00000  Uiso   1.00
O411   O     0.88152   0.82885   0.31217   0.00000  Uiso   1.00
O412   O     0.78515   0.83781   0.18782   0.00000  Uiso   1.00
Zn413  Zn    0.76898   0.83933   0.25521   0.00000  Uiso   1.00
Zn414  Zn    0.89769   0.82734   0.24479   0.00000  Uiso   1.00
Br415  Br    0.12871   0.05587   0.62616   0.00000  Uiso   1.00
Br416  Br    0.20462   0.27747   0.87384   0.00000  Uiso   1.00
Br417  Br    0.23883   0.31871   0.55409   0.00000  Uiso   1.00
Br418  Br    0.09450   0.01463   0.94590   0.00000  Uiso   1.00
Br419  Br    0.01228   0.10062   0.69818   0.00000  Uiso   1.00
Br420  Br    0.32105   0.23271   0.80182   0.00000  Uiso   1.00
C421   C     0.18181   0.26477   0.74877   0.00000  Uiso   1.00
C422   C     0.18535   0.21409   0.90685   0.00000  Uiso   1.00
C423   C     0.16569   0.16508   0.61614   0.00000  Uiso   1.00
C424   C     0.16765   0.16825   0.88386   0.00000  Uiso   1.00
C425   C     0.18517   0.21036   0.59411   0.00000  Uiso   1.00
C426   C     0.14817   0.12297   0.90589   0.00000  Uiso   1.00
C427   C     0.18656   0.21155   0.54755   0.00000  Uiso   1.00
C428   C     0.14677   0.12178   0.95245   0.00000  Uiso   1.00
C429   C     0.16664   0.16626   0.52347   0.00000  Uiso   1.00
C430   C     0.16669   0.16708   0.97653   0.00000  Uiso   1.00
C431   C     0.14707   0.12000   0.54632   0.00000  Uiso   1.00
C432   C     0.15152   0.06856   0.75123   0.00000  Uiso   1.00
C433   C     0.18626   0.21333   0.95368   0.00000  Uiso   1.00
C434   C     0.20723   0.25680   0.52455   0.00000  Uiso   1.00
C435   C     0.12610   0.07653   0.97545   0.00000  Uiso   1.00
C436   C     0.20649   0.25748   0.97808   0.00000  Uiso   1.00
C437   C     0.12684   0.07585   0.52192   0.00000  Uiso   1.00
C438   C     0.18972   0.31936   0.74813   0.00000  Uiso   1.00
C439   C     0.14361   0.01397   0.75187   0.00000  Uiso   1.00
C440   C     0.16708   0.16729   0.83623   0.00000  Uiso   1.00
C441   C     0.16626   0.16604   0.66377   0.00000  Uiso   1.00
C442   C     0.14798   0.11925   0.59315   0.00000  Uiso   1.00
H443   H     0.19911   0.24438   0.61390   0.00000  Uiso   1.00
H444   H     0.13422   0.08895   0.88610   0.00000  Uiso   1.00
H445   H     0.22268   0.29287   0.96147   0.00000  Uiso   1.00
H446   H     0.11066   0.04046   0.53853   0.00000  Uiso   1.00
H447   H     0.23331   0.00302   0.74463   0.00000  Uiso   1.00
H448   H     0.10003   0.33031   0.75537   0.00000  Uiso   1.00
N449   N     0.31678   0.15265   0.73783   0.00000  Uiso   1.00
N450   N     0.01656   0.18068   0.76217   0.00000  Uiso   1.00
O451   O     0.12975   0.24619   0.75298   0.00000  Uiso   1.00
O452   O     0.20358   0.08714   0.74701   0.00000  Uiso   1.00
O453   O     0.22613   0.23721   0.74518   0.00000  Uiso   1.00
O454   O     0.10720   0.09613   0.75481   0.00000  Uiso   1.00
O455   O     0.11847   0.17117   0.81997   0.00000  Uiso   1.00
O456   O     0.21486   0.16216   0.68002   0.00000  Uiso   1.00
O457   O     0.21485   0.16219   0.81217   0.00000  Uiso   1.00
O458   O     0.11848   0.17115   0.68782   0.00000  Uiso   1.00
Zn459  Zn    0.10231   0.17266   0.75521   0.00000  Uiso   1.00
Zn460  Zn    0.23102   0.16067   0.74479   0.00000  Uiso   1.00
Br461  Br    0.46204   0.05587   0.62616   0.00000  Uiso   1.00
Br462  Br    0.53796   0.27747   0.87384   0.00000  Uiso   1.00
Br463  Br    0.57217   0.31871   0.55409   0.00000  Uiso   1.00
Br464  Br    0.42783   0.01463   0.94590   0.00000  Uiso   1.00
Br465  Br    0.34562   0.10062   0.69818   0.00000  Uiso   1.00
Br466  Br    0.65438   0.23271   0.80182   0.00000  Uiso   1.00
C467   C     0.51514   0.26477   0.74877   0.00000  Uiso   1.00
C468   C     0.51868   0.21409   0.90685   0.00000  Uiso   1.00
C469   C     0.49902   0.16508   0.61614   0.00000  Uiso   1.00
C470   C     0.50098   0.16825   0.88386   0.00000  Uiso   1.00
C471   C     0.51850   0.21036   0.59411   0.00000  Uiso   1.00
C472   C     0.48150   0.12297   0.90589   0.00000  Uiso   1.00
C473   C     0.51989   0.21155   0.54755   0.00000  Uiso   1.00
C474   C     0.48011   0.12178   0.95245   0.00000  Uiso   1.00
C475   C     0.49998   0.16626   0.52347   0.00000  Uiso   1.00
C476   C     0.50002   0.16708   0.97653   0.00000  Uiso   1.00
C477   C     0.48041   0.12000   0.54632   0.00000  Uiso   1.00
C478   C     0.48486   0.06856   0.75123   0.00000  Uiso   1.00
C479   C     0.51959   0.21333   0.95368   0.00000  Uiso   1.00
C480   C     0.54057   0.25680   0.52455   0.00000  Uiso   1.00
C481   C     0.45943   0.07653   0.97545   0.00000  Uiso   1.00
C482   C     0.53983   0.25748   0.97808   0.00000  Uiso   1.00
C483   C     0.46017   0.07585   0.52192   0.00000  Uiso   1.00
C484   C     0.52306   0.31936   0.74813   0.00000  Uiso   1.00
C485   C     0.47694   0.01397   0.75187   0.00000  Uiso   1.00
C486   C     0.50041   0.16729   0.83623   0.00000  Uiso   1.00
C487   C     0.49959   0.16604   0.66377   0.00000  Uiso   1.00
C488   C     0.48132   0.11925   0.59315   0.00000  Uiso   1.00
H489   H     0.53244   0.24438   0.61390   0.00000  Uiso   1.00
H490   H     0.46756   0.08895   0.88610   0.00000  Uiso   1.00
H491   H     0.55601   0.29287   0.96147   0.00000  Uiso   1.00
H492   H     0.44399   0.04046   0.53853   0.00000  Uiso   1.00
H493   H     0.56664   0.00302   0.74463   0.00000  Uiso   1.00
H494   H     0.43336   0.33031   0.75537   0.00000  Uiso   1.00
N495   N     0.65011   0.15265   0.73783   0.00000  Uiso   1.00
N496   N     0.34989   0.18068   0.76217   0.00000  Uiso   1.00
O497   O     0.46308   0.24619   0.75298   0.00000  Uiso   1.00
O498   O     0.53692   0.08714   0.74701   0.00000  Uiso   1.00
O499   O     0.55946   0.23721   0.74518   0.00000  Uiso   1.00
O500   O     0.44054   0.09613   0.75481   0.00000  Uiso   1.00
O501   O     0.45181   0.17117   0.81997   0.00000  Uiso   1.00
O502   O     0.54819   0.16216   0.68002   0.00000  Uiso   1.00
O503   O     0.54819   0.16219   0.81217   0.00000  Uiso   1.00
O504   O     0.45181   0.17115   0.68782   0.00000  Uiso   1.00
Zn505  Zn    0.43565   0.17266   0.75521   0.00000  Uiso   1.00
Zn506  Zn    0.56435   0.16067   0.74479   0.00000  Uiso   1.00
Br507  Br    0.79538   0.05587   0.62616   0.00000  Uiso   1.00
Br508  Br    0.87129   0.27747   0.87384   0.00000  Uiso   1.00
Br509  Br    0.90550   0.31871   0.55409   0.00000  Uiso   1.00
Br510  Br    0.76117   0.01463   0.94590   0.00000  Uiso   1.00
Br511  Br    0.67895   0.10062   0.69818   0.00000  Uiso   1.00
Br512  Br    0.98772   0.23271   0.80182   0.00000  Uiso   1.00
C513   C     0.84848   0.26477   0.74877   0.00000  Uiso   1.00
C514   C     0.85202   0.21409   0.90685   0.00000  Uiso   1.00
C515   C     0.83235   0.16508   0.61614   0.00000  Uiso   1.00
C516   C     0.83431   0.16825   0.88386   0.00000  Uiso   1.00
C517   C     0.85183   0.21036   0.59411   0.00000  Uiso   1.00
C518   C     0.81483   0.12297   0.90589   0.00000  Uiso   1.00
C519   C     0.85323   0.21155   0.54755   0.00000  Uiso   1.00
C520   C     0.81344   0.12178   0.95245   0.00000  Uiso   1.00
C521   C     0.83331   0.16626   0.52347   0.00000  Uiso   1.00
C522   C     0.83336   0.16708   0.97653   0.00000  Uiso   1.00
C523   C     0.81374   0.12000   0.54632   0.00000  Uiso   1.00
C524   C     0.81819   0.06856   0.75123   0.00000  Uiso   1.00
C525   C     0.85293   0.21333   0.95368   0.00000  Uiso   1.00
C526   C     0.87390   0.25680   0.52455   0.00000  Uiso   1.00
C527   C     0.79277   0.07653   0.97545   0.00000  Uiso   1.00
C528   C     0.87316   0.25748   0.97808   0.00000  Uiso   1.00
C529   C     0.79350   0.07585   0.52192   0.00000  Uiso   1.00
C530   C     0.85639   0.31936   0.74813   0.00000  Uiso   1.00
C531   C     0.81027   0.01397   0.75187   0.00000  Uiso   1.00
C532   C     0.83374   0.16729   0.83623   0.00000  Uiso   1.00
C533   C     0.83292   0.16604   0.66377   0.00000  Uiso   1.00
C534   C     0.81465   0.11925   0.59315   0.00000  Uiso   1.00
H535   H     0.86578   0.24438   0.61390   0.00000  Uiso   1.00
H536   H     0.80089   0.08895   0.88610   0.00000  Uiso   1.00
H537   H     0.88934   0.29287   0.96147   0.00000  Uiso   1.00
H538   H     0.77732   0.04046   0.53853   0.00000  Uiso   1.00
H539   H     0.89997   0.00302   0.74463   0.00000  Uiso   1.00
H540   H     0.76669   0.33031   0.75537   0.00000  Uiso   1.00
N541   N     0.98344   0.15265   0.73783   0.00000  Uiso   1.00
N542   N     0.68322   0.18068   0.76217   0.00000  Uiso   1.00
O543   O     0.79642   0.24619   0.75298   0.00000  Uiso   1.00
O544   O     0.87025   0.08714   0.74701   0.00000  Uiso   1.00
O545   O     0.89280   0.23721   0.74518   0.00000  Uiso   1.00
O546   O     0.77387   0.09613   0.75481   0.00000  Uiso   1.00
O547   O     0.78514   0.17117   0.81997   0.00000  Uiso   1.00
O548   O     0.88153   0.16216   0.68002   0.00000  Uiso   1.00
O549   O     0.88152   0.16219   0.81217   0.00000  Uiso   1.00
O550   O     0.78515   0.17115   0.68782   0.00000  Uiso   1.00
Zn551  Zn    0.76898   0.17266   0.75521   0.00000  Uiso   1.00
Zn552  Zn    0.89769   0.16067   0.74479   0.00000  Uiso   1.00
Br553  Br    0.12871   0.38920   0.62616   0.00000  Uiso   1.00
Br554  Br    0.20462   0.61080   0.87384   0.00000  Uiso   1.00
Br555  Br    0.23883   0.65204   0.55409   0.00000  Uiso   1.00
Br556  Br    0.09450   0.34796   0.94590   0.00000  Uiso   1.00
Br557  Br    0.01228   0.43395   0.69818   0.00000  Uiso   1.00
Br558  Br    0.32105   0.56605   0.80182   0.00000  Uiso   1.00
C559   C     0.18181   0.59810   0.74877   0.00000  Uiso   1.00
C560   C     0.18535   0.54742   0.90685   0.00000  Uiso   1.00
C561   C     0.16569   0.49841   0.61614   0.00000  Uiso   1.00
C562   C     0.16765   0.50159   0.88386   0.00000  Uiso   1.00
C563   C     0.18517   0.54370   0.59411   0.00000  Uiso   1.00
C564   C     0.14817   0.45630   0.90589   0.00000  Uiso   1.00
C565   C     0.18656   0.54488   0.54755   0.00000  Uiso   1.00
C566   C     0.14677   0.45512   0.95245   0.00000  Uiso   1.00
C567   C     0.16664   0.49959   0.52347   0.00000  Uiso   1.00
C568   C     0.16669   0.50041   0.97653   0.00000  Uiso   1.00
C569   C     0.14707   0.45333   0.54632   0.00000  Uiso   1.00
C570   C     0.15152   0.40190   0.75123   0.00000  Uiso   1.00
C571   C     0.18626   0.54667   0.95368   0.00000  Uiso   1.00
C572   C     0.20723   0.59013   0.52455   0.00000  Uiso   1.00
C573   C     0.12610   0.40987   0.97545   0.00000  Uiso   1.00
C574   C     0.20649   0.59082   0.97808   0.00000  Uiso   1.00
C575   C     0.12684   0.40918   0.52192   0.00000  Uiso   1.00
C576   C     0.18972   0.65270   0.74813   0.00000  Uiso   1.00
C577   C     0.14361   0.34730   0.75187   0.00000  Uiso   1.00
C578   C     0.16708   0.50062   0.83623   0.00000  Uiso   1.00
C579   C     0.16626   0.49938   0.66377   0.00000  Uiso   1.00
C580   C     0.14798   0.45258   0.59315   0.00000  Uiso   1.00
H581   H     0.19911   0.57771   0.61390   0.00000  Uiso   1.00
H582   H     0.13422   0.42229   0.88610   0.00000  Uiso   1.00
H583   H     0.22268   0.62621   0.96147   0.00000  Uiso   1.00
H584   H     0.11066   0.37379   0.53853   0.00000  Uiso   1.00
H585   H     0.23331   0.33636   0.74463   0.00000  Uiso   1.00
H586   H     0.10003   0.66364   0.75537   0.00000  Uiso   1.00
N587   N     0.31678   0.48598   0.73783   0.00000  Uiso   1.00
N588   N     0.01656   0.51402   0.76217   0.00000  Uiso   1.00
O589   O     0.12975   0.57952   0.75298   0.00000  Uiso   1.00
O590   O     0.20358   0.42048   0.74701   0.00000  Uiso   1.00
O591   O     0.22613   0.57054   0.74518   0.00000  Uiso   1.00
O592   O     0.10720   0.42946   0.75481   0.00000  Uiso   1.00
O593   O     0.11847   0.50450   0.81997   0.00000  Uiso   1.00
O594   O     0.21486   0.49550   0.68002   0.00000  Uiso   1.00
O595   O     0.21485   0.49552   0.81217   0.00000  Uiso   1.00
O596   O     0.11848   0.50448   0.68782   0.00000  Uiso   1.00
Zn597  Zn    0.10231   0.50600   0.75521   0.00000  Uiso   1.00
Zn598  Zn    0.23102   0.49400   0.74479   0.00000  Uiso   1.00
Br599  Br    0.46204   0.38920   0.62616   0.00000  Uiso   1.00
Br600  Br    0.53796   0.61080   0.87384   0.00000  Uiso   1.00
Br601  Br    0.57217   0.65204   0.55409   0.00000  Uiso   1.00
Br602  Br    0.42783   0.34796   0.94590   0.00000  Uiso   1.00
Br603  Br    0.34562   0.43395   0.69818   0.00000  Uiso   1.00
Br604  Br    0.65438   0.56605   0.80182   0.00000  Uiso   1.00
C605   C     0.51514   0.59810   0.74877   0.00000  Uiso   1.00
C606   C     0.51868   0.54742   0.90685   0.00000  Uiso   1.00
C607   C     0.49902   0.49841   0.61614   0.00000  Uiso   1.00
C608   C     0.50098   0.50159   0.88386   0.00000  Uiso   1.00
C609   C     0.51850   0.54370   0.59411   0.00000  Uiso   1.00
C610   C     0.48150   0.45630   0.90589   0.00000  Uiso   1.00
C611   C     0.51989   0.54488   0.54755   0.00000  Uiso   1.00
C612   C     0.48011   0.45512   0.95245   0.00000  Uiso   1.00
C613   C     0.49998   0.49959   0.52347   0.00000  Uiso   1.00
C614   C     0.50002   0.50041   0.97653   0.00000  Uiso   1.00
C615   C     0.48041   0.45333   0.54632   0.00000  Uiso   1.00
C616   C     0.48486   0.40190   0.75123   0.00000  Uiso   1.00
C617   C     0.51959   0.54667   0.95368   0.00000  Uiso   1.00
C618   C     0.54057   0.59013   0.52455   0.00000  Uiso   1.00
C619   C     0.45943   0.40987   0.97545   0.00000  Uiso   1.00
C620   C     0.53983   0.59082   0.97808   0.00000  Uiso   1.00
C621   C     0.46017   0.40918   0.52192   0.00000  Uiso   1.00
C622   C     0.52306   0.65270   0.74813   0.00000  Uiso   1.00
C623   C     0.47694   0.34730   0.75187   0.00000  Uiso   1.00
C624   C     0.50041   0.50062   0.83623   0.00000  Uiso   1.00
C625   C     0.49959   0.49938   0.66377   0.00000  Uiso   1.00
C626   C     0.48132   0.45258   0.59315   0.00000  Uiso   1.00
H627   H     0.53244   0.57771   0.61390   0.00000  Uiso   1.00
H628   H     0.46756   0.42229   0.88610   0.00000  Uiso   1.00
H629   H     0.55601   0.62621   0.96147   0.00000  Uiso   1.00
H630   H     0.44399   0.37379   0.53853   0.00000  Uiso   1.00
H631   H     0.56664   0.33636   0.74463   0.00000  Uiso   1.00
H632   H     0.43336   0.66364   0.75537   0.00000  Uiso   1.00
N633   N     0.65011   0.48598   0.73783   0.00000  Uiso   1.00
N634   N     0.34989   0.51402   0.76217   0.00000  Uiso   1.00
O635   O     0.46308   0.57952   0.75298   0.00000  Uiso   1.00
O636   O     0.53692   0.42048   0.74701   0.00000  Uiso   1.00
O637   O     0.55946   0.57054   0.74518   0.00000  Uiso   1.00
O638   O     0.44054   0.42946   0.75481   0.00000  Uiso   1.00
O639   O     0.45181   0.50450   0.81997   0.00000  Uiso   1.00
O640   O     0.54819   0.49550   0.68002   0.00000  Uiso   1.00
O641   O     0.54819   0.49552   0.81217   0.00000  Uiso   1.00
O642   O     0.45181   0.50448   0.68782   0.00000  Uiso   1.00
Zn643  Zn    0.43565   0.50600   0.75521   0.00000  Uiso   1.00
Zn644  Zn    0.56435   0.49400   0.74479   0.00000  Uiso   1.00
Br645  Br    0.79538   0.38920   0.62616   0.00000  Uiso   1.00
Br646  Br    0.87129   0.61080   0.87384   0.00000  Uiso   1.00
Br647  Br    0.90550   0.65204   0.55409   0.00000  Uiso   1.00
Br648  Br    0.76117   0.34796   0.94590   0.00000  Uiso   1.00
Br649  Br    0.67895   0.43395   0.69818   0.00000  Uiso   1.00
Br650  Br    0.98772   0.56605   0.80182   0.00000  Uiso   1.00
C651   C     0.84848   0.59810   0.74877   0.00000  Uiso   1.00
C652   C     0.85202   0.54742   0.90685   0.00000  Uiso   1.00
C653   C     0.83235   0.49841   0.61614   0.00000  Uiso   1.00
C654   C     0.83431   0.50159   0.88386   0.00000  Uiso   1.00
C655   C     0.85183   0.54370   0.59411   0.00000  Uiso   1.00
C656   C     0.81483   0.45630   0.90589   0.00000  Uiso   1.00
C657   C     0.85323   0.54488   0.54755   0.00000  Uiso   1.00
C658   C     0.81344   0.45512   0.95245   0.00000  Uiso   1.00
C659   C     0.83331   0.49959   0.52347   0.00000  Uiso   1.00
C660   C     0.83336   0.50041   0.97653   0.00000  Uiso   1.00
C661   C     0.81374   0.45333   0.54632   0.00000  Uiso   1.00
C662   C     0.81819   0.40190   0.75123   0.00000  Uiso   1.00
C663   C     0.85293   0.54667   0.95368   0.00000  Uiso   1.00
C664   C     0.87390   0.59013   0.52455   0.00000  Uiso   1.00
C665   C     0.79277   0.40987   0.97545   0.00000  Uiso   1.00
C666   C     0.87316   0.59082   0.97808   0.00000  Uiso   1.00
C667   C     0.79350   0.40918   0.52192   0.00000  Uiso   1.00
C668   C     0.85639   0.65270   0.74813   0.00000  Uiso   1.00
C669   C     0.81027   0.34730   0.75187   0.00000  Uiso   1.00
C670   C     0.83374   0.50062   0.83623   0.00000  Uiso   1.00
C671   C     0.83292   0.49938   0.66377   0.00000  Uiso   1.00
C672   C     0.81465   0.45258   0.59315   0.00000  Uiso   1.00
H673   H     0.86578   0.57771   0.61390   0.00000  Uiso   1.00
H674   H     0.80089   0.42229   0.88610   0.00000  Uiso   1.00
H675   H     0.88934   0.62621   0.96147   0.00000  Uiso   1.00
H676   H     0.77732   0.37379   0.53853   0.00000  Uiso   1.00
H677   H     0.89997   0.33636   0.74463   0.00000  Uiso   1.00
H678   H     0.76669   0.66364   0.75537   0.00000  Uiso   1.00
N679   N     0.98344   0.48598   0.73783   0.00000  Uiso   1.00
N680   N     0.68322   0.51402   0.76217   0.00000  Uiso   1.00
O681   O     0.79642   0.57952   0.75298   0.00000  Uiso   1.00
O682   O     0.87025   0.42048   0.74701   0.00000  Uiso   1.00
O683   O     0.89280   0.57054   0.74518   0.00000  Uiso   1.00
O684   O     0.77387   0.42946   0.75481   0.00000  Uiso   1.00
O685   O     0.78514   0.50450   0.81997   0.00000  Uiso   1.00
O686   O     0.88153   0.49550   0.68002   0.00000  Uiso   1.00
O687   O     0.88152   0.49552   0.81217   0.00000  Uiso   1.00
O688   O     0.78515   0.50448   0.68782   0.00000  Uiso   1.00
Zn689  Zn    0.76898   0.50600   0.75521   0.00000  Uiso   1.00
Zn690  Zn    0.89769   0.49400   0.74479   0.00000  Uiso   1.00
Br691  Br    0.12871   0.72253   0.62616   0.00000  Uiso   1.00
Br692  Br    0.20462   0.94413   0.87384   0.00000  Uiso   1.00
Br693  Br    0.23883   0.98537   0.55409   0.00000  Uiso   1.00
Br694  Br    0.09450   0.68129   0.94590   0.00000  Uiso   1.00
Br695  Br    0.01228   0.76729   0.69818   0.00000  Uiso   1.00
Br696  Br    0.32105   0.89938   0.80182   0.00000  Uiso   1.00
C697   C     0.18181   0.93144   0.74877   0.00000  Uiso   1.00
C698   C     0.18535   0.88075   0.90685   0.00000  Uiso   1.00
C699   C     0.16569   0.83175   0.61614   0.00000  Uiso   1.00
C700   C     0.16765   0.83492   0.88386   0.00000  Uiso   1.00
C701   C     0.18517   0.87703   0.59411   0.00000  Uiso   1.00
C702   C     0.14817   0.78964   0.90589   0.00000  Uiso   1.00
C703   C     0.18656   0.87822   0.54755   0.00000  Uiso   1.00
C704   C     0.14677   0.78845   0.95245   0.00000  Uiso   1.00
C705   C     0.16664   0.83292   0.52347   0.00000  Uiso   1.00
C706   C     0.16669   0.83374   0.97653   0.00000  Uiso   1.00
C707   C     0.14707   0.78667   0.54632   0.00000  Uiso   1.00
C708   C     0.15152   0.73523   0.75123   0.00000  Uiso   1.00
C709   C     0.18626   0.88000   0.95368   0.00000  Uiso   1.00
C710   C     0.20723   0.92347   0.52455   0.00000  Uiso   1.00
C711   C     0.12610   0.74320   0.97545   0.00000  Uiso   1.00
C712   C     0.20649   0.92415   0.97808   0.00000  Uiso   1.00
C713   C     0.12684   0.74252   0.52192   0.00000  Uiso   1.00
C714   C     0.18972   0.98603   0.74813   0.00000  Uiso   1.00
C715   C     0.14361   0.68064   0.75187   0.00000  Uiso   1.00
C716   C     0.16708   0.83396   0.83623   0.00000  Uiso   1.00
C717   C     0.16626   0.83271   0.66377   0.00000  Uiso   1.00
C718   C     0.14798   0.78591   0.59315   0.00000  Uiso   1.00
H719   H     0.19911   0.91105   0.61390   0.00000  Uiso   1.00
H720   H     0.13422   0.75562   0.88610   0.00000  Uiso   1.00
H721   H     0.22268   0.95954   0.96147   0.00000  Uiso   1.00
H722   H     0.11066   0.70713   0.53853   0.00000  Uiso   1.00
H723   H     0.23331   0.66969   0.74463   0.00000  Uiso   1.00
H724   H     0.10003   0.99698   0.75537   0.00000  Uiso   1.00
N725   N     0.31678   0.81932   0.73783   0.00000  Uiso   1.00
N726   N     0.01656   0.84735   0.76217   0.00000  Uiso   1.00
O727   O     0.12975   0.91286   0.75298   0.00000  Uiso   1.00
O728   O     0.20358   0.75381   0.74701   0.00000  Uiso   1.00
O729   O     0.22613   0.90387   0.74518   0.00000  Uiso   1.00
O730   O     0.10720   0.76279   0.75481   0.00000  Uiso   1.00
O731   O     0.11847   0.83784   0.81997   0.00000  Uiso   1.00
O732   O     0.21486   0.82883   0.68002   0.00000  Uiso   1.00
O733   O     0.21485   0.82885   0.81217   0.00000  Uiso   1.00
O734   O     0.11848   0.83781   0.68782   0.00000  Uiso   1.00
Zn735  Zn    0.10231   0.83933   0.75521   0.00000  Uiso   1.00
Zn736  Zn    0.23102   0.82734   0.74479   0.00000  Uiso   1.00
Br737  Br    0.46204   0.72253   0.62616   0.00000  Uiso   1.00
Br738  Br    0.53796   0.94413   0.87384   0.00000  Uiso   1.00
Br739  Br    0.57217   0.98537   0.55409   0.00000  Uiso   1.00
Br740  Br    0.42783   0.68129   0.94590   0.00000  Uiso   1.00
Br741  Br    0.34562   0.76729   0.69818   0.00000  Uiso   1.00
Br742  Br    0.65438   0.89938   0.80182   0.00000  Uiso   1.00
C743   C     0.51514   0.93144   0.74877   0.00000  Uiso   1.00
C744   C     0.51868   0.88075   0.90685   0.00000  Uiso   1.00
C745   C     0.49902   0.83175   0.61614   0.00000  Uiso   1.00
C746   C     0.50098   0.83492   0.88386   0.00000  Uiso   1.00
C747   C     0.51850   0.87703   0.59411   0.00000  Uiso   1.00
C748   C     0.48150   0.78964   0.90589   0.00000  Uiso   1.00
C749   C     0.51989   0.87822   0.54755   0.00000  Uiso   1.00
C750   C     0.48011   0.78845   0.95245   0.00000  Uiso   1.00
C751   C     0.49998   0.83292   0.52347   0.00000  Uiso   1.00
C752   C     0.50002   0.83374   0.97653   0.00000  Uiso   1.00
C753   C     0.48041   0.78667   0.54632   0.00000  Uiso   1.00
C754   C     0.48486   0.73523   0.75123   0.00000  Uiso   1.00
C755   C     0.51959   0.88000   0.95368   0.00000  Uiso   1.00
C756   C     0.54057   0.92347   0.52455   0.00000  Uiso   1.00
C757   C     0.45943   0.74320   0.97545   0.00000  Uiso   1.00
C758   C     0.53983   0.92415   0.97808   0.00000  Uiso   1.00
C759   C     0.46017   0.74252   0.52192   0.00000  Uiso   1.00
C760   C     0.52306   0.98603   0.74813   0.00000  Uiso   1.00
C761   C     0.47694   0.68064   0.75187   0.00000  Uiso   1.00
C762   C     0.50041   0.83396   0.83623   0.00000  Uiso   1.00
C763   C     0.49959   0.83271   0.66377   0.00000  Uiso   1.00
C764   C     0.48132   0.78591   0.59315   0.00000  Uiso   1.00
H765   H     0.53244   0.91105   0.61390   0.00000  Uiso   1.00
H766   H     0.46756   0.75562   0.88610   0.00000  Uiso   1.00
H767   H     0.55601   0.95954   0.96147   0.00000  Uiso   1.00
H768   H     0.44399   0.70713   0.53853   0.00000  Uiso   1.00
H769   H     0.56664   0.66969   0.74463   0.00000  Uiso   1.00
H770   H     0.43336   0.99698   0.75537   0.00000  Uiso   1.00
N771   N     0.65011   0.81932   0.73783   0.00000  Uiso   1.00
N772   N     0.34989   0.84735   0.76217   0.00000  Uiso   1.00
O773   O     0.46308   0.91286   0.75298   0.00000  Uiso   1.00
O774   O     0.53692   0.75381   0.74701   0.00000  Uiso   1.00
O775   O     0.55946   0.90387   0.74518   0.00000  Uiso   1.00
O776   O     0.44054   0.76279   0.75481   0.00000  Uiso   1.00
O777   O     0.45181   0.83784   0.81997   0.00000  Uiso   1.00
O778   O     0.54819   0.82883   0.68002   0.00000  Uiso   1.00
O779   O     0.54819   0.82885   0.81217   0.00000  Uiso   1.00
O780   O     0.45181   0.83781   0.68782   0.00000  Uiso   1.00
Zn781  Zn    0.43565   0.83933   0.75521   0.00000  Uiso   1.00
Zn782  Zn    0.56435   0.82734   0.74479   0.00000  Uiso   1.00
Br783  Br    0.79538   0.72253   0.62616   0.00000  Uiso   1.00
Br784  Br    0.87129   0.94413   0.87384   0.00000  Uiso   1.00
Br785  Br    0.90550   0.98537   0.55409   0.00000  Uiso   1.00
Br786  Br    0.76117   0.68129   0.94590   0.00000  Uiso   1.00
Br787  Br    0.67895   0.76729   0.69818   0.00000  Uiso   1.00
Br788  Br    0.98772   0.89938   0.80182   0.00000  Uiso   1.00
C789   C     0.84848   0.93144   0.74877   0.00000  Uiso   1.00
C790   C     0.85202   0.88075   0.90685   0.00000  Uiso   1.00
C791   C     0.83235   0.83175   0.61614   0.00000  Uiso   1.00
C792   C     0.83431   0.83492   0.88386   0.00000  Uiso   1.00
C793   C     0.85183   0.87703   0.59411   0.00000  Uiso   1.00
C794   C     0.81483   0.78964   0.90589   0.00000  Uiso   1.00
C795   C     0.85323   0.87822   0.54755   0.00000  Uiso   1.00
C796   C     0.81344   0.78845   0.95245   0.00000  Uiso   1.00
C797   C     0.83331   0.83292   0.52347   0.00000  Uiso   1.00
C798   C     0.83336   0.83374   0.97653   0.00000  Uiso   1.00
C799   C     0.81374   0.78667   0.54632   0.00000  Uiso   1.00
C800   C     0.81819   0.73523   0.75123   0.00000  Uiso   1.00
C801   C     0.85293   0.88000   0.95368   0.00000  Uiso   1.00
C802   C     0.87390   0.92347   0.52455   0.00000  Uiso   1.00
C803   C     0.79277   0.74320   0.97545   0.00000  Uiso   1.00
C804   C     0.87316   0.92415   0.97808   0.00000  Uiso   1.00
C805   C     0.79350   0.74252   0.52192   0.00000  Uiso   1.00
C806   C     0.85639   0.98603   0.74813   0.00000  Uiso   1.00
C807   C     0.81027   0.68064   0.75187   0.00000  Uiso   1.00
C808   C     0.83374   0.83396   0.83623   0.00000  Uiso   1.00
C809   C     0.83292   0.83271   0.66377   0.00000  Uiso   1.00
C810   C     0.81465   0.78591   0.59315   0.00000  Uiso   1.00
H811   H     0.86578   0.91105   0.61390   0.00000  Uiso   1.00
H812   H     0.80089   0.75562   0.88610   0.00000  Uiso   1.00
H813   H     0.88934   0.95954   0.96147   0.00000  Uiso   1.00
H814   H     0.77732   0.70713   0.53853   0.00000  Uiso   1.00
H815   H     0.89997   0.66969   0.74463   0.00000  Uiso   1.00
H816   H     0.76669   0.99698   0.75537   0.00000  Uiso   1.00
N817   N     0.98344   0.81932   0.73783   0.00000  Uiso   1.00
N818   N     0.68322   0.84735   0.76217   0.00000  Uiso   1.00
O819   O     0.79642   0.91286   0.75298   0.00000  Uiso   1.00
O820   O     0.87025   0.75381   0.74701   0.00000  Uiso   1.00
O821   O     0.89280   0.90387   0.74518   0.00000  Uiso   1.00
O822   O     0.77387   0.76279   0.75481   0.00000  Uiso   1.00
O823   O     0.78514   0.83784   0.81997   0.00000  Uiso   1.00
O824   O     0.88153   0.82883   0.68002   0.00000  Uiso   1.00
O825   O     0.88152   0.82885   0.81217   0.00000  Uiso   1.00
O826   O     0.78515   0.83781   0.68782   0.00000  Uiso   1.00
Zn827  Zn    0.76898   0.83933   0.75521   0.00000  Uiso   1.00
Zn828  Zn    0.89769   0.82734   0.74479   0.00000  Uiso   1.00
loop_
_geom_bond_atom_site_label_1
_geom_bond_atom_site_label_2
_geom_bond_distance
_geom_bond_site_symmetry_2
_ccdc_geom_bond_type
Br1    C28     1.937   .     S
Br2    C8      1.937   .     S
Br3    C20     1.924   .     S
Br4    C21     1.924   .     S
Br5    N127    1.872   1_455 S
Br6    N82     1.872   .     S
C7     C24     1.400   .     S
C7     O39     1.294   .     A
C7     O37     1.285   .     A
C8     C19     1.397   .     A
C8     C10     1.396   .     A
C9     C11     1.387   .     A
C9     C27     1.418   .     S
C9     C28     1.396   .     A
C10    C26     1.418   .     S
C10    C12     1.387   .     A
C11    C13     1.385   .     A
C11    H29     1.083   .     S
C12    C14     1.385   .     A
C12    H30     1.083   .     S
C13    C15     1.417   .     A
C13    C20     1.407   .     A
C14    C21     1.407   .     A
C14    C16     1.417   .     A
C15    C17     1.419   .     A
C15    C430    1.398   1_554 S
C16    C19     1.419   .     A
C16    C429    1.398   .     S
C17    C23     1.402   .     A
C17    C28     1.397   .     A
C18    O38     1.285   .     A
C18    C25     1.400   .     S
C18    O40     1.294   .     A
C19    C22     1.402   .     A
C20    C436    1.386   1_554 S
C21    C437    1.386   .     S
C22    H31     1.081   .     S
C22    C434    1.386   .     S
C23    H32     1.081   .     S
C23    C435    1.386   1_554 S
C24    C163    1.335   .     S
C24    H171    1.088   .     S
C25    C300    1.335   1_545 S
C25    H310    1.088   1_545 S
C26    O43     1.295   .     A
C26    O41     1.291   .     A
C27    O42     1.291   .     A
C27    O44     1.295   .     A
H33    C300    1.088   1_545 S
H34    C163    1.088   .     S
N35    Zn46    2.038   .     S
N35    Br51    1.872   .     S
N35    N82     1.279   .     S
N36    Zn45    2.038   .     S
N36    N127    1.279   1_455 S
N36    Br98    1.872   1_455 S
O37    Zn45    1.953   .     S
O38    Zn46    1.953   .     S
O39    Zn46    1.972   .     S
O40    Zn45    1.972   .     S
O41    Zn45    1.998   .     S
O42    Zn46    1.998   .     S
O43    Zn46    2.010   .     S
O44    Zn45    2.010   .     S
Br47   C74     1.937   .     S
Br48   C54     1.937   .     S
Br49   C66     1.924   .     S
Br50   C67     1.924   .     S
Br52   N128    1.872   .     S
C53    C70     1.400   .     S
C53    O85     1.294   .     A
C53    O83     1.285   .     A
C54    C65     1.397   .     A
C54    C56     1.396   .     A
C55    C57     1.387   .     A
C55    C73     1.418   .     S
C55    C74     1.396   .     A
C56    C72     1.418   .     S
C56    C58     1.387   .     A
C57    C59     1.385   .     A
C57    H75     1.083   .     S
C58    C60     1.385   .     A
C58    H76     1.083   .     S
C59    C61     1.417   .     A
C59    C66     1.407   .     A
C60    C67     1.407   .     A
C60    C62     1.417   .     A
C61    C63     1.419   .     A
C61    C476    1.398   1_554 S
C62    C65     1.419   .     A
C62    C475    1.398   .     S
C63    C69     1.402   .     A
C63    C74     1.397   .     A
C64    O84     1.285   .     A
C64    C71     1.400   .     S
C64    O86     1.294   .     A
C65    C68     1.402   .     A
C66    C482    1.386   1_554 S
C67    C483    1.386   .     S
C68    H77     1.081   .     S
C68    C480    1.386   .     S
C69    H78     1.081   .     S
C69    C481    1.386   1_554 S
C70    C209    1.335   .     S
C70    H217    1.088   .     S
C71    C346    1.335   1_545 S
C71    H356    1.088   1_545 S
C72    O89     1.295   .     A
C72    O87     1.291   .     A
C73    O88     1.291   .     A
C73    O90     1.295   .     A
H79    C346    1.088   1_545 S
H80    C209    1.088   .     S
N81    Zn92    2.038   .     S
N81    Br97    1.872   .     S
N81    N128    1.279   .     S
N82    Zn91    2.038   .     S
O83    Zn91    1.953   .     S
O84    Zn92    1.953   .     S
O85    Zn92    1.972   .     S
O86    Zn91    1.972   .     S
O87    Zn91    1.998   .     S
O88    Zn92    1.998   .     S
O89    Zn92    2.010   .     S
O90    Zn91    2.010   .     S
Br93   C120    1.937   .     S
Br94   C100    1.937   .     S
Br95   C112    1.924   .     S
Br96   C113    1.924   .     S
Br98   N36     1.872   1_655 S
C99    C116    1.400   .     S
C99    O131    1.294   .     A
C99    O129    1.285   .     A
C100   C111    1.397   .     A
C100   C102    1.396   .     A
C101   C103    1.387   .     A
C101   C119    1.418   .     S
C101   C120    1.396   .     A
C102   C118    1.418   .     S
C102   C104    1.387   .     A
C103   C105    1.385   .     A
C103   H121    1.083   .     S
C104   C106    1.385   .     A
C104   H122    1.083   .     S
C105   C107    1.417   .     A
C105   C112    1.407   .     A
C106   C113    1.407   .     A
C106   C108    1.417   .     A
C107   C109    1.419   .     A
C107   C522    1.398   1_554 S
C108   C111    1.419   .     A
C108   C521    1.398   .     S
C109   C115    1.402   .     A
C109   C120    1.397   .     A
C110   O130    1.285   .     A
C110   C117    1.400   .     S
C110   O132    1.294   .     A
C111   C114    1.402   .     A
C112   C528    1.386   1_554 S
C113   C529    1.386   .     S
C114   H123    1.081   .     S
C114   C526    1.386   .     S
C115   H124    1.081   .     S
C115   C527    1.386   1_554 S
C116   C255    1.335   .     S
C116   H263    1.088   .     S
C117   C392    1.335   1_545 S
C117   H402    1.088   1_545 S
C118   O135    1.295   .     A
C118   O133    1.291   .     A
C119   O134    1.291   .     A
C119   O136    1.295   .     A
H125   C392    1.088   1_545 S
H126   C255    1.088   .     S
N127   Zn138   2.038   .     S
N127   Br5     1.872   1_655 S
N127   N36     1.279   1_655 S
N128   Zn137   2.038   .     S
O129   Zn137   1.953   .     S
O130   Zn138   1.953   .     S
O131   Zn138   1.972   .     S
O132   Zn137   1.972   .     S
O133   Zn137   1.998   .     S
O134   Zn138   1.998   .     S
O135   Zn138   2.010   .     S
O136   Zn137   2.010   .     S
Br139  C166    1.937   .     S
Br140  C146    1.937   .     S
Br141  C158    1.924   .     S
Br142  C159    1.924   .     S
Br143  N265    1.872   1_455 S
Br144  N220    1.872   .     S
C145   C162    1.400   .     S
C145   O177    1.294   .     A
C145   O175    1.285   .     A
C146   C157    1.397   .     A
C146   C148    1.396   .     A
C147   C149    1.387   .     A
C147   C165    1.418   .     S
C147   C166    1.396   .     A
C148   C164    1.418   .     S
C148   C150    1.387   .     A
C149   C151    1.385   .     A
C149   H167    1.083   .     S
C150   C152    1.385   .     A
C150   H168    1.083   .     S
C151   C153    1.417   .     A
C151   C158    1.407   .     A
C152   C159    1.407   .     A
C152   C154    1.417   .     A
C153   C155    1.419   .     A
C153   C568    1.398   1_554 S
C154   C157    1.419   .     A
C154   C567    1.398   .     S
C155   C161    1.402   .     A
C155   C166    1.397   .     A
C156   O176    1.285   .     A
C156   C163    1.400   .     S
C156   O178    1.294   .     A
C157   C160    1.402   .     A
C158   C574    1.386   1_554 S
C159   C575    1.386   .     S
C160   H169    1.081   .     S
C160   C572    1.386   .     S
C161   H170    1.081   .     S
C161   C573    1.386   1_554 S
C162   C301    1.335   .     S
C162   H309    1.088   .     S
C164   O181    1.295   .     A
C164   O179    1.291   .     A
C165   O180    1.291   .     A
C165   O182    1.295   .     A
H172   C301    1.088   .     S
N173   Zn184   2.038   .     S
N173   Br189   1.872   .     S
N173   N220    1.279   .     S
N174   Zn183   2.038   .     S
N174   N265    1.279   1_455 S
N174   Br236   1.872   1_455 S
O175   Zn183   1.953   .     S
O176   Zn184   1.953   .     S
O177   Zn184   1.972   .     S
O178   Zn183   1.972   .     S
O179   Zn183   1.998   .     S
O180   Zn184   1.998   .     S
O181   Zn184   2.010   .     S
O182   Zn183   2.010   .     S
Br185  C212    1.937   .     S
Br186  C192    1.937   .     S
Br187  C204    1.924   .     S
Br188  C205    1.924   .     S
Br190  N266    1.872   .     S
C191   C208    1.400   .     S
C191   O223    1.294   .     A
C191   O221    1.285   .     A
C192   C203    1.397   .     A
C192   C194    1.396   .     A
C193   C195    1.387   .     A
C193   C211    1.418   .     S
C193   C212    1.396   .     A
C194   C210    1.418   .     S
C194   C196    1.387   .     A
C195   C197    1.385   .     A
C195   H213    1.083   .     S
C196   C198    1.385   .     A
C196   H214    1.083   .     S
C197   C199    1.417   .     A
C197   C204    1.407   .     A
C198   C205    1.407   .     A
C198   C200    1.417   .     A
C199   C201    1.419   .     A
C199   C614    1.398   1_554 S
C200   C203    1.419   .     A
C200   C613    1.398   .     S
C201   C207    1.402   .     A
C201   C212    1.397   .     A
C202   O222    1.285   .     A
C202   C209    1.400   .     S
C202   O224    1.294   .     A
C203   C206    1.402   .     A
C204   C620    1.386   1_554 S
C205   C621    1.386   .     S
C206   H215    1.081   .     S
C206   C618    1.386   .     S
C207   H216    1.081   .     S
C207   C619    1.386   1_554 S
C208   C347    1.335   .     S
C208   H355    1.088   .     S
C210   O227    1.295   .     A
C210   O225    1.291   .     A
C211   O226    1.291   .     A
C211   O228    1.295   .     A
H218   C347    1.088   .     S
N219   Zn230   2.038   .     S
N219   Br235   1.872   .     S
N219   N266    1.279   .     S
N220   Zn229   2.038   .     S
O221   Zn229   1.953   .     S
O222   Zn230   1.953   .     S
O223   Zn230   1.972   .     S
O224   Zn229   1.972   .     S
O225   Zn229   1.998   .     S
O226   Zn230   1.998   .     S
O227   Zn230   2.010   .     S
O228   Zn229   2.010   .     S
Br231  C258    1.937   .     S
Br232  C238    1.937   .     S
Br233  C250    1.924   .     S
Br234  C251    1.924   .     S
Br236  N174    1.872   1_655 S
C237   C254    1.400   .     S
C237   O269    1.294   .     A
C237   O267    1.285   .     A
C238   C249    1.397   .     A
C238   C240    1.396   .     A
C239   C241    1.387   .     A
C239   C257    1.418   .     S
C239   C258    1.396   .     A
C240   C256    1.418   .     S
C240   C242    1.387   .     A
C241   C243    1.385   .     A
C241   H259    1.083   .     S
C242   C244    1.385   .     A
C242   H260    1.083   .     S
C243   C245    1.417   .     A
C243   C250    1.407   .     A
C244   C251    1.407   .     A
C244   C246    1.417   .     A
C245   C247    1.419   .     A
C245   C660    1.398   1_554 S
C246   C249    1.419   .     A
C246   C659    1.398   .     S
C247   C253    1.402   .     A
C247   C258    1.397   .     A
C248   O268    1.285   .     A
C248   C255    1.400   .     S
C248   O270    1.294   .     A
C249   C252    1.402   .     A
C250   C666    1.386   1_554 S
C251   C667    1.386   .     S
C252   H261    1.081   .     S
C252   C664    1.386   .     S
C253   H262    1.081   .     S
C253   C665    1.386   1_554 S
C254   C393    1.335   .     S
C254   H401    1.088   .     S
C256   O273    1.295   .     A
C256   O271    1.291   .     A
C257   O272    1.291   .     A
C257   O274    1.295   .     A
H264   C393    1.088   .     S
N265   Zn276   2.038   .     S
N265   Br143   1.872   1_655 S
N265   N174    1.279   1_655 S
N266   Zn275   2.038   .     S
O267   Zn275   1.953   .     S
O268   Zn276   1.953   .     S
O269   Zn276   1.972   .     S
O270   Zn275   1.972   .     S
O271   Zn275   1.998   .     S
O272   Zn276   1.998   .     S
O273   Zn276   2.010   .     S
O274   Zn275   2.010   .     S
Br277  C304    1.937   .     S
Br278  C284    1.937   .     S
Br279  C296    1.924   .     S
Br280  C297    1.924   .     S
Br281  N403    1.872   1_455 S
Br282  N358    1.872   .     S
C283   C300    1.400   .     S
C283   O315    1.294   .     A
C283   O313    1.285   .     A
C284   C295    1.397   .     A
C284   C286    1.396   .     A
C285   C287    1.387   .     A
C285   C303    1.418   .     S
C285   C304    1.396   .     A
C286   C302    1.418   .     S
C286   C288    1.387   .     A
C287   C289    1.385   .     A
C287   H305    1.083   .     S
C288   C290    1.385   .     A
C288   H306    1.083   .     S
C289   C291    1.417   .     A
C289   C296    1.407   .     A
C290   C297    1.407   .     A
C290   C292    1.417   .     A
C291   C293    1.419   .     A
C291   C706    1.398   1_554 S
C292   C295    1.419   .     A
C292   C705    1.398   .     S
C293   C299    1.402   .     A
C293   C304    1.397   .     A
C294   O314    1.285   .     A
C294   C301    1.400   .     S
C294   O316    1.294   .     A
C295   C298    1.402   .     A
C296   C712    1.386   1_554 S
C297   C713    1.386   .     S
C298   H307    1.081   .     S
C298   C710    1.386   .     S
C299   H308    1.081   .     S
C299   C711    1.386   1_554 S
C300   C25     1.335   1_565 S
C300   H33     1.088   1_565 S
C302   O319    1.295   .     A
C302   O317    1.291   .     A
C303   O318    1.291   .     A
C303   O320    1.295   .     A
H310   C25     1.088   1_565 S
N311   Zn322   2.038   .     S
N311   Br327   1.872   .     S
N311   N358    1.279   .     S
N312   Zn321   2.038   .     S
N312   N403    1.279   1_455 S
N312   Br374   1.872   1_455 S
O313   Zn321   1.953   .     S
O314   Zn322   1.953   .     S
O315   Zn322   1.972   .     S
O316   Zn321   1.972   .     S
O317   Zn321   1.998   .     S
O318   Zn322   1.998   .     S
O319   Zn322   2.010   .     S
O320   Zn321   2.010   .     S
Br323  C350    1.937   .     S
Br324  C330    1.937   .     S
Br325  C342    1.924   .     S
Br326  C343    1.924   .     S
Br328  N404    1.872   .     S
C329   C346    1.400   .     S
C329   O361    1.294   .     A
C329   O359    1.285   .     A
C330   C341    1.397   .     A
C330   C332    1.396   .     A
C331   C333    1.387   .     A
C331   C349    1.418   .     S
C331   C350    1.396   .     A
C332   C348    1.418   .     S
C332   C334    1.387   .     A
C333   C335    1.385   .     A
C333   H351    1.083   .     S
C334   C336    1.385   .     A
C334   H352    1.083   .     S
C335   C337    1.417   .     A
C335   C342    1.407   .     A
C336   C343    1.407   .     A
C336   C338    1.417   .     A
C337   C339    1.419   .     A
C337   C752    1.398   1_554 S
C338   C341    1.419   .     A
C338   C751    1.398   .     S
C339   C345    1.402   .     A
C339   C350    1.397   .     A
C340   O360    1.285   .     A
C340   C347    1.400   .     S
C340   O362    1.294   .     A
C341   C344    1.402   .     A
C342   C758    1.386   1_554 S
C343   C759    1.386   .     S
C344   H353    1.081   .     S
C344   C756    1.386   .     S
C345   H354    1.081   .     S
C345   C757    1.386   1_554 S
C346   C71     1.335   1_565 S
C346   H79     1.088   1_565 S
C348   O365    1.295   .     A
C348   O363    1.291   .     A
C349   O364    1.291   .     A
C349   O366    1.295   .     A
H356   C71     1.088   1_565 S
N357   Zn368   2.038   .     S
N357   Br373   1.872   .     S
N357   N404    1.279   .     S
N358   Zn367   2.038   .     S
O359   Zn367   1.953   .     S
O360   Zn368   1.953   .     S
O361   Zn368   1.972   .     S
O362   Zn367   1.972   .     S
O363   Zn367   1.998   .     S
O364   Zn368   1.998   .     S
O365   Zn368   2.010   .     S
O366   Zn367   2.010   .     S
Br369  C396    1.937   .     S
Br370  C376    1.937   .     S
Br371  C388    1.924   .     S
Br372  C389    1.924   .     S
Br374  N312    1.872   1_655 S
C375   C392    1.400   .     S
C375   O407    1.294   .     A
C375   O405    1.285   .     A
C376   C387    1.397   .     A
C376   C378    1.396   .     A
C377   C379    1.387   .     A
C377   C395    1.418   .     S
C377   C396    1.396   .     A
C378   C394    1.418   .     S
C378   C380    1.387   .     A
C379   C381    1.385   .     A
C379   H397    1.083   .     S
C380   C382    1.385   .     A
C380   H398    1.083   .     S
C381   C383    1.417   .     A
C381   C388    1.407   .     A
C382   C389    1.407   .     A
C382   C384    1.417   .     A
C383   C385    1.419   .     A
C383   C798    1.398   1_554 S
C384   C387    1.419   .     A
C384   C797    1.398   .     S
C385   C391    1.402   .     A
C385   C396    1.397   .     A
C386   O406    1.285   .     A
C386   C393    1.400   .     S
C386   O408    1.294   .     A
C387   C390    1.402   .     A
C388   C804    1.386   1_554 S
C389   C805    1.386   .     S
C390   H399    1.081   .     S
C390   C802    1.386   .     S
C391   H400    1.081   .     S
C391   C803    1.386   1_554 S
C392   C117    1.335   1_565 S
C392   H125    1.088   1_565 S
C394   O411    1.295   .     A
C394   O409    1.291   .     A
C395   O410    1.291   .     A
C395   O412    1.295   .     A
H402   C117    1.088   1_565 S
N403   Zn414   2.038   .     S
N403   Br281   1.872   1_655 S
N403   N312    1.279   1_655 S
N404   Zn413   2.038   .     S
O405   Zn413   1.953   .     S
O406   Zn414   1.953   .     S
O407   Zn414   1.972   .     S
O408   Zn413   1.972   .     S
O409   Zn413   1.998   .     S
O410   Zn414   1.998   .     S
O411   Zn414   2.010   .     S
O412   Zn413   2.010   .     S
Br415  C442    1.937   .     S
Br416  C422    1.937   .     S
Br417  C434    1.924   .     S
Br418  C435    1.924   .     S
Br419  N541    1.872   1_455 S
Br420  N496    1.872   .     S
C421   C438    1.400   .     S
C421   O453    1.294   .     A
C421   O451    1.285   .     A
C422   C433    1.397   .     A
C422   C424    1.396   .     A
C423   C425    1.387   .     A
C423   C441    1.418   .     S
C423   C442    1.396   .     A
C424   C440    1.418   .     S
C424   C426    1.387   .     A
C425   C427    1.385   .     A
C425   H443    1.083   .     S
C426   C428    1.385   .     A
C426   H444    1.083   .     S
C427   C429    1.417   .     A
C427   C434    1.407   .     A
C428   C435    1.407   .     A
C428   C430    1.417   .     A
C429   C431    1.419   .     A
C430   C433    1.419   .     A
C430   C15     1.398   1_556 S
C431   C437    1.402   .     A
C431   C442    1.397   .     A
C432   O452    1.285   .     A
C432   C439    1.400   .     S
C432   O454    1.294   .     A
C433   C436    1.402   .     A
C435   C23     1.386   1_556 S
C436   H445    1.081   .     S
C436   C20     1.386   1_556 S
C437   H446    1.081   .     S
C438   C577    1.335   .     S
C438   H585    1.088   .     S
C439   C714    1.335   1_545 S
C439   H724    1.088   1_545 S
C440   O457    1.295   .     A
C440   O455    1.291   .     A
C441   O456    1.291   .     A
C441   O458    1.295   .     A
H447   C714    1.088   1_545 S
H448   C577    1.088   .     S
N449   Zn460   2.038   .     S
N449   Br465   1.872   .     S
N449   N496    1.279   .     S
N450   Zn459   2.038   .     S
N450   N541    1.279   1_455 S
N450   Br512   1.872   1_455 S
O451   Zn459   1.953   .     S
O452   Zn460   1.953   .     S
O453   Zn460   1.972   .     S
O454   Zn459   1.972   .     S
O455   Zn459   1.998   .     S
O456   Zn460   1.998   .     S
O457   Zn460   2.010   .     S
O458   Zn459   2.010   .     S
Br461  C488    1.937   .     S
Br462  C468    1.937   .     S
Br463  C480    1.924   .     S
Br464  C481    1.924   .     S
Br466  N542    1.872   .     S
C467   C484    1.400   .     S
C467   O499    1.294   .     A
C467   O497    1.285   .     A
C468   C479    1.397   .     A
C468   C470    1.396   .     A
C469   C471    1.387   .     A
C469   C487    1.418   .     S
C469   C488    1.396   .     A
C470   C486    1.418   .     S
C470   C472    1.387   .     A
C471   C473    1.385   .     A
C471   H489    1.083   .     S
C472   C474    1.385   .     A
C472   H490    1.083   .     S
C473   C475    1.417   .     A
C473   C480    1.407   .     A
C474   C481    1.407   .     A
C474   C476    1.417   .     A
C475   C477    1.419   .     A
C476   C479    1.419   .     A
C476   C61     1.398   1_556 S
C477   C483    1.402   .     A
C477   C488    1.397   .     A
C478   O498    1.285   .     A
C478   C485    1.400   .     S
C478   O500    1.294   .     A
C479   C482    1.402   .     A
C481   C69     1.386   1_556 S
C482   H491    1.081   .     S
C482   C66     1.386   1_556 S
C483   H492    1.081   .     S
C484   C623    1.335   .     S
C484   H631    1.088   .     S
C485   C760    1.335   1_545 S
C485   H770    1.088   1_545 S
C486   O503    1.295   .     A
C486   O501    1.291   .     A
C487   O502    1.291   .     A
C487   O504    1.295   .     A
H493   C760    1.088   1_545 S
H494   C623    1.088   .     S
N495   Zn506   2.038   .     S
N495   Br511   1.872   .     S
N495   N542    1.279   .     S
N496   Zn505   2.038   .     S
O497   Zn505   1.953   .     S
O498   Zn506   1.953   .     S
O499   Zn506   1.972   .     S
O500   Zn505   1.972   .     S
O501   Zn505   1.998   .     S
O502   Zn506   1.998   .     S
O503   Zn506   2.010   .     S
O504   Zn505   2.010   .     S
Br507  C534    1.937   .     S
Br508  C514    1.937   .     S
Br509  C526    1.924   .     S
Br510  C527    1.924   .     S
Br512  N450    1.872   1_655 S
C513   C530    1.400   .     S
C513   O545    1.294   .     A
C513   O543    1.285   .     A
C514   C525    1.397   .     A
C514   C516    1.396   .     A
C515   C517    1.387   .     A
C515   C533    1.418   .     S
C515   C534    1.396   .     A
C516   C532    1.418   .     S
C516   C518    1.387   .     A
C517   C519    1.385   .     A
C517   H535    1.083   .     S
C518   C520    1.385   .     A
C518   H536    1.083   .     S
C519   C521    1.417   .     A
C519   C526    1.407   .     A
C520   C527    1.407   .     A
C520   C522    1.417   .     A
C521   C523    1.419   .     A
C522   C525    1.419   .     A
C522   C107    1.398   1_556 S
C523   C529    1.402   .     A
C523   C534    1.397   .     A
C524   O544    1.285   .     A
C524   C531    1.400   .     S
C524   O546    1.294   .     A
C525   C528    1.402   .     A
C527   C115    1.386   1_556 S
C528   H537    1.081   .     S
C528   C112    1.386   1_556 S
C529   H538    1.081   .     S
C530   C669    1.335   .     S
C530   H677    1.088   .     S
C531   C806    1.335   1_545 S
C531   H816    1.088   1_545 S
C532   O549    1.295   .     A
C532   O547    1.291   .     A
C533   O548    1.291   .     A
C533   O550    1.295   .     A
H539   C806    1.088   1_545 S
H540   C669    1.088   .     S
N541   Zn552   2.038   .     S
N541   Br419   1.872   1_655 S
N541   N450    1.279   1_655 S
N542   Zn551   2.038   .     S
O543   Zn551   1.953   .     S
O544   Zn552   1.953   .     S
O545   Zn552   1.972   .     S
O546   Zn551   1.972   .     S
O547   Zn551   1.998   .     S
O548   Zn552   1.998   .     S
O549   Zn552   2.010   .     S
O550   Zn551   2.010   .     S
Br553  C580    1.937   .     S
Br554  C560    1.937   .     S
Br555  C572    1.924   .     S
Br556  C573    1.924   .     S
Br557  N679    1.872   1_455 S
Br558  N634    1.872   .     S
C559   C576    1.400   .     S
C559   O591    1.294   .     A
C559   O589    1.285   .     A
C560   C571    1.397   .     A
C560   C562    1.396   .     A
C561   C563    1.387   .     A
C561   C579    1.418   .     S
C561   C580    1.396   .     A
C562   C578    1.418   .     S
C562   C564    1.387   .     A
C563   C565    1.385   .     A
C563   H581    1.083   .     S
C564   C566    1.385   .     A
C564   H582    1.083   .     S
C565   C567    1.417   .     A
C565   C572    1.407   .     A
C566   C573    1.407   .     A
C566   C568    1.417   .     A
C567   C569    1.419   .     A
C568   C571    1.419   .     A
C568   C153    1.398   1_556 S
C569   C575    1.402   .     A
C569   C580    1.397   .     A
C570   O590    1.285   .     A
C570   C577    1.400   .     S
C570   O592    1.294   .     A
C571   C574    1.402   .     A
C573   C161    1.386   1_556 S
C574   H583    1.081   .     S
C574   C158    1.386   1_556 S
C575   H584    1.081   .     S
C576   C715    1.335   .     S
C576   H723    1.088   .     S
C578   O595    1.295   .     A
C578   O593    1.291   .     A
C579   O594    1.291   .     A
C579   O596    1.295   .     A
H586   C715    1.088   .     S
N587   Zn598   2.038   .     S
N587   Br603   1.872   .     S
N587   N634    1.279   .     S
N588   Zn597   2.038   .     S
N588   N679    1.279   1_455 S
N588   Br650   1.872   1_455 S
O589   Zn597   1.953   .     S
O590   Zn598   1.953   .     S
O591   Zn598   1.972   .     S
O592   Zn597   1.972   .     S
O593   Zn597   1.998   .     S
O594   Zn598   1.998   .     S
O595   Zn598   2.010   .     S
O596   Zn597   2.010   .     S
Br599  C626    1.937   .     S
Br600  C606    1.937   .     S
Br601  C618    1.924   .     S
Br602  C619    1.924   .     S
Br604  N680    1.872   .     S
C605   C622    1.400   .     S
C605   O637    1.294   .     A
C605   O635    1.285   .     A
C606   C617    1.397   .     A
C606   C608    1.396   .     A
C607   C609    1.387   .     A
C607   C625    1.418   .     S
C607   C626    1.396   .     A
C608   C624    1.418   .     S
C608   C610    1.387   .     A
C609   C611    1.385   .     A
C609   H627    1.083   .     S
C610   C612    1.385   .     A
C610   H628    1.083   .     S
C611   C613    1.417   .     A
C611   C618    1.407   .     A
C612   C619    1.407   .     A
C612   C614    1.417   .     A
C613   C615    1.419   .     A
C614   C617    1.419   .     A
C614   C199    1.398   1_556 S
C615   C621    1.402   .     A
C615   C626    1.397   .     A
C616   O636    1.285   .     A
C616   C623    1.400   .     S
C616   O638    1.294   .     A
C617   C620    1.402   .     A
C619   C207    1.386   1_556 S
C620   H629    1.081   .     S
C620   C204    1.386   1_556 S
C621   H630    1.081   .     S
C622   C761    1.335   .     S
C622   H769    1.088   .     S
C624   O641    1.295   .     A
C624   O639    1.291   .     A
C625   O640    1.291   .     A
C625   O642    1.295   .     A
H632   C761    1.088   .     S
N633   Zn644   2.038   .     S
N633   Br649   1.872   .     S
N633   N680    1.279   .     S
N634   Zn643   2.038   .     S
O635   Zn643   1.953   .     S
O636   Zn644   1.953   .     S
O637   Zn644   1.972   .     S
O638   Zn643   1.972   .     S
O639   Zn643   1.998   .     S
O640   Zn644   1.998   .     S
O641   Zn644   2.010   .     S
O642   Zn643   2.010   .     S
Br645  C672    1.937   .     S
Br646  C652    1.937   .     S
Br647  C664    1.924   .     S
Br648  C665    1.924   .     S
Br650  N588    1.872   1_655 S
C651   C668    1.400   .     S
C651   O683    1.294   .     A
C651   O681    1.285   .     A
C652   C663    1.397   .     A
C652   C654    1.396   .     A
C653   C655    1.387   .     A
C653   C671    1.418   .     S
C653   C672    1.396   .     A
C654   C670    1.418   .     S
C654   C656    1.387   .     A
C655   C657    1.385   .     A
C655   H673    1.083   .     S
C656   C658    1.385   .     A
C656   H674    1.083   .     S
C657   C659    1.417   .     A
C657   C664    1.407   .     A
C658   C665    1.407   .     A
C658   C660    1.417   .     A
C659   C661    1.419   .     A
C660   C663    1.419   .     A
C660   C245    1.398   1_556 S
C661   C667    1.402   .     A
C661   C672    1.397   .     A
C662   O682    1.285   .     A
C662   C669    1.400   .     S
C662   O684    1.294   .     A
C663   C666    1.402   .     A
C665   C253    1.386   1_556 S
C666   H675    1.081   .     S
C666   C250    1.386   1_556 S
C667   H676    1.081   .     S
C668   C807    1.335   .     S
C668   H815    1.088   .     S
C670   O687    1.295   .     A
C670   O685    1.291   .     A
C671   O686    1.291   .     A
C671   O688    1.295   .     A
H678   C807    1.088   .     S
N679   Zn690   2.038   .     S
N679   Br557   1.872   1_655 S
N679   N588    1.279   1_655 S
N680   Zn689   2.038   .     S
O681   Zn689   1.953   .     S
O682   Zn690   1.953   .     S
O683   Zn690   1.972   .     S
O684   Zn689   1.972   .     S
O685   Zn689   1.998   .     S
O686   Zn690   1.998   .     S
O687   Zn690   2.010   .     S
O688   Zn689   2.010   .     S
Br691  C718    1.937   .     S
Br692  C698    1.937   .     S
Br693  C710    1.924   .     S
Br694  C711    1.924   .     S
Br695  N817    1.872   1_455 S
Br696  N772    1.872   .     S
C697   C714    1.400   .     S
C697   O729    1.294   .     A
C697   O727    1.285   .     A
C698   C709    1.397   .     A
C698   C700    1.396   .     A
C699   C701    1.387   .     A
C699   C717    1.418   .     S
C699   C718    1.396   .     A
C700   C716    1.418   .     S
C700   C702    1.387   .     A
C701   C703    1.385   .     A
C701   H719    1.083   .     S
C702   C704    1.385   .     A
C702   H720    1.083   .     S
C703   C705    1.417   .     A
C703   C710    1.407   .     A
C704   C711    1.407   .     A
C704   C706    1.417   .     A
C705   C707    1.419   .     A
C706   C709    1.419   .     A
C706   C291    1.398   1_556 S
C707   C713    1.402   .     A
C707   C718    1.397   .     A
C708   O728    1.285   .     A
C708   C715    1.400   .     S
C708   O730    1.294   .     A
C709   C712    1.402   .     A
C711   C299    1.386   1_556 S
C712   H721    1.081   .     S
C712   C296    1.386   1_556 S
C713   H722    1.081   .     S
C714   C439    1.335   1_565 S
C714   H447    1.088   1_565 S
C716   O733    1.295   .     A
C716   O731    1.291   .     A
C717   O732    1.291   .     A
C717   O734    1.295   .     A
H724   C439    1.088   1_565 S
N725   Zn736   2.038   .     S
N725   Br741   1.872   .     S
N725   N772    1.279   .     S
N726   Zn735   2.038   .     S
N726   N817    1.279   1_455 S
N726   Br788   1.872   1_455 S
O727   Zn735   1.953   .     S
O728   Zn736   1.953   .     S
O729   Zn736   1.972   .     S
O730   Zn735   1.972   .     S
O731   Zn735   1.998   .     S
O732   Zn736   1.998   .     S
O733   Zn736   2.010   .     S
O734   Zn735   2.010   .     S
Br737  C764    1.937   .     S
Br738  C744    1.937   .     S
Br739  C756    1.924   .     S
Br740  C757    1.924   .     S
Br742  N818    1.872   .     S
C743   C760    1.400   .     S
C743   O775    1.294   .     A
C743   O773    1.285   .     A
C744   C755    1.397   .     A
C744   C746    1.396   .     A
C745   C747    1.387   .     A
C745   C763    1.418   .     S
C745   C764    1.396   .     A
C746   C762    1.418   .     S
C746   C748    1.387   .     A
C747   C749    1.385   .     A
C747   H765    1.083   .     S
C748   C750    1.385   .     A
C748   H766    1.083   .     S
C749   C751    1.417   .     A
C749   C756    1.407   .     A
C750   C757    1.407   .     A
C750   C752    1.417   .     A
C751   C753    1.419   .     A
C752   C755    1.419   .     A
C752   C337    1.398   1_556 S
C753   C759    1.402   .     A
C753   C764    1.397   .     A
C754   O774    1.285   .     A
C754   C761    1.400   .     S
C754   O776    1.294   .     A
C755   C758    1.402   .     A
C757   C345    1.386   1_556 S
C758   H767    1.081   .     S
C758   C342    1.386   1_556 S
C759   H768    1.081   .     S
C760   C485    1.335   1_565 S
C760   H493    1.088   1_565 S
C762   O779    1.295   .     A
C762   O777    1.291   .     A
C763   O778    1.291   .     A
C763   O780    1.295   .     A
H770   C485    1.088   1_565 S
N771   Zn782   2.038   .     S
N771   Br787   1.872   .     S
N771   N818    1.279   .     S
N772   Zn781   2.038   .     S
O773   Zn781   1.953   .     S
O774   Zn782   1.953   .     S
O775   Zn782   1.972   .     S
O776   Zn781   1.972   .     S
O777   Zn781   1.998   .     S
O778   Zn782   1.998   .     S
O779   Zn782   2.010   .     S
O780   Zn781   2.010   .     S
Br783  C810    1.937   .     S
Br784  C790    1.937   .     S
Br785  C802    1.924   .     S
Br786  C803    1.924   .     S
Br788  N726    1.872   1_655 S
C789   C806    1.400   .     S
C789   O821    1.294   .     A
C789   O819    1.285   .     A
C790   C801    1.397   .     A
C790   C792    1.396   .     A
C791   C793    1.387   .     A
C791   C809    1.418   .     S
C791   C810    1.396   .     A
C792   C808    1.418   .     S
C792   C794    1.387   .     A
C793   C795    1.385   .     A
C793   H811    1.083   .     S
C794   C796    1.385   .     A
C794   H812    1.083   .     S
C795   C797    1.417   .     A
C795   C802    1.407   .     A
C796   C803    1.407   .     A
C796   C798    1.417   .     A
C797   C799    1.419   .     A
C798   C801    1.419   .     A
C798   C383    1.398   1_556 S
C799   C805    1.402   .     A
C799   C810    1.397   .     A
C800   O820    1.285   .     A
C800   C807    1.400   .     S
C800   O822    1.294   .     A
C801   C804    1.402   .     A
C803   C391    1.386   1_556 S
C804   H813    1.081   .     S
C804   C388    1.386   1_556 S
C805   H814    1.081   .     S
C806   C531    1.335   1_565 S
C806   H539    1.088   1_565 S
C808   O825    1.295   .     A
C808   O823    1.291   .     A
C809   O824    1.291   .     A
C809   O826    1.295   .     A
H816   C531    1.088   1_565 S
N817   Zn828   2.038   .     S
N817   Br695   1.872   1_655 S
N817   N726    1.279   1_655 S
N818   Zn827   2.038   .     S
O819   Zn827   1.953   .     S
O820   Zn828   1.953   .     S
O821   Zn828   1.972   .     S
O822   Zn827   1.972   .     S
O823   Zn827   1.998   .     S
O824   Zn828   1.998   .     S
O825   Zn828   2.010   .     S
O826   Zn827   2.010   .     S
